@<TRIPOS>MOLECULE
C0P
   43    45     1     0     0
SMALL
bcc


@<TRIPOS>ATOM
      1 N1         -0.1910    0.0670   -0.0300 n4        1 C0P     -0.815300
      2 C2          1.2890    0.2560   -0.1250 ca        1 C0P      0.707900
      3 N3          1.9030    0.7170    1.0060 nb        1 C0P     -0.673000
      4 C4          3.2490    0.8890    0.8950 ca        1 C0P      0.536300
      5 CL5         4.1010    1.4560    2.2410 cl        1 C0P     -0.037000
      6 C6          3.9410    0.6130   -0.3050 ca        1 C0P     -0.293600
      7 C7          3.1960    0.1410   -1.4140 cp        1 C0P      0.559800
      8 N8          1.8500   -0.0520   -1.3340 nb        1 C0P     -0.655000
      9 C9          3.8910   -0.1540   -2.6770 cp        1 C0P     -0.166500
     10 C10         5.0250   -0.9780   -2.6260 ca        1 C0P     -0.177000
     11 C11         5.7280   -1.2840   -3.7940 ca        1 C0P      0.154100
     12 O12         6.8460   -2.0770   -3.8310 os        1 C0P     -0.304900
     13 C13         7.2730   -2.6560   -2.5870 c3        1 C0P      0.122400
     14 C14         8.5180   -3.4910   -2.9210 c3        1 C0P      0.171800
     15 N15         9.7350   -2.6990   -2.9410 n3        1 C0P     -0.737600
     16 C17         9.9020   -1.9500   -4.1820 c3        1 C0P      0.131300
     17 C18        11.2100   -1.1520   -4.2080 c3        1 C0P      0.126400
     18 O19        12.3320   -1.9820   -3.9330 os        1 C0P     -0.407600
     19 C20        12.2070   -2.6580   -2.6890 c3        1 C0P      0.126400
     20 C21        10.9190   -3.4890   -2.6190 c3        1 C0P      0.131300
     21 C22         5.2920   -0.7550   -5.0380 ca        1 C0P      0.025400
     22 CL23        6.1010   -1.0930   -6.4820 cl        1 C0P     -0.015400
     23 C24         4.1690    0.0680   -5.0760 ca        1 C0P     -0.095000
     24 C25         3.4640    0.3690   -3.9030 ca        1 C0P      0.034400
     25 CL26        2.1220    1.4030   -4.0160 cl        1 C0P     -0.068400
     26 H11N       -0.4260   -0.8980   -0.2950 hn        1 C0P      0.483133
     27 H12N       -0.6510    0.7200   -0.6780 hn        1 C0P      0.483133
     28 H6          5.0290    0.7690   -0.3880 ha        1 C0P      0.208000
     29 H10         5.3490   -1.3870   -1.6570 ha        1 C0P      0.151000
     30 H131        6.4620   -3.3270   -2.2000 h1        1 C0P      0.050200
     31 H132        7.4940   -1.8420   -1.8490 h1        1 C0P      0.050200
     32 H141        8.3330   -4.0200   -3.9020 h1        1 C0P      0.057700
     33 H142        8.6030   -4.2720   -2.1130 h1        1 C0P      0.057700
     34 H171        9.8830   -2.6330   -5.0810 h1        1 C0P      0.045700
     35 H172        9.0340   -1.2390   -4.2710 h1        1 C0P      0.045700
     36 H211       10.8040   -3.8780   -1.5700 h1        1 C0P      0.045700
     37 H212       11.0270   -4.3740   -3.3120 h1        1 C0P      0.045700
     38 H181       11.4000   -0.7580   -5.2410 h1        1 C0P      0.057700
     39 H182       11.1770   -0.3070   -3.4720 h1        1 C0P      0.057700
     40 H201       13.1020   -3.3330   -2.6460 h1        1 C0P      0.057700
     41 H202       12.2430   -1.9140   -1.8500 h1        1 C0P      0.057700
     42 H24         3.8290    0.4880   -6.0400 ha        1 C0P      0.182000
     43 H13        -0.5100    0.2510    0.9310 hn        1 C0P      0.483133
@<TRIPOS>BOND
     1    1    2 1   
     2    1   26 1   
     3    1   27 1   
     4    1   43 1   
     5    2    3 ar  
     6    2    8 ar  
     7    3    4 ar  
     8    4    5 1   
     9    4    6 ar  
    10    6    7 ar  
    11    6   28 1   
    12    7    8 ar  
    13    7    9 1   
    14    9   10 ar  
    15    9   24 ar  
    16   10   11 ar  
    17   10   29 1   
    18   11   12 1   
    19   11   21 ar  
    20   12   13 1   
    21   13   14 1   
    22   13   30 1   
    23   13   31 1   
    24   14   15 1   
    25   14   32 1   
    26   14   33 1   
    27   15   16 1   
    28   15   20 1   
    29   16   17 1   
    30   16   34 1   
    31   16   35 1   
    32   17   18 1   
    33   17   38 1   
    34   17   39 1   
    35   18   19 1   
    36   19   20 1   
    37   19   40 1   
    38   19   41 1   
    39   20   36 1   
    40   20   37 1   
    41   21   22 1   
    42   21   23 ar  
    43   23   24 ar  
    44   23   42 1   
    45   24   25 1   
@<TRIPOS>SUBSTRUCTURE
     1 C0P         1 TEMP              0 ****  ****    0 ROOT
