@<TRIPOS>MOLECULE
C0P
   42    44     1     0     0
SMALL
bcc


@<TRIPOS>ATOM
      1 N1          5.9730    0.4160   -1.6250 nh        1 C0P     -0.929500
      2 C2          4.8880    0.5960   -0.7700 ca        1 C0P      0.887900
      3 N3          4.9140    1.7050    0.0740 nb        1 C0P     -0.746000
      4 C4          3.8040    1.9050    0.8100 ca        1 C0P      0.562300
      5 CL5         3.7640    3.2550    1.8610 cl        1 C0P     -0.141000
      6 C6          2.6770    1.0610    0.7690 ca        1 C0P     -0.406600
      7 C7          2.7570   -0.0550   -0.0950 cp        1 C0P      0.536800
      8 N8          3.8350   -0.3110   -0.8640 nb        1 C0P     -0.729000
      9 C9          1.6000   -0.9740   -0.1580 cp        1 C0P     -0.111500
     10 C10         0.3650   -0.4540   -0.5620 ca        1 C0P     -0.178000
     11 C11        -0.7620   -1.2800   -0.6330 ca        1 C0P      0.141100
     12 O12        -2.0050   -0.8470   -1.0350 os        1 C0P     -0.308900
     13 C13        -2.1360    0.5570   -1.2960 c3        1 C0P      0.126400
     14 C14        -3.6220    0.7670   -1.6270 c3        1 C0P      0.172800
     15 N15        -4.4230    1.0590   -0.4510 n3        1 C0P     -0.735600
     16 C17        -5.7590    0.4820   -0.5100 c3        1 C0P      0.138300
     17 C18        -6.5990    0.8300    0.7240 c3        1 C0P      0.126400
     18 O19        -6.6240    2.2320    0.9680 os        1 C0P     -0.414600
     19 C20        -5.3160    2.7730    1.1110 c3        1 C0P      0.126400
     20 C21        -4.4460    2.4760   -0.1170 c3        1 C0P      0.138300
     21 C22        -0.6510   -2.6490   -0.2930 ca        1 C0P      0.003400
     22 CL23       -1.9800   -3.7000   -0.3620 cl        1 C0P     -0.060400
     23 C24         0.5820   -3.1590    0.1110 ca        1 C0P     -0.099000
     24 C25         1.7070   -2.3280    0.1790 ca        1 C0P      0.020400
     25 CL26        3.1780   -2.9980    0.6950 cl        1 C0P     -0.069400
     26 H11N        6.8060    0.9140   -1.4160 hn        1 C0P      0.437300
     27 H12N        6.0700   -0.4740   -2.0550 hn        1 C0P      0.437300
     28 H6          1.7890    1.2450    1.3830 ha        1 C0P      0.170000
     29 H10         0.3010    0.6120   -0.8270 ha        1 C0P      0.152000
     30 H131       -1.8040    1.1460   -0.4040 h1        1 C0P      0.047700
     31 H132       -1.5100    0.8210   -2.1890 h1        1 C0P      0.047700
     32 H141       -3.6780    1.5970   -2.3910 h1        1 C0P      0.053700
     33 H142       -4.0010   -0.1770   -2.1150 h1        1 C0P      0.053700
     34 H171       -6.3180    0.8240   -1.4300 h1        1 C0P      0.040200
     35 H172       -5.6490   -0.6370   -0.5630 h1        1 C0P      0.040200
     36 H211       -3.3900    2.7940    0.1050 h1        1 C0P      0.040200
     37 H212       -4.8240    3.1010   -0.9790 h1        1 C0P      0.040200
     38 H181       -7.6730    0.5580    0.5480 h1        1 C0P      0.055450
     39 H182       -6.2080    0.2980    1.6310 h1        1 C0P      0.055450
     40 H201       -5.4790    3.8780    1.2100 h1        1 C0P      0.055450
     41 H202       -4.8400    2.3660    2.0420 h1        1 C0P      0.055450
     42 H24         0.6720   -4.2250    0.3780 ha        1 C0P      0.165000
@<TRIPOS>BOND
     1    1    2 1   
     2    1   26 1   
     3    1   27 1   
     4    2    3 ar  
     5    2    8 ar  
     6    3    4 ar  
     7    4    5 1   
     8    4    6 ar  
     9    6    7 ar  
    10    6   28 1   
    11    7    8 ar  
    12    7    9 1   
    13    9   10 ar  
    14    9   24 ar  
    15   10   11 ar  
    16   10   29 1   
    17   11   12 1   
    18   11   21 ar  
    19   12   13 1   
    20   13   14 1   
    21   13   30 1   
    22   13   31 1   
    23   14   15 1   
    24   14   32 1   
    25   14   33 1   
    26   15   16 1   
    27   15   20 1   
    28   16   17 1   
    29   16   34 1   
    30   16   35 1   
    31   17   18 1   
    32   17   38 1   
    33   17   39 1   
    34   18   19 1   
    35   19   20 1   
    36   19   40 1   
    37   19   41 1   
    38   20   36 1   
    39   20   37 1   
    40   21   22 1   
    41   21   23 ar  
    42   23   24 ar  
    43   23   42 1   
    44   24   25 1   
@<TRIPOS>SUBSTRUCTURE
     1 C0P         1 TEMP              0 ****  ****    0 ROOT
