@<TRIPOS>MOLECULE
C0P
   42    44     1     0     0
SMALL
bcc


@<TRIPOS>ATOM
      1 N1          0.0840   -0.4590    0.3170 nv        1 C0P     -0.929500
      2 C2          1.4020   -0.0500    0.1250 ca        1 C0P      0.887900
      3 N3          2.1010    0.4040    1.2410 nb        1 C0P     -0.746000
      4 C4          3.4010    0.6920    1.0400 ca        1 C0P      0.562300
      5 Cl5         4.3230    1.2450    2.3720 cl        1 C0P     -0.141000
      6 C6          4.0440    0.5680   -0.2080 ca        1 C0P     -0.406600
      7 C7          3.2440    0.1280   -1.2870 cp        1 C0P      0.536800
      8 N8          1.9380   -0.1820   -1.1530 nb        1 C0P     -0.729000
      9 C9          3.8770   -0.0030   -2.6170 cp        1 C0P     -0.111500
     10 C10         4.9560   -0.8840   -2.7510 ca        1 C0P     -0.178000
     11 C11         5.5930   -1.0400   -3.9870 ca        1 C0P      0.141100
     12 O12         6.6480   -1.8970   -4.2030 os        1 C0P     -0.308900
     13 C13         7.1590   -2.5790   -3.0490 c3        1 C0P      0.126400
     14 C14         8.3700   -3.3770   -3.5580 c3        1 C0P      0.172800
     15 N15         9.6100   -2.6250   -3.4830 n3        1 C0P     -0.735600
     16 C17        10.5170   -2.9050   -4.5880 c3        1 C0P      0.138300
     17 C18        11.8330   -2.1270   -4.4730 c3        1 C0P      0.126400
     18 O19        12.4480   -2.3160   -3.2040 os        1 C0P     -0.414600
     19 C20        11.5850   -1.9580   -2.1320 c3        1 C0P      0.126400
     20 C21        10.2650   -2.7360   -2.1880 c3        1 C0P      0.138300
     21 C22         5.1440   -0.3000   -5.1070 ca        1 C0P      0.003400
     22 Cl23        5.8730   -0.4480   -6.6310 cl        1 C0P     -0.060400
     23 C24         4.0700    0.5770   -4.9640 ca        1 C0P     -0.099000
     24 C25         3.4350    0.7290   -3.7250 ca        1 C0P      0.020400
     25 Cl26        2.1450    1.8250   -3.6060 cl        1 C0P     -0.069400
     26 H11N       -0.4810   -0.5640   -0.4920 hn        1 C0P      0.437300
     27 H12N       -0.3660   -0.1680    1.1530 hn        1 C0P      0.437300
     28 H6          5.1020    0.8130   -0.3450 ha        1 C0P      0.170000
     29 H10         5.2870   -1.4530   -1.8700 ha        1 C0P      0.152000
     30 H131        6.3750   -3.2850   -2.6670 h1        1 C0P      0.047700
     31 H132        7.4320   -1.8390   -2.2550 h1        1 C0P      0.047700
     32 H141        8.4180   -4.3290   -2.9530 h1        1 C0P      0.053700
     33 H142        8.1660   -3.6610   -4.6310 h1        1 C0P      0.053700
     34 H171       10.7580   -4.0060   -4.6580 h1        1 C0P      0.040200
     35 H172       10.0030   -2.5970   -5.5410 h1        1 C0P      0.040200
     36 H211       10.4750   -3.8130   -1.9180 h1        1 C0P      0.040200
     37 H212        9.5660   -2.3160   -1.4120 h1        1 C0P      0.040200
     38 H181       11.6620   -1.0320   -4.6480 h1        1 C0P      0.055450
     39 H182       12.5800   -2.5240   -5.2080 h1        1 C0P      0.055450
     40 H201       12.1560   -2.2350   -1.2070 h1        1 C0P      0.055450
     41 H202       11.3950   -0.8530   -2.1540 h1        1 C0P      0.055450
     42 H24         3.7180    1.1570   -5.8340 ha        1 C0P      0.165000
@<TRIPOS>BOND
     1    1    2 1   
     2    1   26 1   
     3    1   27 1   
     4    2    3 ar  
     5    2    8 ar  
     6    3    4 ar  
     7    4    5 1   
     8    4    6 ar  
     9    6    7 ar  
    10    6   28 1   
    11    7    8 ar  
    12    7    9 1   
    13    9   10 ar  
    14    9   24 ar  
    15   10   11 ar  
    16   10   29 1   
    17   11   12 1   
    18   11   21 ar  
    19   12   13 1   
    20   13   14 1   
    21   13   30 1   
    22   13   31 1   
    23   14   15 1   
    24   14   32 1   
    25   14   33 1   
    26   15   16 1   
    27   15   20 1   
    28   16   17 1   
    29   16   34 1   
    30   16   35 1   
    31   17   18 1   
    32   17   38 1   
    33   17   39 1   
    34   18   19 1   
    35   19   20 1   
    36   19   40 1   
    37   19   41 1   
    38   20   36 1   
    39   20   37 1   
    40   21   22 1   
    41   21   23 ar  
    42   23   24 ar  
    43   23   42 1   
    44   24   25 1   
@<TRIPOS>SUBSTRUCTURE
     1 C0P         1 TEMP              0 ****  ****    0 ROOT
