@<TRIPOS>MOLECULE
C0P
   42    38     1     0     0
SMALL
bcc


@<TRIPOS>ATOM
      1 N1         -6.6300   -1.0690    2.6010 n3        1 C0P     -0.330000
      2 C2         -5.4490   -0.2750    2.5640 c2        1 C0P      0.173000
      3 N3         -5.1500    0.5710    3.6310 n2        1 C0P     -0.221000
      4 C4         -4.1360    1.4240    3.5390 c1        1 C0P      0.070000
      5 CL5        -3.7060    2.4470    4.9270 cl        1 C0P      0.021500
      6 C6         -3.3970    1.4700    2.4140 c2        1 C0P     -0.278000
      7 C7         -3.6950    0.6240    1.3460 c1        1 C0P      0.103000
      8 N8         -4.7080   -0.2280    1.4370 n1        1 C0P     -0.205000
      9 C9         -3.0180    0.7360    0.1970 c1        1 C0P     -0.031000
     10 C10        -1.8770   -0.0580   -0.0270 c1        1 C0P     -0.106000
     11 C11        -1.2050    0.0110   -1.2560 c1        1 C0P      0.054000
     12 O12        -0.0980   -0.8570   -1.5120 os        1 C0P     -0.223000
     13 C13         1.1420   -0.2330   -1.4080 c3        1 C0P     -0.021000
     14 C14         2.1560   -1.2080   -0.8920 c3        1 C0P     -0.072000
     15 N15         3.4930   -0.6230   -0.9990 n3        1 C0P     -0.253000
     16 C17         4.3680   -1.5560   -1.6070 c3        1 C0P     -0.104500
     17 C18         5.8090   -1.0820   -1.6120 c3        1 C0P     -0.024000
     18 O19         6.2520   -0.6770   -0.3220 os        1 C0P     -0.271000
     19 C20         5.3740    0.2620    0.2900 c3        1 C0P     -0.024000
     20 C21         3.9370   -0.2160    0.2960 c3        1 C0P     -0.104500
     21 C22        -1.6590    0.8560   -2.2460 c1        1 C0P     -0.061000
     22 CL23       -0.7570    0.9820   -3.8120 cl        1 C0P      0.021500
     23 C24        -2.8070    1.6540   -2.0210 c2        1 C0P     -0.122000
     24 C25        -3.4760    1.5850   -0.7960 c1        1 C0P     -0.028000
     25 CL26       -4.9180    2.5530   -0.5250 cl        1 C0P      0.016000
     26 H11N       -7.0820   -1.1830    3.3950 hn        1 C0P      0.234500
     27 H12N       -6.9140   -1.5170    1.8350 hn        1 C0P      0.234500
     28 H6         -2.6480    2.1000    2.3460 ha        1 C0P      0.168000
     29 H10        -1.6390   -0.7610    0.6200 ha        1 C0P      0.162000
     30 H131        1.0750    0.4980   -0.8120 h1        1 C0P      0.086000
     31 H132        1.4190    0.0890   -2.2880 h1        1 C0P      0.086000
     32 H141        2.1170   -2.0010   -1.4020 h1        1 C0P      0.090500
     33 H142        1.9560   -1.4210    0.0770 h1        1 C0P      0.090500
     34 H171        4.0860   -1.7010   -2.5220 h1        1 C0P      0.081250
     35 H172        4.3150   -2.4180   -1.1130 h1        1 C0P      0.081250
     36 H211        3.8580   -0.9890    0.9200 h1        1 C0P      0.081250
     37 H212        3.3720    0.4940    0.6100 h1        1 C0P      0.081250
     38 H181        5.8940   -0.2930   -2.2520 h1        1 C0P      0.094250
     39 H182        6.3800   -1.8100   -1.9300 h1        1 C0P      0.094250
     40 H201        5.4250    1.1350   -0.2170 h1        1 C0P      0.094250
     41 H202        5.6770    0.4220    1.2570 h1        1 C0P      0.094250
     42 H24        -3.1350    2.2610   -2.7310 ha        1 C0P      0.166000
@<TRIPOS>BOND
     1    1    2 1   
     2    1   26 1   
     3    1   27 1   
     4    2    3 1   
     5    2    8 1   
     6    3    4 1   
     7    4    6 1   
     8    6    7 1   
     9    6   28 1   
    10    9   10 1   
    11   10   29 1   
    12   11   12 1   
    13   11   21 1   
    14   12   13 1   
    15   13   14 1   
    16   13   30 1   
    17   13   31 1   
    18   14   15 1   
    19   14   32 1   
    20   14   33 1   
    21   15   16 1   
    22   15   20 1   
    23   16   17 1   
    24   16   34 1   
    25   16   35 1   
    26   17   18 1   
    27   17   38 1   
    28   17   39 1   
    29   18   19 1   
    30   19   20 1   
    31   19   40 1   
    32   19   41 1   
    33   20   36 1   
    34   20   37 1   
    35   21   23 1   
    36   23   24 1   
    37   23   42 1   
    38   24   25 1   
@<TRIPOS>SUBSTRUCTURE
     1 C0P         1 TEMP              0 ****  ****    0 ROOT
