@<TRIPOS>MOLECULE
C0R
   55    58     1     0     0
SMALL
bcc


@<TRIPOS>ATOM
      1 C1         -0.1320    0.1510    0.1190 c3        1 C0R     -0.071400
      2 C2          1.3600    0.3850    0.1750 c3        1 C0R     -0.181400
      3 C3          1.8720    0.2770    1.5830 c         1 C0R      0.569300
      4 C4          1.2590   -0.7840    2.3910 ce        1 C0R     -0.265200
      5 C5          0.1710   -1.4700    2.0030 c2        1 C0R     -0.031400
      6 C6         -0.3350   -2.6120    2.8170 c3        1 C0R     -0.054200
      7 C7         -1.8230   -2.5160    3.0650 c3        1 C0R     -0.072400
      8 C8         -2.5900   -2.3590    1.7620 c3        1 C0R     -0.048700
      9 C9         -2.0750   -1.1380    0.9870 c3        1 C0R     -0.039700
     10 C10        -0.5580   -1.2040    0.7060 c3        1 C0R     -0.005800
     11 C11        -2.9190   -0.8310   -0.2640 c3        1 C0R      0.153100
     12 C12        -4.4260   -0.7830    0.0250 c3        1 C0R     -0.106400
     13 C13        -4.9010   -2.0210    0.7650 c3        1 C0R     -0.034000
     14 C14        -4.0600   -2.1340    2.0570 c3        1 C0R     -0.062700
     15 C15        -4.8210   -3.1440    2.9050 c3        1 C0R     -0.072400
     16 C16        -6.2940   -2.8870    2.5740 c3        1 C0R     -0.075400
     17 C17        -6.3300   -1.9390    1.3600 c3        1 C0R     -0.162700
     18 C18        -4.8130   -3.2500   -0.1250 c3        1 C0R     -0.104100
     19 C19        -0.1790   -2.3150   -0.2700 c3        1 C0R     -0.079100
     20 C20        -7.4060   -2.2920    0.3740 c         1 C0R      0.544100
     21 C21        -7.9790   -1.1290   -0.4060 c3        1 C0R      0.029400
     22 O1          2.7690    1.0100    2.0170 o         1 C0R     -0.536100
     23 O2         -2.6060   -1.7650   -1.2880 oh        1 C0R     -0.598800
     24 O3         -7.8460   -3.4330    0.2030 o         1 C0R     -0.529100
     25 O4         -8.6360   -1.5310   -1.5870 oh        1 C0R     -0.589800
     26 H11A       -0.6480    0.9770    0.6780 hc        1 C0R      0.049700
     27 H12        -0.4690    0.2030   -0.9500 hc        1 C0R      0.049700
     28 H21         1.6050    1.3950   -0.2460 hc        1 C0R      0.072200
     29 H22         1.8960   -0.3820   -0.4470 hc        1 C0R      0.072200
     30 H4          1.7620   -0.9980    3.3490 ha        1 C0R      0.148000
     31 H61         0.2040   -2.6650    3.8010 hc        1 C0R      0.057200
     32 H62        -0.1070   -3.5620    2.2570 hc        1 C0R      0.057200
     33 H71        -2.0370   -1.6450    3.7380 hc        1 C0R      0.047200
     34 H72        -2.1760   -3.4420    3.5920 hc        1 C0R      0.047200
     35 H8         -2.4540   -3.2850    1.1420 hc        1 C0R      0.071700
     36 H9         -2.2290   -0.2430    1.6630 hc        1 C0R      0.050700
     37 H11        -2.6200    0.1950   -0.6400 h1        1 C0R      0.032700
     38 H121       -4.6400    0.1300    0.6410 hc        1 C0R      0.048700
     39 H122       -4.9790   -0.6760   -0.9450 hc        1 C0R      0.048700
     40 H14        -4.1380   -1.1410    2.5930 hc        1 C0R      0.044700
     41 H151       -4.6150   -2.9970    3.9930 hc        1 C0R      0.049200
     42 H152       -4.5300   -4.1900    2.6370 hc        1 C0R      0.049200
     43 H161       -6.8150   -3.8480    2.3320 hc        1 C0R      0.058200
     44 H162       -6.8200   -2.4170    3.4400 hc        1 C0R      0.058200
     45 H17        -6.5130   -0.8870    1.7140 hc        1 C0R      0.063700
     46 H181       -3.7560   -3.4840   -0.3950 hc        1 C0R      0.051033
     47 H182       -5.2570   -4.1350    0.3940 hc        1 C0R      0.051033
     48 H183       -5.3860   -3.0740   -1.0690 hc        1 C0R      0.051033
     49 H191       -0.4300   -2.0200   -1.3170 hc        1 C0R      0.045367
     50 H192       -0.7320   -3.2540   -0.0300 hc        1 C0R      0.045367
     51 H193        0.9180   -2.5180   -0.2130 hc        1 C0R      0.045367
     52 H211       -8.6960   -0.5720    0.2600 h1        1 C0R      0.066700
     53 H212       -7.1630   -0.4330   -0.7410 h1        1 C0R      0.066700
     54 HO2        -3.3180   -1.7270   -1.9390 ho        1 C0R      0.403000
     55 HO4        -9.1170   -2.3490   -1.3930 ho        1 C0R      0.421000
@<TRIPOS>BOND
     1    1    2 1   
     2    1   10 1   
     3    1   26 1   
     4    1   27 1   
     5    2    3 1   
     6    2   28 1   
     7    2   29 1   
     8    3    4 1   
     9    3   22 2   
    10    4    5 2   
    11    4   30 1   
    12    5    6 1   
    13    5   10 1   
    14    6    7 1   
    15    6   31 1   
    16    6   32 1   
    17    7    8 1   
    18    7   33 1   
    19    7   34 1   
    20    8    9 1   
    21    8   14 1   
    22    8   35 1   
    23    9   10 1   
    24    9   11 1   
    25    9   36 1   
    26   10   19 1   
    27   11   12 1   
    28   11   23 1   
    29   11   37 1   
    30   12   13 1   
    31   12   38 1   
    32   12   39 1   
    33   13   14 1   
    34   13   17 1   
    35   13   18 1   
    36   14   15 1   
    37   14   40 1   
    38   15   16 1   
    39   15   41 1   
    40   15   42 1   
    41   16   17 1   
    42   16   43 1   
    43   16   44 1   
    44   17   20 1   
    45   17   45 1   
    46   18   46 1   
    47   18   47 1   
    48   18   48 1   
    49   19   49 1   
    50   19   50 1   
    51   19   51 1   
    52   20   21 1   
    53   20   24 2   
    54   21   25 1   
    55   21   52 1   
    56   21   53 1   
    57   23   54 1   
    58   25   55 1   
@<TRIPOS>SUBSTRUCTURE
     1 C0R         1 TEMP              0 ****  ****    0 ROOT
