@<TRIPOS>MOLECULE
C0R
   55    58     1     0     0
SMALL
bcc


@<TRIPOS>ATOM
      1 C1         -0.1300    0.1580    0.1430 c3        1 C0R     -0.071400
      2 C2          1.3630    0.3890    0.2020 c3        1 C0R     -0.181400
      3 C3          1.8740    0.2670    1.6090 c         1 C0R      0.569300
      4 C4          1.2590   -0.8020    2.4060 ce        1 C0R     -0.265200
      5 C5          0.1700   -1.4830    2.0100 c2        1 C0R     -0.031400
      6 C6         -0.3370   -2.6320    2.8120 c3        1 C0R     -0.054200
      7 C7         -1.8250   -2.5380    3.0610 c3        1 C0R     -0.072400
      8 C8         -2.5910   -2.3660    1.7590 c3        1 C0R     -0.048700
      9 C9         -2.0750   -1.1370    0.9970 c3        1 C0R     -0.039700
     10 C10        -0.5570   -1.2020    0.7160 c3        1 C0R     -0.005800
     11 C11        -2.9170   -0.8160   -0.2510 c3        1 C0R      0.153100
     12 C12        -4.4250   -0.7690    0.0370 c3        1 C0R     -0.106400
     13 C13        -4.9010   -2.0140    0.7640 c3        1 C0R     -0.034000
     14 C14        -4.0610   -2.1420    2.0550 c3        1 C0R     -0.062700
     15 C15        -4.8240   -3.1600    2.8920 c3        1 C0R     -0.072400
     16 C16        -6.2970   -2.8970    2.5630 c3        1 C0R     -0.075400
     17 C17        -6.3310   -1.9370    1.3590 c3        1 C0R     -0.162700
     18 C18        -4.8150   -3.2340   -0.1390 c3        1 C0R     -0.104100
     19 C19        -0.1790   -2.3040   -0.2710 c3        1 C0R     -0.079100
     20 C20        -7.4060   -2.2780    0.3690 c         1 C0R      0.544100
     21 C21        -7.9780   -1.1060   -0.3990 c3        1 C0R      0.029400
     22 O1          2.7720    0.9930    2.0520 o         1 C0R     -0.536100
     23 O2         -2.6050   -1.7400   -1.2850 oh        1 C0R     -0.598800
     24 O3         -7.8480   -3.4170    0.1860 o         1 C0R     -0.529100
     25 O4         -8.6350   -1.4950   -1.5840 oh        1 C0R     -0.589800
     26 H11A       -0.4660    0.2220   -0.9250 hc        1 C0R      0.049700
     27 H12        -0.6450    0.9780    0.7100 hc        1 C0R      0.049700
     28 H21         1.6090    1.4040   -0.2080 hc        1 C0R      0.072200
     29 H22         1.8980   -0.3720   -0.4270 hc        1 C0R      0.072200
     30 H4          1.7620   -1.0270    3.3620 ha        1 C0R      0.148000
     31 H61         0.2010   -2.6960    3.7960 hc        1 C0R      0.057200
     32 H62        -0.1100   -3.5760    2.2430 hc        1 C0R      0.057200
     33 H71        -2.1800   -3.4680    3.5770 hc        1 C0R      0.047200
     34 H72        -2.0390   -1.6730    3.7430 hc        1 C0R      0.047200
     35 H8         -2.4560   -3.2860    1.1290 hc        1 C0R      0.071700
     36 H9         -2.2280   -0.2490    1.6820 hc        1 C0R      0.050700
     37 H11        -2.6170    0.2130   -0.6170 h1        1 C0R      0.032700
     38 H121       -4.6370    0.1370    0.6620 hc        1 C0R      0.048700
     39 H122       -4.9760   -0.6520   -0.9320 hc        1 C0R      0.048700
     40 H14        -4.1380   -1.1540    2.6020 hc        1 C0R      0.044700
     41 H151       -4.5340   -4.2030    2.6140 hc        1 C0R      0.049200
     42 H152       -4.6190   -3.0250    3.9810 hc        1 C0R      0.049200
     43 H161       -6.8180   -3.8550    2.3110 hc        1 C0R      0.058200
     44 H162       -6.8230   -2.4350    3.4330 hc        1 C0R      0.058200
     45 H17        -6.5120   -0.8890    1.7240 hc        1 C0R      0.063700
     46 H181       -5.2600   -4.1230    0.3710 hc        1 C0R      0.051033
     47 H182       -5.3870   -3.0480   -1.0810 hc        1 C0R      0.051033
     48 H183       -3.7580   -3.4670   -0.4100 hc        1 C0R      0.051033
     49 H191       -0.7340   -3.2440   -0.0420 hc        1 C0R      0.045367
     50 H192        0.9170   -2.5090   -0.2160 hc        1 C0R      0.045367
     51 H193       -0.4300   -1.9980   -1.3160 hc        1 C0R      0.045367
     52 H211       -7.1610   -0.4080   -0.7260 h1        1 C0R      0.066700
     53 H212       -8.6940   -0.5560    0.2720 h1        1 C0R      0.066700
     54 HO2        -3.3170   -1.6950   -1.9360 ho        1 C0R      0.403000
     55 HO4        -9.1170   -2.3140   -1.3990 ho        1 C0R      0.421000
@<TRIPOS>BOND
     1    1    2 1   
     2    1   10 1   
     3    1   26 1   
     4    1   27 1   
     5    2    3 1   
     6    2   28 1   
     7    2   29 1   
     8    3    4 1   
     9    3   22 2   
    10    4    5 2   
    11    4   30 1   
    12    5    6 1   
    13    5   10 1   
    14    6    7 1   
    15    6   31 1   
    16    6   32 1   
    17    7    8 1   
    18    7   33 1   
    19    7   34 1   
    20    8    9 1   
    21    8   14 1   
    22    8   35 1   
    23    9   10 1   
    24    9   11 1   
    25    9   36 1   
    26   10   19 1   
    27   11   12 1   
    28   11   23 1   
    29   11   37 1   
    30   12   13 1   
    31   12   38 1   
    32   12   39 1   
    33   13   14 1   
    34   13   17 1   
    35   13   18 1   
    36   14   15 1   
    37   14   40 1   
    38   15   16 1   
    39   15   41 1   
    40   15   42 1   
    41   16   17 1   
    42   16   43 1   
    43   16   44 1   
    44   17   20 1   
    45   17   45 1   
    46   18   46 1   
    47   18   47 1   
    48   18   48 1   
    49   19   49 1   
    50   19   50 1   
    51   19   51 1   
    52   20   21 1   
    53   20   24 2   
    54   21   25 1   
    55   21   52 1   
    56   21   53 1   
    57   23   54 1   
    58   25   55 1   
@<TRIPOS>SUBSTRUCTURE
     1 C0R         1 TEMP              0 ****  ****    0 ROOT
