@<TRIPOS>MOLECULE
C0R
   55    57     1     0     0
SMALL
bcc


@<TRIPOS>ATOM
      1 C1          3.1870    1.4530   -0.3290 c3        1 C0R     -0.150000
      2 C2          4.6990    1.4530   -0.3290 c3        1 C0R     -0.210000
      3 C3          5.2970    1.4530    1.1500 c2        1 C0R      0.261000
      4 C4          4.3930    0.7500    2.3430 c2        1 C0R     -0.246000
      5 C5          2.9420    0.3050    1.9600 c1        1 C0R     -0.023000
      6 C6          2.1510   -0.7960    2.8010 c2        1 C0R     -0.137000
      7 C7          0.5430   -0.5750    2.5880 c3        1 C0R     -0.151000
      8 C8          0.1490   -0.4900    1.1110 c3        1 C0R     -0.088000
      9 C9          0.9910    0.5920    0.3110 c3        1 C0R     -0.079000
     10 C10         2.5190    0.4030    0.4610 c3        1 C0R     -0.010000
     11 C11         0.5670    0.6830   -1.2250 c3        1 C0R      0.042000
     12 C12        -1.0370    0.8770   -1.4060 c3        1 C0R     -0.185000
     13 C13        -1.8230   -0.1670   -0.6330 c3        1 C0R     -0.034000
     14 C14        -1.3670   -0.2740    0.9480 c3        1 C0R     -0.102000
     15 C15        -2.0960   -1.2790    1.3760 c3        1 C0R     -0.151000
     16 C16        -3.5350   -0.9740    0.7140 c3        1 C0R     -0.154000
     17 C17        -3.1310    0.1090   -0.5360 c3        1 C0R     -0.152000
     18 C18        -1.6410   -1.5500   -1.3140 c3        1 C0R     -0.222000
     19 C19         2.8780   -0.9530   -0.1950 c3        1 C0R     -0.197000
     20 C20        -3.9380   -0.0770   -1.8470 c2        1 C0R      0.205000
     21 C21        -5.2800    0.6530   -2.0340 c3        1 C0R     -0.071000
     22 O1          6.2090    2.2120    1.4400 o         1 C0R     -0.297000
     23 O2          0.9390   -0.4210   -1.8400 oh        1 C0R     -0.326000
     24 O3         -3.5320   -0.8350   -2.7100 o         1 C0R     -0.290000
     25 O4         -5.8970    0.2060   -3.2280 oh        1 C0R     -0.317000
     26 H11A        2.8870    1.3680   -1.2540 hc        1 C0R      0.089000
     27 H12         2.8870    2.3180    0.0080 hc        1 C0R      0.089000
     28 H21         5.0690    0.8160   -0.9700 hc        1 C0R      0.111500
     29 H22         5.0060    2.2880   -0.7300 hc        1 C0R      0.111500
     30 H4          4.6310    0.8870    3.2800 ha        1 C0R      0.148000
     31 H61         2.3990   -0.8400    3.7440 ha        1 C0R      0.096500
     32 H62         2.4170   -1.6860    2.5000 ha        1 C0R      0.096500
     33 H71         0.2780    0.2530    3.0330 hc        1 C0R      0.086500
     34 H72         0.0660   -1.3200    2.9990 hc        1 C0R      0.086500
     35 H8          0.3550   -1.3580    0.7140 hc        1 C0R      0.111000
     36 H9          0.7790    1.4580    0.7090 hc        1 C0R      0.090000
     37 H11         1.0250    1.4420   -1.6340 h1        1 C0R      0.072000
     38 H121       -1.2610    0.8060   -2.3530 hc        1 C0R      0.088000
     39 H122       -1.2880    1.7650   -1.0860 hc        1 C0R      0.088000
     40 H14        -1.6300    0.5400    1.4180 hc        1 C0R      0.084000
     41 H151       -2.1550   -1.2740    2.3510 hc        1 C0R      0.088500
     42 H152       -1.7390   -2.1290    1.0530 hc        1 C0R      0.088500
     43 H161       -4.1320   -0.5510    1.3600 hc        1 C0R      0.097500
     44 H162       -3.9320   -1.7890    0.3520 hc        1 C0R      0.097500
     45 H17        -3.3110    1.0410   -0.3080 hc        1 C0R      0.103000
     46 H181       -1.4720   -1.4240   -2.2670 hc        1 C0R      0.090333
     47 H182       -2.4520   -2.0810   -1.1950 hc        1 C0R      0.090333
     48 H183       -0.8850   -2.0160   -0.9080 hc        1 C0R      0.090333
     49 H191        3.7320   -1.2690    0.1560 hc        1 C0R      0.084667
     50 H192        2.9470   -0.8390   -1.1620 hc        1 C0R      0.084667
     51 H193        2.1810   -1.6070    0.0060 hc        1 C0R      0.084667
     52 H211       -5.8630    0.4630   -1.2750 h1        1 C0R      0.106000
     53 H212       -5.1220    1.6150   -2.0900 h1        1 C0R      0.106000
     54 HO2         1.0730   -0.2490   -2.7000 ho        1 C0R      0.202000
     55 HO4        -6.6780    0.6150   -3.3280 ho        1 C0R      0.220000
@<TRIPOS>BOND
     1    1    2 1   
     2    1   10 1   
     3    1   26 1   
     4    1   27 1   
     5    2    3 1   
     6    2   28 1   
     7    2   29 1   
     8    3    4 1   
     9    3   22 1   
    10    4    5 1   
    11    4   30 1   
    12    5   10 1   
    13    6    7 1   
    14    6   31 1   
    15    6   32 1   
    16    7    8 1   
    17    7   33 1   
    18    7   34 1   
    19    8    9 1   
    20    8   14 1   
    21    8   35 1   
    22    9   10 1   
    23    9   11 1   
    24    9   36 1   
    25   10   19 1   
    26   11   12 1   
    27   11   23 1   
    28   11   37 1   
    29   12   13 1   
    30   12   38 1   
    31   12   39 1   
    32   13   14 1   
    33   13   17 1   
    34   13   18 1   
    35   14   15 1   
    36   14   40 1   
    37   15   16 1   
    38   15   41 1   
    39   15   42 1   
    40   16   17 1   
    41   16   43 1   
    42   16   44 1   
    43   17   20 1   
    44   17   45 1   
    45   18   46 1   
    46   18   47 1   
    47   18   48 1   
    48   19   49 1   
    49   19   50 1   
    50   19   51 1   
    51   20   21 1   
    52   20   24 1   
    53   21   25 1   
    54   21   52 1   
    55   21   53 1   
    56   23   54 1   
    57   25   55 1   
@<TRIPOS>SUBSTRUCTURE
     1 C0R         1 TEMP              0 ****  ****    0 ROOT
