@<TRIPOS>MOLECULE
C0R
   55    58     1     0     0
SMALL
bcc


@<TRIPOS>ATOM
      1 C1          2.9690    1.5230    0.6790 c3        1 C0R     -0.071400
      2 C2          4.4690    1.6580    0.5540 c3        1 C0R     -0.181400
      3 C3          5.1540    0.3450    0.8050 c         1 C0R      0.569300
      4 C4          4.4690   -0.8310    0.2560 ce        1 C0R     -0.265200
      5 C5          3.2200   -0.7930   -0.2390 c2        1 C0R     -0.031400
      6 C6          2.6250   -1.9970   -0.8860 c3        1 C0R     -0.054200
      7 C7          1.2400   -2.2960   -0.3590 c3        1 C0R     -0.072400
      8 C8          0.3330   -1.0810   -0.4680 c3        1 C0R     -0.048700
      9 C9          0.9590    0.1160    0.2610 c3        1 C0R     -0.039700
     10 C10         2.3740    0.4590   -0.2560 c3        1 C0R     -0.005800
     11 C11         0.0170    1.3320    0.3240 c3        1 C0R      0.153100
     12 C12        -1.3900    0.9760    0.8260 c3        1 C0R     -0.106400
     13 C13        -1.9860   -0.1910    0.0590 c3        1 C0R     -0.034000
     14 C14        -1.0010   -1.3750    0.1870 c3        1 C0R     -0.062700
     15 C15        -1.8130   -2.5810   -0.2670 c3        1 C0R     -0.072400
     16 C16        -3.2380   -2.2820    0.2100 c3        1 C0R     -0.075400
     17 C17        -3.2650   -0.8140    0.6750 c3        1 C0R     -0.162700
     18 C18        -2.2800    0.2000   -1.3790 c3        1 C0R     -0.104100
     19 C19         2.3730    0.9930   -1.6870 c3        1 C0R     -0.079100
     20 C20        -4.5240   -0.0990    0.2810 c         1 C0R      0.544100
     21 C21        -4.9640    1.0060    1.2170 c3        1 C0R      0.029400
     22 O1          6.2340    0.2680    1.4030 o         1 C0R     -0.536100
     23 O2         -0.0200    1.9700   -0.9450 oh        1 C0R     -0.598800
     24 O3         -5.2040   -0.3810   -0.7110 o         1 C0R     -0.529100
     25 O4         -5.8570    1.9140    0.6120 oh        1 C0R     -0.589800
     26 H11A        2.7170    1.2640    1.7420 hc        1 C0R      0.049700
     27 H12         2.4930    2.5130    0.4500 hc        1 C0R      0.049700
     28 H21         4.8450    2.4310    1.2740 hc        1 C0R      0.072200
     29 H22         4.7420    1.9980   -0.4820 hc        1 C0R      0.072200
     30 H4          5.0570   -1.7640    0.2610 ha        1 C0R      0.148000
     31 H61         3.2830   -2.8930   -0.7340 hc        1 C0R      0.057200
     32 H62         2.5720   -1.8020   -1.9930 hc        1 C0R      0.057200
     33 H71         1.3070   -2.6230    0.7120 hc        1 C0R      0.047200
     34 H72         0.7920   -3.1440   -0.9410 hc        1 C0R      0.047200
     35 H8          0.1870   -0.8280   -1.5530 hc        1 C0R      0.071700
     36 H9          1.0910   -0.2010    1.3400 hc        1 C0R      0.050700
     37 H11         0.4550    2.0720    1.0610 h1        1 C0R      0.032700
     38 H121       -2.0490    1.8790    0.7300 hc        1 C0R      0.048700
     39 H122       -1.3220    0.7170    1.9150 hc        1 C0R      0.048700
     40 H14        -0.7980   -1.5220    1.2910 hc        1 C0R      0.044700
     41 H151       -1.7800   -2.6880   -1.3790 hc        1 C0R      0.049200
     42 H152       -1.4220   -3.5260    0.1820 hc        1 C0R      0.049200
     43 H161       -3.9700   -2.4390   -0.6230 hc        1 C0R      0.058200
     44 H162       -3.5240   -2.9550    1.0540 hc        1 C0R      0.058200
     45 H17        -3.1790   -0.7770    1.7960 hc        1 C0R      0.063700
     46 H181       -1.3430    0.4400   -1.9370 hc        1 C0R      0.051033
     47 H182       -2.8080   -0.6320   -1.9060 hc        1 C0R      0.051033
     48 H183       -2.9410    1.1020   -1.3990 hc        1 C0R      0.051033
     49 H191        3.4030    0.9430   -2.1160 hc        1 C0R      0.045367
     50 H192        1.6860    0.3930   -2.3290 hc        1 C0R      0.045367
     51 H193        2.0320    2.0560   -1.7090 hc        1 C0R      0.045367
     52 H211       -5.4470    0.5370    2.1190 h1        1 C0R      0.066700
     53 H212       -4.0850    1.6250    1.5430 h1        1 C0R      0.066700
     54 HO2        -0.7990    2.5400   -0.9580 ho        1 C0R      0.403000
     55 HO4        -6.4570    1.4050    0.0470 ho        1 C0R      0.421000
@<TRIPOS>BOND
     1    1    2 1   
     2    1   10 1   
     3    1   26 1   
     4    1   27 1   
     5    2    3 1   
     6    2   28 1   
     7    2   29 1   
     8    3    4 1   
     9    3   22 2   
    10    4    5 2   
    11    4   30 1   
    12    5    6 1   
    13    5   10 1   
    14    6    7 1   
    15    6   31 1   
    16    6   32 1   
    17    7    8 1   
    18    7   33 1   
    19    7   34 1   
    20    8    9 1   
    21    8   14 1   
    22    8   35 1   
    23    9   10 1   
    24    9   11 1   
    25    9   36 1   
    26   10   19 1   
    27   11   12 1   
    28   11   23 1   
    29   11   37 1   
    30   12   13 1   
    31   12   38 1   
    32   12   39 1   
    33   13   14 1   
    34   13   17 1   
    35   13   18 1   
    36   14   15 1   
    37   14   40 1   
    38   15   16 1   
    39   15   41 1   
    40   15   42 1   
    41   16   17 1   
    42   16   43 1   
    43   16   44 1   
    44   17   20 1   
    45   17   45 1   
    46   18   46 1   
    47   18   47 1   
    48   18   48 1   
    49   19   49 1   
    50   19   50 1   
    51   19   51 1   
    52   20   21 1   
    53   20   24 2   
    54   21   25 1   
    55   21   52 1   
    56   21   53 1   
    57   23   54 1   
    58   25   55 1   
@<TRIPOS>SUBSTRUCTURE
     1 C0R         1 TEMP              0 ****  ****    0 ROOT
