@<TRIPOS>MOLECULE
C0T
   66    62     1     0     0
SMALL
bcc


@<TRIPOS>ATOM
      1 C1         -3.5210   -0.6750   -1.0200 c1        1 C0T      0.269000
      2 N1         -1.4400   -0.2470   -2.4600 n         1 C0T     -0.266000
      3 O1         -4.2300   -0.7610   -2.0070 o         1 C0T     -0.236000
      4 S1         -0.7900   -1.0710    5.3680 ss        1 C0T      0.024000
      5 C2         -2.0110   -0.5330   -1.1760 c2        1 C0T      0.007000
      6 N2          5.2570   -1.1040   -1.9820 n3        1 C0T     -0.151000
      7 O2         -2.5860   -1.8640   -3.6350 o         1 C0T     -0.345000
      8 S2         -0.8680    0.2770    6.9160 ss        1 C0T     -0.019000
      9 C3         -1.1010   -0.5450    0.1190 c1        1 C0T     -0.108000
     10 O3         -2.1120    0.0280   -4.8250 os        1 C0T     -0.286000
     11 S3          0.2750   -0.4080    8.4790 ss        1 C0T      0.035000
     12 C4         -1.7880   -0.4800    1.5330 c1        1 C0T     -0.091000
     13 O4         -3.8670   -0.7230    2.6640 oh        1 C0T     -0.318000
     14 C5         -3.3100   -0.2660    1.4460 c3        1 C0T      0.256000
     15 O5          0.9390   -0.0850   -1.0830 os        1 C0T     -0.323000
     16 C6         -4.0720   -0.9670    0.3060 c2        1 C0T     -0.233000
     17 O6          6.1960   -1.0830   -2.9890 oh        1 C0T     -0.278000
     18 C7         -2.0570   -0.7660   -3.6520 c2        1 C0T      0.379000
     19 O7          3.0240   -0.4490   -0.1020 os        1 C0T     -0.284000
     20 C8         -2.7810   -0.5960   -5.9130 c3        1 C0T     -0.054000
     21 O8          3.1870   -2.8110   -1.9080 oh        1 C0T     -0.315000
     22 C9         -3.6220    1.2540    1.3310 c1        1 C0T     -0.191000
     23 O9          2.2260    0.3630   -3.4470 oh        1 C0T     -0.314000
     24 C10        -2.5490    2.0800    2.0030 c1        1 C0T     -0.089000
     25 C11        -2.2880    3.3600    1.2340 c1        1 C0T     -0.043000
     26 C12        -1.8920    3.2980   -0.2270 c1        1 C0T     -0.029000
     27 C13        -1.0770    2.1290   -0.7400 c1        1 C0T     -0.102000
     28 C14        -0.0850    1.6600    0.3030 c1        1 C0T     -0.151000
     29 C15         0.2380    0.1950    0.1240 c2        1 C0T      0.190000
     30 C16        -1.1020   -0.6010    2.7190 c1        1 C0T     -0.089000
     31 C17        -1.8560   -0.5240    4.0510 c3        1 C0T     -0.266000
     32 C18         0.4840    0.8930    9.6760 c3        1 C0T     -0.361000
     33 C19         1.9170   -1.0600   -0.8390 c3        1 C0T      0.145000
     34 C20         2.3620   -1.6590   -2.1690 c3        1 C0T     -0.028000
     35 C21         3.1290   -0.6970   -2.9910 c3        1 C0T      0.014000
     36 C22         4.2440   -0.0850   -2.2390 c3        1 C0T     -0.125000
     37 C23         3.7900    0.5070   -0.9100 c3        1 C0T      0.005000
     38 C24         2.9360    1.7100   -1.1790 c3        1 C0T     -0.250000
     39 HN1        -0.7260    0.3180   -2.5260 hn        1 C0T      0.251000
     40 HO4        -4.7490   -0.5760    2.6620 ho        1 C0T      0.215000
     41 H6         -5.0380   -0.8210    0.4220 ha        1 C0T      0.132500
     42 H6A        -4.0280   -1.9440    0.4140 ha        1 C0T      0.132500
     43 H8         -2.8590    0.0410   -6.6580 h1        1 C0T      0.092667
     44 H8A        -3.6770   -0.8790   -5.6270 h1        1 C0T      0.092667
     45 H8B        -2.2680   -1.3820   -6.2050 h1        1 C0T      0.092667
     46 HO8         2.8500   -3.5210   -2.3330 ho        1 C0T      0.216000
     47 HO9         2.3470    0.5020   -4.3220 ho        1 C0T      0.219000
     48 H11        -2.3600    4.2280    1.6860 ha        1 C0T      0.156000
     49 H12        -2.1250    4.0360   -0.8300 DU        1 C0T      0.152000
     50 H15         0.8910   -0.1000    0.7950 h4        1 C0T      0.143000
     51 H16        -0.1310   -0.7360    2.7120 DU        1 C0T      0.152000
     52 H17        -2.6480   -1.1000    4.0120 h1        1 C0T      0.148500
     53 H17A       -2.1330    0.4020    4.2180 h1        1 C0T      0.148500
     54 H18         1.0800    1.2220    8.9680 h1        1 C0T      0.113667
     55 H18A       -0.4920    0.7920    9.7110 h1        1 C0T      0.113667
     56 H18B        0.2190    1.8400    9.6640 h1        1 C0T      0.113667
     57 H19         1.5240   -1.7720   -0.2860 h2        1 C0T      0.145000
     58 H20         1.5660   -1.9440   -2.6710 h1        1 C0T      0.119000
     59 H21         3.4930   -1.1670   -3.7770 h1        1 C0T      0.130000
     60 H22         4.6430    0.6310   -2.7870 h1        1 C0T      0.126000
     61 H23         4.5850    0.7880   -0.4000 h1        1 C0T      0.135000
     62 H24         2.6230    2.0870   -0.3260 hc        1 C0T      0.092333
     63 H24A        2.1670    1.4490   -1.7220 hc        1 C0T      0.092333
     64 H24B        3.4650    2.3870   -1.6620 hc        1 C0T      0.092333
     65 H27         5.6650   -0.9340   -1.1790 hn        1 C0T      0.179000
     66 H28         6.9180   -1.5400   -2.7320 ho        1 C0T      0.219000
@<TRIPOS>BOND
     1    1    3 1   
     2    1    5 1   
     3    2    5 1   
     4    2   18 1   
     5    2   39 1   
     6    4    8 1   
     7    4   31 1   
     8    5    9 1   
     9    6   17 1   
    10    6   36 1   
    11    6   65 1   
    12    7   18 1   
    13    8   11 1   
    14    9   29 1   
    15   10   18 1   
    16   10   20 1   
    17   11   32 1   
    18   12   14 1   
    19   12   30 1   
    20   13   14 1   
    21   13   40 1   
    22   14   16 1   
    23   14   22 1   
    24   15   29 1   
    25   15   33 1   
    26   16   41 1   
    27   16   42 1   
    28   17   66 1   
    29   19   33 1   
    30   19   37 1   
    31   20   43 1   
    32   20   44 1   
    33   20   45 1   
    34   21   34 1   
    35   21   46 1   
    36   22   24 1   
    37   23   35 1   
    38   23   47 1   
    39   25   26 1   
    40   25   48 1   
    41   26   27 1   
    42   27   28 1   
    43   29   50 1   
    44   30   31 1   
    45   31   52 1   
    46   31   53 1   
    47   32   54 1   
    48   32   55 1   
    49   32   56 1   
    50   33   34 1   
    51   33   57 1   
    52   34   35 1   
    53   34   58 1   
    54   35   36 1   
    55   35   59 1   
    56   36   37 1   
    57   36   60 1   
    58   37   38 1   
    59   37   61 1   
    60   38   62 1   
    61   38   63 1   
    62   38   64 1   
@<TRIPOS>SUBSTRUCTURE
     1 C0T         1 TEMP              0 ****  ****    0 ROOT
