@<TRIPOS>MOLECULE
C0T
   66    68     1     0     0
SMALL
bcc


@<TRIPOS>ATOM
      1 C1          3.6640   -1.1220   -1.4380 c         1 C0T      0.569300
      2 N1          2.9070    1.2280   -1.6920 n         1 C0T     -0.423100
      3 O1          4.2210   -1.1970   -2.5350 o         1 C0T     -0.512100
      4 S1         -1.8440   -3.2330   -1.7010 ss        1 C0T     -0.166100
      5 C2          2.6780   -0.0370   -1.1060 ce        1 C0T     -0.081600
      6 N2         -3.7870    5.0810   -0.2260 n3        1 C0T     -0.556700
      7 O2          3.3300    2.5140    0.2670 o         1 C0T     -0.563000
      8 S2         -2.0550   -4.9100   -0.7540 ss        1 C0T     -0.003000
      9 C3          1.6280   -0.3800   -0.3070 cf        1 C0T      0.001800
     10 O3          4.0730    3.2120   -1.7430 os        1 C0T     -0.439900
     11 S3         -3.3570   -5.3230    0.6280 ss        1 C0T     -0.140100
     12 C4          1.4730   -1.8140   -0.0270 cf        1 C0T     -0.114200
     13 O4          2.5760   -3.9070    0.2810 oh        1 C0T     -0.585800
     14 C5          2.7380   -2.5020    0.4930 c3        1 C0T      0.312100
     15 O5         -0.5990    0.5610   -0.0870 os        1 C0T     -0.419600
     16 C6          3.9820   -2.0420   -0.2950 c3        1 C0T     -0.197400
     17 O6         -4.2740    5.5340    0.9400 oh        1 C0T     -0.425300
     18 C7          3.4310    2.2840   -0.9470 c         1 C0T      0.715100
     19 O7         -0.9870    2.6890    0.4380 os        1 C0T     -0.437600
     20 C8          4.4960    4.4030   -1.0750 c3        1 C0T      0.136700
     21 O8         -2.7490    0.7150   -2.1120 oh        1 C0T     -0.602800
     22 C9          2.8440   -2.1910    1.9070 c1        1 C0T     -0.181100
     23 O9         -4.7230    2.6110   -1.3580 oh        1 C0T     -0.600800
     24 C10         2.7400   -1.8320    3.0480 cg        1 C0T     -0.108300
     25 C11         2.4000   -1.2220    4.2710 ce        1 C0T     -0.024700
     26 C12         1.5250   -0.1840    4.2280 cf        1 C0T      0.019300
     27 C13         1.0620    0.2400    2.9690 ch        1 C0T     -0.151300
     28 C14         0.8340    0.4410    1.8070 c1        1 C0T     -0.096100
     29 C15         0.7560    0.6600    0.3790 c3        1 C0T      0.281400
     30 C16         0.3640   -2.5400   -0.2400 c2        1 C0T     -0.074200
     31 C17        -0.8890   -2.0340   -0.8170 c3        1 C0T     -0.015100
     32 C18        -4.9170   -5.7390   -0.0590 c3        1 C0T     -0.066000
     33 C19        -1.1320    1.7600   -0.6220 c3        1 C0T      0.306900
     34 C20        -2.6170    1.4880   -0.9340 c3        1 C0T      0.083100
     35 C21        -3.3290    2.8210   -1.2190 c3        1 C0T      0.139100
     36 C22        -3.1170    3.7730   -0.0220 c3        1 C0T      0.091500
     37 C23        -1.5910    3.9600    0.1660 c3        1 C0T      0.157100
     38 C24        -1.2630    4.8350    1.3590 c3        1 C0T     -0.093100
     39 HN1         3.2650    1.1620   -2.6300 hn        1 C0T      0.337500
     40 HO4         3.2360   -4.3550    0.8250 ho        1 C0T      0.417000
     41 H6          4.5130   -2.9490   -0.6940 hc        1 C0T      0.093700
     42 H6A         4.6910   -1.4970    0.3850 hc        1 C0T      0.093700
     43 H8          4.9750    4.9960   -1.8930 h1        1 C0T      0.055367
     44 H8A         3.6130    4.9330   -0.6450 h1        1 C0T      0.055367
     45 H8B         5.2240    4.1490   -0.2680 h1        1 C0T      0.055367
     46 HO8        -2.4370   -0.1750   -1.9000 ho        1 C0T      0.423000
     47 HO9        -4.8330    1.9540   -2.0590 ho        1 C0T      0.426000
     48 H11         2.8320   -1.6040    5.2060 ha        1 C0T      0.154000
     49 H12         1.1820    0.3430    5.1310 ha        1 C0T      0.154000
     50 H15         1.1580    1.7010    0.1730 h1        1 C0T      0.112700
     51 H16         0.3650   -3.6220    0.0100 ha        1 C0T      0.169000
     52 H17        -0.6820   -1.2370   -1.5820 h1        1 C0T      0.102700
     53 H17A       -1.5160   -1.5700   -0.0090 h1        1 C0T      0.102700
     54 H18        -5.4830   -4.8290   -0.3610 h1        1 C0T      0.074033
     55 H18A       -4.8330   -6.4200   -0.9350 h1        1 C0T      0.074033
     56 H18B       -5.4780   -6.2590    0.7540 h1        1 C0T      0.074033
     57 H19        -0.5640    2.0920   -1.5340 h2        1 C0T      0.059700
     58 H20        -3.0990    0.9660   -0.0610 h1        1 C0T      0.077700
     59 H21        -2.9190    3.2680   -2.1670 h1        1 C0T      0.059700
     60 H22        -3.5210    3.2650    0.9040 h1        1 C0T      0.083700
     61 H23        -1.1370    4.3830   -0.7740 h1        1 C0T      0.049700
     62 H24        -1.9410    4.6020    2.2150 hc        1 C0T      0.052033
     63 H24A       -0.2080    4.6580    1.6820 hc        1 C0T      0.052033
     64 H24B       -1.3840    5.9080    1.0770 hc        1 C0T      0.052033
     65 H27        -4.6040    4.9080   -0.8170 hn        1 C0T      0.385800
     66 H28        -3.6230    6.1960    1.2430 ho        1 C0T      0.418000
@<TRIPOS>BOND
     1    1    3 2   
     2    1    5 1   
     3    1   16 1   
     4    2    5 1   
     5    2   18 1   
     6    2   39 1   
     7    4    8 1   
     8    4   31 1   
     9    5    9 2   
    10    6   17 1   
    11    6   36 1   
    12    6   65 1   
    13    7   18 2   
    14    8   11 1   
    15    9   12 1   
    16    9   29 1   
    17   10   18 1   
    18   10   20 1   
    19   11   32 1   
    20   12   14 1   
    21   12   30 2   
    22   13   14 1   
    23   13   40 1   
    24   14   16 1   
    25   14   22 1   
    26   15   29 1   
    27   15   33 1   
    28   16   41 1   
    29   16   42 1   
    30   17   66 1   
    31   19   33 1   
    32   19   37 1   
    33   20   43 1   
    34   20   44 1   
    35   20   45 1   
    36   21   34 1   
    37   21   46 1   
    38   22   24 3   
    39   23   35 1   
    40   23   47 1   
    41   24   25 1   
    42   25   26 2   
    43   25   48 1   
    44   26   27 1   
    45   26   49 1   
    46   27   28 3   
    47   28   29 1   
    48   29   50 1   
    49   30   31 1   
    50   30   51 1   
    51   31   52 1   
    52   31   53 1   
    53   32   54 1   
    54   32   55 1   
    55   32   56 1   
    56   33   34 1   
    57   33   57 1   
    58   34   35 1   
    59   34   58 1   
    60   35   36 1   
    61   35   59 1   
    62   36   37 1   
    63   36   60 1   
    64   37   38 1   
    65   37   61 1   
    66   38   62 1   
    67   38   63 1   
    68   38   64 1   
@<TRIPOS>SUBSTRUCTURE
     1 C0T         1 TEMP              0 ****  ****    0 ROOT
