@<TRIPOS>MOLECULE
C0T
   68    70     1     0     0
SMALL
bcc


@<TRIPOS>ATOM
      1 C1         -0.0260   -0.0860    1.7820 c         1 C0T      0.611300
      2 N1          0.7660    0.8000   -0.4080 ny        1 C0T     -0.493600
      3 O1         -1.1650    0.2880    1.4880 o         1 C0T     -0.503100
      4 S1          1.9670    3.2850    3.9810 ss        1 C0T     -0.206100
      5 C2          1.1370    0.3670    0.9370 ce        1 C0T     -0.194200
      6 N2          9.8050    0.2430    3.0530 ny        1 C0T     -0.531500
      7 O2          0.4200   -1.4300   -1.2560 o         1 C0T     -0.394000
      8 S2          2.0050    4.5410    5.3010 ss        1 C0T      0.003000
      9 C3          2.4030    0.3760    1.4490 cf        1 C0T      0.137800
     10 O3          1.2750    0.2080   -2.6070 os        1 C0T     -0.409900
     11 S3          1.7570    5.4160    6.8810 ss        1 C0T      0.018900
     12 C4          2.4970    0.0540    2.8730 cf        1 C0T     -0.188200
     13 O4          1.9180   -1.4700    4.6140 oh        1 C0T     -0.576800
     14 C5          1.7580   -1.2400    3.2180 c3        1 C0T      0.315100
     15 O5          4.6700    1.2330    1.2790 os        1 C0T     -0.396600
     16 C6          0.2600   -1.0060    2.9230 c3        1 C0T     -0.197400
     17 O6          9.8400   -0.1400    4.3540 oh        1 C0T     -0.356300
     18 C7          0.7940   -0.2840   -1.4420 c         1 C0T      0.603100
     19 O7          6.1360   -0.0900    2.2480 os        1 C0T     -0.395600
     20 C8          1.2120   -0.6900   -3.7420 c3        1 C0T      0.131700
     21 O8          6.9260    2.7530    0.0600 oh        1 C0T     -0.584800
     22 C9          2.2770   -2.3480    2.4370 c1        1 C0T     -0.152100
     23 O9          9.2180    2.6400    1.7680 oh        1 C0T     -0.623800
     24 C10         2.7630   -3.1960    1.7410 cg        1 C0T     -0.127300
     25 C11         3.4240   -3.9880    0.7810 ce        1 C0T      0.053300
     26 C12         4.1280   -3.3500   -0.1920 cf        1 C0T     -0.055700
     27 C13         4.1320   -1.9420   -0.1500 ch        1 C0T     -0.028300
     28 C14         3.9780   -0.7770    0.1010 c1        1 C0T     -0.261100
     29 C15         3.6370    0.5440    0.5620 c3        1 C0T      0.291400
     30 C16         2.9640    0.8550    3.8510 c2        1 C0T      0.018800
     31 C17         3.4020    2.2490    3.7290 c3        1 C0T     -0.045100
     32 C18         0.1760    6.0770    7.2190 c3        1 C0T     -0.114000
     33 C19         5.9940    0.7740    1.1200 c3        1 C0T      0.303900
     34 C20         6.9050    2.0170    1.2650 c3        1 C0T      0.091100
     35 C21         8.3580    1.5560    1.4840 c3        1 C0T      0.125100
     36 C22         8.3740    0.6280    2.7200 c3        1 C0T      0.086500
     37 C23         7.4560   -0.5890    2.4260 c3        1 C0T      0.148100
     38 C24         7.3960   -1.5580    3.5900 c3        1 C0T     -0.109100
     39 HN1        -0.2200    1.1360   -0.3520 hn        1 C0T      0.489300
     40 HO4         1.5330   -2.3350    4.8110 ho        1 C0T      0.436000
     41 H6         -0.2140   -0.5690    3.8490 hc        1 C0T      0.123200
     42 H6A        -0.2530   -1.9860    2.7160 hc        1 C0T      0.123200
     43 H8          1.8330   -1.5930   -3.5340 h1        1 C0T      0.090033
     44 H8A         1.6410   -0.0580   -4.5610 h1        1 C0T      0.090033
     45 H8B         0.1480   -0.9660   -3.9380 h1        1 C0T      0.090033
     46 HO8         6.1140    3.2780    0.0290 ho        1 C0T      0.441000
     47 HO9         9.0620    3.3260    1.0990 ho        1 C0T      0.474000
     48 H11         3.3490   -5.0870    0.8430 ha        1 C0T      0.185000
     49 H12         4.6700   -3.8790   -0.9900 ha        1 C0T      0.180000
     50 H15         3.4100    1.2280   -0.3150 h1        1 C0T      0.059700
     51 H16         2.9550    0.4640    4.8920 ha        1 C0T      0.174000
     52 H17         3.7940    2.5070    2.7150 h1        1 C0T      0.083200
     53 H17A        4.1970    2.4790    4.4790 h1        1 C0T      0.083200
     54 H18        -0.2910    5.5080    8.0570 h1        1 C0T      0.090033
     55 H18A       -0.5130    6.0650    6.3470 h1        1 C0T      0.090033
     56 H18B        0.3160    7.1340    7.5530 h1        1 C0T      0.090033
     57 H19         6.1730    0.2270    0.1560 h2        1 C0T      0.089700
     58 H20         6.5560    2.6510    2.1270 h1        1 C0T      0.094700
     59 H21         8.7230    1.0170    0.5620 h1        1 C0T      0.079700
     60 H22         7.9760    1.1810    3.6250 hx        1 C0T      0.152700
     61 H23         7.8020   -1.1030    1.4840 h1        1 C0T      0.058700
     62 H24         8.3510   -2.1320    3.6580 hc        1 C0T      0.074033
     63 H24A        7.2250   -1.0140    4.5500 hc        1 C0T      0.074033
     64 H24B        6.5500   -2.2730    3.4370 hc        1 C0T      0.074033
     65 H27        10.1090   -0.5420    2.4500 hn        1 C0T      0.476300
     66 H28        10.7730   -0.1150    4.6710 ho        1 C0T      0.478000
     67 H121        1.3630    1.5790   -0.7160 hn        1 C0T      0.489300
     68 H221       10.4030    1.0810    2.8850 hn        1 C0T      0.476300
@<TRIPOS>BOND
     1    1    3 2   
     2    1    5 1   
     3    1   16 1   
     4    2    5 1   
     5    2   18 1   
     6    2   39 1   
     7    2   67 1   
     8    4    8 1   
     9    4   31 1   
    10    5    9 2   
    11    6   17 1   
    12    6   36 1   
    13    6   65 1   
    14    6   68 1   
    15    7   18 2   
    16    8   11 1   
    17    9   12 1   
    18    9   29 1   
    19   10   18 1   
    20   10   20 1   
    21   11   32 1   
    22   12   14 1   
    23   12   30 2   
    24   13   14 1   
    25   13   40 1   
    26   14   16 1   
    27   14   22 1   
    28   15   29 1   
    29   15   33 1   
    30   16   41 1   
    31   16   42 1   
    32   17   66 1   
    33   19   33 1   
    34   19   37 1   
    35   20   43 1   
    36   20   44 1   
    37   20   45 1   
    38   21   34 1   
    39   21   46 1   
    40   22   24 3   
    41   23   35 1   
    42   23   47 1   
    43   24   25 1   
    44   25   26 2   
    45   25   48 1   
    46   26   27 1   
    47   26   49 1   
    48   27   28 3   
    49   28   29 1   
    50   29   50 1   
    51   30   31 1   
    52   30   51 1   
    53   31   52 1   
    54   31   53 1   
    55   32   54 1   
    56   32   55 1   
    57   32   56 1   
    58   33   34 1   
    59   33   57 1   
    60   34   35 1   
    61   34   58 1   
    62   35   36 1   
    63   35   59 1   
    64   36   37 1   
    65   36   60 1   
    66   37   38 1   
    67   37   61 1   
    68   38   62 1   
    69   38   63 1   
    70   38   64 1   
@<TRIPOS>SUBSTRUCTURE
     1 C0T         1 TEMP              0 ****  ****    0 ROOT
