@<TRIPOS>MOLECULE
C0T
   68    70     1     0     0
SMALL
bcc


@<TRIPOS>ATOM
      1 C1         -0.0240   -0.0980    1.7980 c         1 C0T      0.611300
      2 N1          0.7530    0.7940   -0.3960 n4        1 C0T     -0.493600
      3 O1         -1.1650    0.2720    1.5120 o         1 C0T     -0.503100
      4 S1          1.9710    3.2760    3.9910 ss        1 C0T     -0.206100
      5 C2          1.1330    0.3610    0.9460 ce        1 C0T     -0.194200
      6 N2          9.8110    0.2620    3.0190 n4        1 C0T     -0.531500
      7 O2          0.4090   -1.4360   -1.2460 o         1 C0T     -0.394000
      8 S2          2.0140    4.5300    5.3130 ss        1 C0T      0.003000
      9 C3          2.4020    0.3730    1.4510 cf        1 C0T      0.137800
     10 O3          1.2500    0.2080   -2.5980 os        1 C0T     -0.409900
     11 S3          1.7730    5.4020    6.8970 ss        1 C0T      0.018900
     12 C4          2.5050    0.0490    2.8740 cf        1 C0T     -0.188200
     13 O4          1.9420   -1.4800    4.6160 oh        1 C0T     -0.576800
     14 C5          1.7730   -1.2480    3.2210 c3        1 C0T      0.315100
     15 O5          4.6650    1.2380    1.2690 os        1 C0T     -0.396600
     16 C6          0.2730   -1.0190    2.9360 c3        1 C0T     -0.197400
     17 O6          9.8530   -0.1220    4.3190 oh        1 C0T     -0.356300
     18 C7          0.7780   -0.2880   -1.4320 c         1 C0T      0.603100
     19 O7          6.1380   -0.0810    2.2310 os        1 C0T     -0.395600
     20 C8          1.1830   -0.6890   -3.7350 c3        1 C0T      0.131700
     21 O8          6.9120    2.7630    0.0390 oh        1 C0T     -0.584800
     22 C9          2.2920   -2.3530    2.4350 c1        1 C0T     -0.152100
     23 O9          9.2120    2.6560    1.7360 oh        1 C0T     -0.623800
     24 C10         2.7760   -3.1990    1.7350 cg        1 C0T     -0.127300
     25 C11         3.4340   -3.9870    0.7700 ce        1 C0T      0.053300
     26 C12         4.1290   -3.3450   -0.2070 cf        1 C0T     -0.055700
     27 C13         4.1290   -1.9370   -0.1620 ch        1 C0T     -0.028300
     28 C14         3.9730   -0.7730    0.0920 c1        1 C0T     -0.261100
     29 C15         3.6300    0.5470    0.5570 c3        1 C0T      0.291400
     30 C16         2.9760    0.8500    3.8500 c2        1 C0T      0.018800
     31 C17         3.4080    2.2450    3.7280 c3        1 C0T     -0.045100
     32 C18         0.1930    6.0570    7.2470 c3        1 C0T     -0.114000
     33 C19         5.9890    0.7820    1.1030 c3        1 C0T      0.303900
     34 C20         6.8980    2.0280    1.2440 c3        1 C0T      0.091100
     35 C21         8.3530    1.5700    1.4560 c3        1 C0T      0.125100
     36 C22         8.3770    0.6420    2.6920 c3        1 C0T      0.086500
     37 C23         7.4610   -0.5770    2.4030 c3        1 C0T      0.148100
     38 C24         7.4080   -1.5450    3.5670 c3        1 C0T     -0.109100
     39 HN1        -0.2340    1.1270   -0.3330 hn        1 C0T      0.489300
     40 HO4         1.5610   -2.3470    4.8140 ho        1 C0T      0.436000
     41 H6         -0.2380   -2.0000    2.7290 hc        1 C0T      0.123200
     42 H6A        -0.1980   -0.5850    3.8650 hc        1 C0T      0.123200
     43 H8          1.6050   -0.0530   -4.5550 h1        1 C0T      0.090033
     44 H8A         1.8080   -1.5900   -3.5320 h1        1 C0T      0.090033
     45 H8B         0.1190   -0.9680   -3.9250 h1        1 C0T      0.090033
     46 HO8         6.0980    3.2860    0.0110 ho        1 C0T      0.441000
     47 HO9         9.0510    3.3420    1.0670 ho        1 C0T      0.474000
     48 H11         3.3630   -5.0860    0.8300 ha        1 C0T      0.185000
     49 H12         4.6690   -3.8710   -1.0090 ha        1 C0T      0.180000
     50 H15         3.3960    1.2310   -0.3170 h1        1 C0T      0.059700
     51 H16         2.9740    0.4570    4.8900 ha        1 C0T      0.174000
     52 H17         3.7920    2.5060    2.7120 h1        1 C0T      0.083200
     53 H17A        4.2070    2.4770    4.4730 h1        1 C0T      0.083200
     54 H18        -0.2670    5.4840    8.0860 h1        1 C0T      0.090033
     55 H18A       -0.5020    6.0440    6.3790 h1        1 C0T      0.090033
     56 H18B        0.3310    7.1140    7.5810 h1        1 C0T      0.090033
     57 H19         6.1650    0.2350    0.1390 h2        1 C0T      0.089700
     58 H20         6.5510    2.6600    2.1070 h1        1 C0T      0.094700
     59 H21         8.7140    1.0320    0.5330 h1        1 C0T      0.079700
     60 H22         7.9820    1.1950    3.5990 hx        1 C0T      0.152700
     61 H23         7.8040   -1.0900    1.4600 h1        1 C0T      0.058700
     62 H24         6.5630   -2.2630    3.4190 hc        1 C0T      0.074033
     63 H24A        7.2410   -1.0020    4.5280 hc        1 C0T      0.074033
     64 H24B        8.3650   -2.1170    3.6310 hc        1 C0T      0.074033
     65 H27        10.1140   -0.5230    2.4150 hn        1 C0T      0.476300
     66 H28        10.7870   -0.0940    4.6320 ho        1 C0T      0.478000
     67 H121        1.3450    1.5760   -0.7060 hn        1 C0T      0.489300
     68 H221       10.4060    1.1000    2.8480 hn        1 C0T      0.476300
@<TRIPOS>BOND
     1    1    3 2   
     2    1    5 1   
     3    1   16 1   
     4    2    5 1   
     5    2   18 1   
     6    2   39 1   
     7    2   67 1   
     8    4    8 1   
     9    4   31 1   
    10    5    9 2   
    11    6   17 1   
    12    6   36 1   
    13    6   65 1   
    14    6   68 1   
    15    7   18 2   
    16    8   11 1   
    17    9   12 1   
    18    9   29 1   
    19   10   18 1   
    20   10   20 1   
    21   11   32 1   
    22   12   14 1   
    23   12   30 2   
    24   13   14 1   
    25   13   40 1   
    26   14   16 1   
    27   14   22 1   
    28   15   29 1   
    29   15   33 1   
    30   16   41 1   
    31   16   42 1   
    32   17   66 1   
    33   19   33 1   
    34   19   37 1   
    35   20   43 1   
    36   20   44 1   
    37   20   45 1   
    38   21   34 1   
    39   21   46 1   
    40   22   24 3   
    41   23   35 1   
    42   23   47 1   
    43   24   25 1   
    44   25   26 2   
    45   25   48 1   
    46   26   27 1   
    47   26   49 1   
    48   27   28 3   
    49   28   29 1   
    50   29   50 1   
    51   30   31 1   
    52   30   51 1   
    53   31   52 1   
    54   31   53 1   
    55   32   54 1   
    56   32   55 1   
    57   32   56 1   
    58   33   34 1   
    59   33   57 1   
    60   34   35 1   
    61   34   58 1   
    62   35   36 1   
    63   35   59 1   
    64   36   37 1   
    65   36   60 1   
    66   37   38 1   
    67   37   61 1   
    68   38   62 1   
    69   38   63 1   
    70   38   64 1   
@<TRIPOS>SUBSTRUCTURE
     1 C0T         1 TEMP              0 ****  ****    0 ROOT
