@<TRIPOS>MOLECULE
C0T
   68    70     1     0     0
SMALL
bcc


@<TRIPOS>ATOM
      1 C1         -0.0240   -0.1130    1.7820 c         1 C0T      0.611300
      2 N1          0.7680    0.7610   -0.4140 n4        1 C0T     -0.493600
      3 O1         -1.1650    0.2520    1.4830 o         1 C0T     -0.503100
      4 S1          1.9420    3.2870    3.9540 ss        1 C0T     -0.206100
      5 C2          1.1380    0.3410    0.9350 ce        1 C0T     -0.193200
      6 N2          9.8020    0.2870    3.0710 n4        1 C0T     -0.531500
      7 O2          0.4360   -1.4780   -1.2440 o         1 C0T     -0.394000
      8 S2          1.9650    4.5540    5.2660 ss        1 C0T      0.003000
      9 C3          2.4030    0.3620    1.4500 cf        1 C0T      0.137800
     10 O3          1.2810    0.1550   -2.6080 os        1 C0T     -0.409900
     11 S3          1.7030    5.4370    6.8390 ss        1 C0T      0.018900
     12 C4          2.4950    0.0510    2.8770 cf        1 C0T     -0.188200
     13 O4          1.9230   -1.4630    4.6280 oh        1 C0T     -0.576800
     14 C5          1.7640   -1.2440    3.2300 c3        1 C0T      0.315100
     15 O5          4.6650    1.2310    1.2780 os        1 C0T     -0.396600
     16 C6          0.2650   -1.0220    2.9300 c3        1 C0T     -0.197400
     17 O6          9.8370   -0.0860    4.3750 oh        1 C0T     -0.356300
     18 C7          0.8030   -0.3310   -1.4390 c         1 C0T      0.603100
     19 O7          6.1370   -0.0750    2.2610 os        1 C0T     -0.395600
     20 C8          1.2240   -0.7530   -3.7360 c3        1 C0T      0.131700
     21 O8          6.9140    2.7550    0.0520 oh        1 C0T     -0.584800
     22 C9          2.2920   -2.3550    2.4590 c1        1 C0T     -0.152100
     23 O9          9.2030    2.6700    1.7660 oh        1 C0T     -0.623800
     24 C10         2.7850   -3.2060    1.7700 cg        1 C0T     -0.127300
     25 C11         3.4530   -4.0010    0.8180 ce        1 C0T      0.053300
     26 C12         4.1540   -3.3660   -0.1590 cf        1 C0T     -0.055700
     27 C13         4.1500   -1.9580   -0.1280 ch        1 C0T     -0.028300
     28 C14         3.9880   -0.7920    0.1150 c1        1 C0T     -0.261100
     29 C15         3.6370    0.5310    0.5650 c3        1 C0T      0.291400
     30 C16         2.9550    0.8630    3.8490 c2        1 C0T      0.018800
     31 C17         3.3850    2.2580    3.7180 c3        1 C0T     -0.045100
     32 C18         0.1160    6.0890    7.1650 c3        1 C0T     -0.114000
     33 C19         5.9920    0.7790    1.1260 c3        1 C0T      0.303900
     34 C20         6.8950    2.0290    1.2630 c3        1 C0T      0.091100
     35 C21         8.3500    1.5780    1.4880 c3        1 C0T      0.125100
     36 C22         8.3700    0.6600    2.7310 c3        1 C0T      0.086500
     37 C23         7.4600   -0.5650    2.4460 c3        1 C0T      0.148100
     38 C24         7.4030   -1.5240    3.6180 c3        1 C0T     -0.109100
     39 HN1         1.3610    1.5410   -0.7270 hn        1 C0T      0.489300
     40 HO4         1.5420   -2.3290    4.8310 ho        1 C0T      0.436000
     41 H6         -0.2410   -2.0070    2.7290 hc        1 C0T      0.123200
     42 H6A        -0.2140   -0.5820    3.8520 hc        1 C0T      0.123200
     43 H8          1.8510   -1.6500   -3.5200 h1        1 C0T      0.090033
     44 H8A         0.1620   -1.0380   -3.9300 h1        1 C0T      0.090033
     45 H8B         1.6490   -0.1240   -4.5600 h1        1 C0T      0.090033
     46 HO8         6.0990    3.2750    0.0150 ho        1 C0T      0.441000
     47 HO9         9.0440    3.3490    1.0900 ho        1 C0T      0.474000
     48 H11         3.3840   -5.1000    0.8880 ha        1 C0T      0.185000
     49 H12         4.7020   -3.8980   -0.9520 ha        1 C0T      0.180000
     50 H15         3.4090    1.2060   -0.3180 h1        1 C0T      0.059700
     51 H16         2.9460    0.4800    4.8930 ha        1 C0T      0.174000
     52 H17         3.7790    2.5110    2.7040 h1        1 C0T      0.083200
     53 H17A        4.1750    2.5000    4.4690 h1        1 C0T      0.083200
     54 H18        -0.3520    5.5200    8.0030 h1        1 C0T      0.090033
     55 H18A       -0.5680    6.0670    6.2890 h1        1 C0T      0.090033
     56 H18B        0.2460    7.1490    7.4930 h1        1 C0T      0.090033
     57 H19         6.1760    0.2250    0.1670 h2        1 C0T      0.089700
     58 H20         6.5400    2.6670    2.1190 h1        1 C0T      0.094700
     59 H21         8.7200    1.0340    0.5720 h1        1 C0T      0.079700
     60 H22         7.9660    1.2180    3.6310 hx        1 C0T      0.152700
     61 H23         7.8110   -1.0830    1.5090 h1        1 C0T      0.058700
     62 H24         8.3610   -2.0920    3.6920 hc        1 C0T      0.074033
     63 H24A        6.5610   -2.2460    3.4690 hc        1 C0T      0.074033
     64 H24B        7.2270   -0.9730    4.5730 hc        1 C0T      0.074033
     65 H27        10.3950    1.1270    2.8970 hn        1 C0T      0.476300
     66 H28        10.7690   -0.0520    4.6940 ho        1 C0T      0.478000
     67 H121       -0.2200    1.0920   -0.3620 hn        1 C0T      0.489300
     68 H221       10.1120   -0.5000    2.4750 hn        1 C0T      0.476300
@<TRIPOS>BOND
     1    1    3 2   
     2    1    5 1   
     3    1   16 1   
     4    2    5 1   
     5    2   18 1   
     6    2   39 1   
     7    2   67 1   
     8    4    8 1   
     9    4   31 1   
    10    5    9 2   
    11    6   17 1   
    12    6   36 1   
    13    6   65 1   
    14    6   68 1   
    15    7   18 2   
    16    8   11 1   
    17    9   12 1   
    18    9   29 1   
    19   10   18 1   
    20   10   20 1   
    21   11   32 1   
    22   12   14 1   
    23   12   30 2   
    24   13   14 1   
    25   13   40 1   
    26   14   16 1   
    27   14   22 1   
    28   15   29 1   
    29   15   33 1   
    30   16   41 1   
    31   16   42 1   
    32   17   66 1   
    33   19   33 1   
    34   19   37 1   
    35   20   43 1   
    36   20   44 1   
    37   20   45 1   
    38   21   34 1   
    39   21   46 1   
    40   22   24 3   
    41   23   35 1   
    42   23   47 1   
    43   24   25 1   
    44   25   26 2   
    45   25   48 1   
    46   26   27 1   
    47   26   49 1   
    48   27   28 3   
    49   28   29 1   
    50   29   50 1   
    51   30   31 1   
    52   30   51 1   
    53   31   52 1   
    54   31   53 1   
    55   32   54 1   
    56   32   55 1   
    57   32   56 1   
    58   33   34 1   
    59   33   57 1   
    60   34   35 1   
    61   34   58 1   
    62   35   36 1   
    63   35   59 1   
    64   36   37 1   
    65   36   60 1   
    66   37   38 1   
    67   37   61 1   
    68   38   62 1   
    69   38   63 1   
    70   38   64 1   
@<TRIPOS>SUBSTRUCTURE
     1 C0T         1 TEMP              0 ****  ****    0 ROOT
