@<TRIPOS>MOLECULE
C0Y
   40    41     1     0     0
SMALL
bcc


@<TRIPOS>ATOM
      1 C1          2.9080    2.2190   -1.0890 c3        1 C0Y     -0.089433
      2 C2          3.3430    0.8340   -0.6180 c3        1 C0Y      0.004300
      3 C3          3.8380    0.0620   -1.8380 c3        1 C0Y     -0.089433
      4 C4          4.4920    1.0190    0.3700 c3        1 C0Y     -0.089433
      5 C5          2.2200    0.0780    0.0420 ca        1 C0Y     -0.090300
      6 C6          0.9480    0.6390    0.1820 ca        1 C0Y     -0.058000
      7 C7         -0.1030   -0.0620    0.7850 ca        1 C0Y     -0.173600
      8 C8          0.1050   -1.3460    1.2920 ca        1 C0Y     -0.064000
      9 C9          1.3620   -1.9290    1.1780 ca        1 C0Y     -0.227000
     10 C10         2.4080   -1.2280    0.5550 ca        1 C0Y      0.148100
     11 O11         3.6510   -1.8050    0.4310 oh        1 C0Y     -0.494100
     12 C12        -1.4140    0.6300    0.9400 c         1 C0Y      0.670700
     13 O13        -1.4720    1.7790    1.4230 o         1 C0Y     -0.595100
     14 N14        -2.5850   -0.0520    0.6030 n         1 C0Y     -0.458800
     15 C15        -3.8660    0.6130    0.7420 c3        1 C0Y      0.047000
     16 C16        -4.5530    0.9070   -0.5980 c3        1 C0Y      0.101400
     17 O17        -4.6020   -0.2480   -1.4300 os        1 C0Y     -0.411600
     18 C18        -3.3150   -0.8080   -1.6580 c3        1 C0Y      0.101400
     19 C19        -2.5970   -1.1450   -0.3420 c3        1 C0Y      0.047000
     20 H11C        2.0830    2.1430   -1.8370 hc        1 C0Y      0.039922
     21 H12C        2.5680    2.8420   -0.2270 hc        1 C0Y      0.039922
     22 H13C        3.7720    2.7350   -1.5730 hc        1 C0Y      0.039922
     23 H31C        4.6550    0.6340   -2.3410 hc        1 C0Y      0.039922
     24 H32C        4.2380   -0.9360   -1.5380 hc        1 C0Y      0.039922
     25 H33C        3.0060   -0.0860   -2.5660 hc        1 C0Y      0.039922
     26 H41C        4.1400    1.5730    1.2720 hc        1 C0Y      0.039922
     27 H42C        4.8990    0.0300    0.6910 hc        1 C0Y      0.039922
     28 H43C        5.3140    1.6020   -0.1110 hc        1 C0Y      0.039922
     29 H6          0.7420    1.6640   -0.1690 ha        1 C0Y      0.157000
     30 H8         -0.7130   -1.8920    1.7850 ha        1 C0Y      0.145000
     31 H9          1.5410   -2.9370    1.5790 ha        1 C0Y      0.137000
     32 H11         3.6230   -2.6770    0.8530 ho        1 C0Y      0.420000
     33 H151       -4.5290   -0.0720    1.3440 h1        1 C0Y      0.068950
     34 H152       -3.7380    1.5790    1.3070 h1        1 C0Y      0.068950
     35 H191       -1.5490   -1.4760   -0.5830 h1        1 C0Y      0.068950
     36 H192       -3.1380   -2.0060    0.1480 h1        1 C0Y      0.068950
     37 H161       -5.6290    1.1740   -0.4300 h1        1 C0Y      0.056450
     38 H162       -4.0310    1.7380   -1.1420 h1        1 C0Y      0.056450
     39 H181       -3.5170   -1.7470   -2.2370 h1        1 C0Y      0.056450
     40 H182       -2.7020   -0.1000   -2.2760 h1        1 C0Y      0.056450
@<TRIPOS>BOND
     1    1    2 1   
     2    1   20 1   
     3    1   21 1   
     4    1   22 1   
     5    2    3 1   
     6    2    4 1   
     7    2    5 1   
     8    3   23 1   
     9    3   24 1   
    10    3   25 1   
    11    4   26 1   
    12    4   27 1   
    13    4   28 1   
    14    5    6 ar  
    15    5   10 ar  
    16    6    7 ar  
    17    6   29 1   
    18    7    8 ar  
    19    7   12 1   
    20    8    9 ar  
    21    8   30 1   
    22    9   10 ar  
    23    9   31 1   
    24   10   11 1   
    25   11   32 1   
    26   12   13 2   
    27   12   14 1   
    28   14   15 1   
    29   14   19 1   
    30   15   16 1   
    31   15   33 1   
    32   15   34 1   
    33   16   17 1   
    34   16   37 1   
    35   16   38 1   
    36   17   18 1   
    37   18   19 1   
    38   18   39 1   
    39   18   40 1   
    40   19   35 1   
    41   19   36 1   
@<TRIPOS>SUBSTRUCTURE
     1 C0Y         1 TEMP              0 ****  ****    0 ROOT
