@<TRIPOS>MOLECULE
C0Y
   40    39     1     0     0
SMALL
bcc


@<TRIPOS>ATOM
      1 C1         -2.2700   -3.3640    0.8740 c3        1 C0Y     -0.203333
      2 C2         -0.7510   -3.3490    0.9340 c3        1 C0Y     -0.005000
      3 C3         -0.3160   -3.3470    2.3480 c3        1 C0Y     -0.203333
      4 C4         -0.1900   -4.5950    0.2280 c3        1 C0Y     -0.203333
      5 C5         -0.2150   -2.0680    0.2270 c2        1 C0Y     -0.085000
      6 C6         -0.6730   -0.8110    0.6230 c1        1 C0Y     -0.058000
      7 C7         -0.2090    0.3610   -0.0410 c1        1 C0Y     -0.150000
      8 C8          0.7020    0.2550   -1.0870 c1        1 C0Y     -0.064000
      9 C9          1.1670   -1.0070   -1.4910 c1        1 C0Y     -0.225000
     10 C10         0.7040   -2.1800   -0.8260 c2        1 C0Y      0.106000
     11 O11         1.1880   -3.5060   -1.2450 oh        1 C0Y     -0.245000
     12 C12        -0.6960    1.7700    0.4290 c2        1 C0Y      0.350000
     13 O13        -1.4560    1.8650    1.3460 o         1 C0Y     -0.353000
     14 N14        -0.2810    2.9610   -0.2970 n         1 C0Y     -0.320000
     15 C15        -0.6610    4.4250   -0.0910 c3        1 C0Y     -0.062500
     16 C16         0.5270    5.2820    0.2520 c3        1 C0Y     -0.039000
     17 O17         1.6430    4.6790   -0.0710 os        1 C0Y     -0.272000
     18 C18         1.8650    3.9540   -1.1390 c3        1 C0Y     -0.039000
     19 C19         0.6630    3.1060   -1.4720 c3        1 C0Y     -0.062500
     20 H11C       -2.5840   -2.8910    0.0210 hc        1 C0Y      0.078333
     21 H12C       -2.5970   -4.3160    0.8720 hc        1 C0Y      0.078333
     22 H13C       -2.6350   -2.8930    1.6660 hc        1 C0Y      0.078333
     23 H31C       -0.6050   -4.2120    2.7950 hc        1 C0Y      0.078333
     24 H32C       -0.7080   -2.6170    2.7950 hc        1 C0Y      0.078333
     25 H33C        0.6670   -3.2690    2.3910 hc        1 C0Y      0.078333
     26 H41C       -0.4350   -4.5780   -0.6850 hc        1 C0Y      0.078333
     27 H42C       -0.5570   -5.4100    0.6530 hc        1 C0Y      0.078333
     28 H43C        0.7400   -4.5990    0.3010 hc        1 C0Y      0.078333
     29 H6         -1.3210   -0.7320    1.3690 ha        1 C0Y      0.152000
     30 H8          1.0140    1.0530   -1.5360 ha        1 C0Y      0.143000
     31 H9          1.8210   -1.0810   -2.2420 ha        1 C0Y      0.136000
     32 H11         1.9460   -3.4110   -1.7330 ho        1 C0Y      0.216000
     33 H151       -1.2730    4.4800    0.5920 h1        1 C0Y      0.101500
     34 H152       -1.0640    4.7620   -0.9000 h1        1 C0Y      0.101500
     35 H191        0.1780    3.5250   -2.2220 h1        1 C0Y      0.101500
     36 H192        0.9760    2.1880   -1.7550 h1        1 C0Y      0.101500
     37 H161        0.4630    6.1690   -0.2650 h1        1 C0Y      0.094500
     38 H162        0.5260    5.4810    1.2710 h1        1 C0Y      0.094500
     39 H181        2.0670    4.5560   -1.9080 h1        1 C0Y      0.094500
     40 H182        2.6390    3.3660   -0.9770 h1        1 C0Y      0.094500
@<TRIPOS>BOND
     1    1    2 1   
     2    1   20 1   
     3    1   21 1   
     4    1   22 1   
     5    2    3 1   
     6    2    4 1   
     7    2    5 1   
     8    3   23 1   
     9    3   24 1   
    10    3   25 1   
    11    4   26 1   
    12    4   27 1   
    13    4   28 1   
    14    5    6 1   
    15    5   10 1   
    16    6   29 1   
    17    7    8 1   
    18    7   12 1   
    19    8   30 1   
    20    9   10 1   
    21    9   31 1   
    22   10   11 1   
    23   11   32 1   
    24   12   13 1   
    25   12   14 1   
    26   14   15 1   
    27   14   19 1   
    28   15   16 1   
    29   15   33 1   
    30   15   34 1   
    31   16   17 1   
    32   16   37 1   
    33   16   38 1   
    34   17   18 1   
    35   18   19 1   
    36   18   39 1   
    37   18   40 1   
    38   19   35 1   
    39   19   36 1   
@<TRIPOS>SUBSTRUCTURE
     1 C0Y         1 TEMP              0 ****  ****    0 ROOT
