@<TRIPOS>MOLECULE
C0Y
   40    41     1     0     0
SMALL
bcc


@<TRIPOS>ATOM
      1 C1          0.0230    0.0850    0.2030 c3        1 C0Y     -0.089433
      2 C2          1.5400    0.0240    0.0460 c3        1 C0Y      0.004300
      3 C3          2.1520   -0.0060    1.4440 c3        1 C0Y     -0.089433
      4 C4          1.8800   -1.2700   -0.6890 c3        1 C0Y     -0.089433
      5 C5          2.0800    1.2020   -0.7220 ca        1 C0Y     -0.090300
      6 C6          1.2340    2.2010   -1.2120 ca        1 C0Y     -0.058000
      7 C7          1.7300    3.3050   -1.9180 ca        1 C0Y     -0.173600
      8 C8          3.0970    3.4200   -2.1730 ca        1 C0Y     -0.064000
      9 C9          3.9640    2.4380   -1.7080 ca        1 C0Y     -0.227000
     10 C10         3.4640    1.3430   -0.9850 ca        1 C0Y      0.148100
     11 O11         4.3190    0.3740   -0.5130 oh        1 C0Y     -0.494100
     12 C12         0.7540    4.2970   -2.4500 c         1 C0Y      0.670700
     13 O13        -0.2440    3.9210   -3.0980 o         1 C0Y     -0.595100
     14 N14         1.0080    5.6590   -2.2760 n         1 C0Y     -0.458800
     15 C15         0.0630    6.6340   -2.7830 c3        1 C0Y      0.047000
     16 C16        -0.6730    7.4050   -1.6800 c3        1 C0Y      0.101400
     17 O17         0.2310    7.9400   -0.7170 os        1 C0Y     -0.411600
     18 C18         1.0610    6.9410   -0.1380 c3        1 C0Y      0.101400
     19 C19         1.8420    6.1580   -1.2060 c3        1 C0Y      0.047000
     20 H11C       -0.4800    0.0730   -0.7930 hc        1 C0Y      0.039922
     21 H12C       -0.3260   -0.8050    0.7810 hc        1 C0Y      0.039922
     22 H13C       -0.2820    1.0030    0.7600 hc        1 C0Y      0.039922
     23 H31C        1.7340   -0.8660    2.0200 hc        1 C0Y      0.039922
     24 H32C        1.9170    0.9390    1.9900 hc        1 C0Y      0.039922
     25 H33C        3.2610   -0.1230    1.3870 hc        1 C0Y      0.039922
     26 H41C        1.4460   -1.2560   -1.7170 hc        1 C0Y      0.039922
     27 H42C        2.9860   -1.4010   -0.7650 hc        1 C0Y      0.039922
     28 H43C        1.4570   -2.1410   -0.1330 hc        1 C0Y      0.039922
     29 H6          0.1430    2.1380   -1.0670 ha        1 C0Y      0.157000
     30 H8          3.4890    4.2750   -2.7450 ha        1 C0Y      0.145000
     31 H9          5.0430    2.5150   -1.9090 ha        1 C0Y      0.137000
     32 H11         5.2170    0.5990   -0.8000 ho        1 C0Y      0.420000
     33 H151       -0.6960    6.1270   -3.4430 h1        1 C0Y      0.068950
     34 H152        0.6490    7.3690   -3.4060 h1        1 C0Y      0.068950
     35 H191        2.6030    6.8500   -1.6690 h1        1 C0Y      0.068950
     36 H192        2.3890    5.3160   -0.7000 h1        1 C0Y      0.068950
     37 H161       -1.1830    8.3060   -2.1120 h1        1 C0Y      0.056450
     38 H162       -1.4230    6.7490   -1.1640 h1        1 C0Y      0.056450
     39 H181        1.7720    7.5130    0.5140 h1        1 C0Y      0.056450
     40 H182        0.4360    6.2500    0.4860 h1        1 C0Y      0.056450
@<TRIPOS>BOND
     1    1    2 1   
     2    1   20 1   
     3    1   21 1   
     4    1   22 1   
     5    2    3 1   
     6    2    4 1   
     7    2    5 1   
     8    3   23 1   
     9    3   24 1   
    10    3   25 1   
    11    4   26 1   
    12    4   27 1   
    13    4   28 1   
    14    5    6 ar  
    15    5   10 ar  
    16    6    7 ar  
    17    6   29 1   
    18    7    8 ar  
    19    7   12 1   
    20    8    9 ar  
    21    8   30 1   
    22    9   10 ar  
    23    9   31 1   
    24   10   11 1   
    25   11   32 1   
    26   12   13 2   
    27   12   14 1   
    28   14   15 1   
    29   14   19 1   
    30   15   16 1   
    31   15   33 1   
    32   15   34 1   
    33   16   17 1   
    34   16   37 1   
    35   16   38 1   
    36   17   18 1   
    37   18   19 1   
    38   18   39 1   
    39   18   40 1   
    40   19   35 1   
    41   19   36 1   
@<TRIPOS>SUBSTRUCTURE
     1 C0Y         1 TEMP              0 ****  ****    0 ROOT
