@<TRIPOS>MOLECULE
C0Y
   40    41     1     0     0
SMALL
bcc


@<TRIPOS>ATOM
      1 C1          0.0230    0.0840    0.2030 c3        1 C0Y     -0.089433
      2 C2          1.5400    0.0250    0.0490 c3        1 C0Y      0.004300
      3 C3          2.1490   -0.0040    1.4480 c3        1 C0Y     -0.089433
      4 C4          1.8830   -1.2700   -0.6850 c3        1 C0Y     -0.089433
      5 C5          2.0810    1.2030   -0.7180 ca        1 C0Y     -0.090300
      6 C6          1.2350    2.2000   -1.2110 ca        1 C0Y     -0.058000
      7 C7          1.7320    3.3040   -1.9160 ca        1 C0Y     -0.173600
      8 C8          3.0990    3.4200   -2.1690 ca        1 C0Y     -0.064000
      9 C9          3.9660    2.4400   -1.7020 ca        1 C0Y     -0.227000
     10 C10         3.4650    1.3450   -0.9790 ca        1 C0Y      0.148100
     11 O11         4.3210    0.3770   -0.5040 oh        1 C0Y     -0.494100
     12 C12         0.7550    4.2950   -2.4510 c         1 C0Y      0.671700
     13 O13        -0.2420    3.9180   -3.0990 o         1 C0Y     -0.595100
     14 N14         1.0090    5.6570   -2.2790 n         1 C0Y     -0.458800
     15 C15         0.0630    6.6310   -2.7890 c3        1 C0Y      0.047000
     16 C16        -0.6750    7.4040   -1.6880 c3        1 C0Y      0.101400
     17 O17         0.2280    7.9410   -0.7260 os        1 C0Y     -0.411600
     18 C18         1.0580    6.9440   -0.1440 c3        1 C0Y      0.101400
     19 C19         1.8400    6.1590   -1.2090 c3        1 C0Y      0.047000
     20 H11C       -0.4780    0.0700   -0.7950 hc        1 C0Y      0.039922
     21 H12C       -0.3270   -0.8070    0.7800 hc        1 C0Y      0.039922
     22 H13C       -0.2840    1.0010    0.7580 hc        1 C0Y      0.039922
     23 H31C        1.9110    0.9400    1.9930 hc        1 C0Y      0.039922
     24 H32C        1.7310   -0.8650    2.0240 hc        1 C0Y      0.039922
     25 H33C        3.2580   -0.1200    1.3930 hc        1 C0Y      0.039922
     26 H41C        1.4590   -2.1410   -0.1300 hc        1 C0Y      0.039922
     27 H42C        1.4520   -1.2560   -1.7140 hc        1 C0Y      0.039922
     28 H43C        2.9890   -1.4000   -0.7580 hc        1 C0Y      0.039922
     29 H6          0.1440    2.1360   -1.0690 ha        1 C0Y      0.157000
     30 H8          3.4910    4.2760   -2.7410 ha        1 C0Y      0.145000
     31 H9          5.0450    2.5170   -1.9010 ha        1 C0Y      0.137000
     32 H11         5.2190    0.6030   -0.7890 ho        1 C0Y      0.420000
     33 H151       -0.6940    6.1220   -3.4490 h1        1 C0Y      0.068950
     34 H152        0.6500    7.3650   -3.4130 h1        1 C0Y      0.068950
     35 H191        2.3870    5.3180   -0.7010 h1        1 C0Y      0.068950
     36 H192        2.6020    6.8500   -1.6730 h1        1 C0Y      0.068950
     37 H161       -1.4250    6.7480   -1.1720 h1        1 C0Y      0.056450
     38 H162       -1.1840    8.3030   -2.1230 h1        1 C0Y      0.056450
     39 H181        0.4330    6.2530    0.4810 h1        1 C0Y      0.056450
     40 H182        1.7680    7.5170    0.5080 h1        1 C0Y      0.056450
@<TRIPOS>BOND
     1    1    2 1   
     2    1   20 1   
     3    1   21 1   
     4    1   22 1   
     5    2    3 1   
     6    2    4 1   
     7    2    5 1   
     8    3   23 1   
     9    3   24 1   
    10    3   25 1   
    11    4   26 1   
    12    4   27 1   
    13    4   28 1   
    14    5    6 ar  
    15    5   10 ar  
    16    6    7 ar  
    17    6   29 1   
    18    7    8 ar  
    19    7   12 1   
    20    8    9 ar  
    21    8   30 1   
    22    9   10 ar  
    23    9   31 1   
    24   10   11 1   
    25   11   32 1   
    26   12   13 2   
    27   12   14 1   
    28   14   15 1   
    29   14   19 1   
    30   15   16 1   
    31   15   33 1   
    32   15   34 1   
    33   16   17 1   
    34   16   37 1   
    35   16   38 1   
    36   17   18 1   
    37   18   19 1   
    38   18   39 1   
    39   18   40 1   
    40   19   35 1   
    41   19   36 1   
@<TRIPOS>SUBSTRUCTURE
     1 C0Y         1 TEMP              0 ****  ****    0 ROOT
