@<TRIPOS>MOLECULE
C0Y
   40    41     1     0     0
SMALL
bcc


@<TRIPOS>ATOM
      1 C1          0.0220    0.0840    0.2000 c3        1 C0Y     -0.089433
      2 C2          1.5390    0.0240    0.0440 c3        1 C0Y      0.004300
      3 C3          2.1510   -0.0070    1.4430 c3        1 C0Y     -0.089433
      4 C4          1.8810   -1.2700   -0.6910 c3        1 C0Y     -0.089433
      5 C5          2.0800    1.2020   -0.7220 ca        1 C0Y     -0.090300
      6 C6          1.2350    2.2010   -1.2130 ca        1 C0Y     -0.058000
      7 C7          1.7310    3.3050   -1.9170 ca        1 C0Y     -0.173600
      8 C8          3.0990    3.4210   -2.1710 ca        1 C0Y     -0.064000
      9 C9          3.9660    2.4390   -1.7060 ca        1 C0Y     -0.227000
     10 C10         3.4640    1.3440   -0.9840 ca        1 C0Y      0.148100
     11 O11         4.3200    0.3750   -0.5110 oh        1 C0Y     -0.494100
     12 C12         0.7550    4.2980   -2.4500 c         1 C0Y      0.670700
     13 O13        -0.2420    3.9220   -3.0990 o         1 C0Y     -0.595100
     14 N14         1.0090    5.6600   -2.2750 n         1 C0Y     -0.458800
     15 C15         0.0640    6.6350   -2.7820 c3        1 C0Y      0.047000
     16 C16        -0.6740    7.4050   -1.6790 c3        1 C0Y      0.101400
     17 O17         0.2290    7.9400   -0.7160 os        1 C0Y     -0.411600
     18 C18         1.0590    6.9410   -0.1370 c3        1 C0Y      0.101400
     19 C19         1.8410    6.1590   -1.2040 c3        1 C0Y      0.047000
     20 H11C       -0.2830    1.0010    0.7570 hc        1 C0Y      0.039922
     21 H12C       -0.3270   -0.8070    0.7770 hc        1 C0Y      0.039922
     22 H13C       -0.4800    0.0720   -0.7970 hc        1 C0Y      0.039922
     23 H31C        1.9140    0.9370    1.9890 hc        1 C0Y      0.039922
     24 H32C        1.7320   -0.8680    2.0180 hc        1 C0Y      0.039922
     25 H33C        3.2590   -0.1240    1.3870 hc        1 C0Y      0.039922
     26 H41C        1.4570   -2.1420   -0.1370 hc        1 C0Y      0.039922
     27 H42C        1.4480   -1.2550   -1.7200 hc        1 C0Y      0.039922
     28 H43C        2.9870   -1.4010   -0.7670 hc        1 C0Y      0.039922
     29 H6          0.1430    2.1370   -1.0700 ha        1 C0Y      0.157000
     30 H8          3.4900    4.2770   -2.7420 ha        1 C0Y      0.145000
     31 H9          5.0440    2.5160   -1.9060 ha        1 C0Y      0.137000
     32 H11         5.2180    0.6000   -0.7970 ho        1 C0Y      0.420000
     33 H151        0.6510    7.3700   -3.4050 h1        1 C0Y      0.068950
     34 H152       -0.6940    6.1280   -3.4430 h1        1 C0Y      0.068950
     35 H191        2.3880    5.3160   -0.6970 h1        1 C0Y      0.068950
     36 H192        2.6030    6.8510   -1.6660 h1        1 C0Y      0.068950
     37 H161       -1.4240    6.7490   -1.1650 h1        1 C0Y      0.056450
     38 H162       -1.1830    8.3060   -2.1120 h1        1 C0Y      0.056450
     39 H181        0.4340    6.2490    0.4870 h1        1 C0Y      0.056450
     40 H182        1.7690    7.5130    0.5170 h1        1 C0Y      0.056450
@<TRIPOS>BOND
     1    1    2 1   
     2    1   20 1   
     3    1   21 1   
     4    1   22 1   
     5    2    3 1   
     6    2    4 1   
     7    2    5 1   
     8    3   23 1   
     9    3   24 1   
    10    3   25 1   
    11    4   26 1   
    12    4   27 1   
    13    4   28 1   
    14    5    6 ar  
    15    5   10 ar  
    16    6    7 ar  
    17    6   29 1   
    18    7    8 ar  
    19    7   12 1   
    20    8    9 ar  
    21    8   30 1   
    22    9   10 ar  
    23    9   31 1   
    24   10   11 1   
    25   11   32 1   
    26   12   13 2   
    27   12   14 1   
    28   14   15 1   
    29   14   19 1   
    30   15   16 1   
    31   15   33 1   
    32   15   34 1   
    33   16   17 1   
    34   16   37 1   
    35   16   38 1   
    36   17   18 1   
    37   18   19 1   
    38   18   39 1   
    39   18   40 1   
    40   19   35 1   
    41   19   36 1   
@<TRIPOS>SUBSTRUCTURE
     1 C0Y         1 TEMP              0 ****  ****    0 ROOT
