@<TRIPOS>MOLECULE
C0Z
   59    55     1     0     0
SMALL
bcc


@<TRIPOS>ATOM
      1 O3         -1.3910   -0.5720    0.1700 o         1 C0Z     -0.315000
      2 C25        -0.8750    0.3900    0.6310 c1        1 C0Z      0.293000
      3 N2         -0.2750    0.4590    1.7970 n2        1 C0Z     -0.283000
      4 C8          0.4750   -0.5770    2.4130 c2        1 C0Z      0.087000
      5 C7         -0.1500   -1.4590    3.3220 c2        1 C0Z     -0.172000
      6 C9          1.8500   -0.7340    2.1030 c1        1 C0Z     -0.167000
      7 C10         2.5980   -1.7750    2.7020 c1        1 C0Z     -0.074000
      8 C11         1.9810   -2.6590    3.6100 c1        1 C0Z     -0.105000
      9 C6          0.6030   -2.5070    3.9250 c1        1 C0Z     -0.055000
     10 C5          0.2280   -3.6060    4.9430 c3        1 C0Z     -0.120000
     11 C4          1.4130   -4.4690    5.1460 c3        1 C0Z     -0.190000
     12 C3          2.5020   -3.9310    4.3350 c3        1 C0Z      0.029000
     13 N1          3.6330   -3.5970    5.1830 n3        1 C0Z     -0.257000
     14 C2          4.7360   -3.2020    4.3560 c3        1 C0Z     -0.119500
     15 C1          4.0120   -4.7850    5.9680 c3        1 C0Z     -0.119500
     16 C14        -0.5030    1.7230   -0.1690 c3        1 C0Z      0.021000
     17 C13        -0.5660    2.6570    0.7880 c3        1 C0Z     -0.194000
     18 C12        -0.2220    1.8960    2.1270 c3        1 C0Z     -0.027000
     19 N3         -1.3890    1.9910   -1.3550 n3        1 C0Z     -0.869000
     20 S1         -0.8290    1.7060   -2.8940 s4        1 C0Z      2.075800
     21 O1          0.4920    2.2160   -3.0690 o         1 C0Z     -0.532900
     22 O2         -0.6130    0.2810   -3.1260 o         1 C0Z     -0.532900
     23 C15        -1.9640    2.4050   -4.1020 c1        1 C0Z     -0.229750
     24 C24        -3.0770    3.2140   -4.4600 c2        1 C0Z     -0.052500
     25 C23        -3.3660    3.4570   -5.8260 c1        1 C0Z     -0.229750
     26 C18        -2.5640    2.9070   -6.8030 c1        1 C0Z     -0.229750
     27 C17        -1.4520    2.0990   -6.4390 c1        1 C0Z     -0.100000
     28 C16        -1.1670    1.8590   -5.0800 c1        1 C0Z     -0.100000
     29 C22        -4.4360    4.3000   -6.1890 c1        1 C0Z     -0.100000
     30 C21        -4.6820    4.5760   -7.5320 c1        1 C0Z     -0.100000
     31 C20        -3.8710    4.0200   -8.5190 c1        1 C0Z     -0.229750
     32 CL1        -4.3080    4.3960  -10.1670 cl        1 C0Z     -0.002000
     33 C19        -2.8170    3.1890   -8.1660 c2        1 C0Z     -0.052500
     34 H14         0.3700    1.6750   -0.5770 h1        1 C0Z      0.151000
     35 H121       -0.9060    2.1160    2.8430 h1        1 C0Z      0.094000
     36 H122        0.6490    2.1310    2.4230 h1        1 C0Z      0.094000
     37 H7         -1.0780   -1.3910    3.4830 ha        1 C0Z      0.132000
     38 H9          2.2680   -0.1480    1.4740 ha        1 C0Z      0.172000
     39 H10         3.5620   -1.8830    2.4820 ha        1 C0Z      0.151000
     40 H3          2.7750   -4.5900    3.6790 h1        1 C0Z      0.105000
     41 H51C       -0.0400   -3.1810    5.8220 hc        1 C0Z      0.092500
     42 H52C       -0.5070   -4.1400    4.5970 hc        1 C0Z      0.092500
     43 H41C        1.6600   -4.4440    6.0520 hc        1 C0Z      0.086500
     44 H42C        1.1950   -5.4210    4.8280 hc        1 C0Z      0.086500
     45 H21C        5.3860   -3.9520    4.2900 h1        1 C0Z      0.071833
     46 H22C        5.1830   -2.4100    4.7520 h1        1 C0Z      0.071833
     47 H23C        4.3950   -2.9710    3.4350 h1        1 C0Z      0.071833
     48 H11C        3.9690   -5.5770    5.3970 h1        1 C0Z      0.071833
     49 H12C        3.3920   -4.8910    6.7230 h1        1 C0Z      0.071833
     50 H13C        4.9600   -4.6730    6.3210 h1        1 C0Z      0.071833
     51 H131       -1.5100    3.0490    0.8370 hc        1 C0Z      0.105500
     52 H132        0.1020    3.3790    0.6150 hc        1 C0Z      0.105500
     53 HA         -2.2380    2.2420   -1.2300 hn        1 C0Z      0.247000
     54 H24        -3.6430    3.5990   -3.7650 ha        1 C0Z      0.155500
     55 H16        -0.4070    1.2290   -4.8250 ha        1 C0Z      0.148500
     56 H22        -4.9880    4.6790   -5.5210 ha        1 C0Z      0.148500
     57 H17        -0.9170    1.7320   -7.0930 ha        1 C0Z      0.148500
     58 H19        -2.2280    2.7860   -8.8840 ha        1 C0Z      0.155500
     59 H21        -5.4120    5.1910   -7.7820 ha        1 C0Z      0.148500
@<TRIPOS>BOND
     1    1    2 1   
     2    2   16 1   
     3    3    4 1   
     4    3   18 1   
     5    4    5 1   
     6    4    6 1   
     7    5    9 1   
     8    5   37 1   
     9    6   38 1   
    10    7    8 1   
    11    7   39 1   
    12    8   12 1   
    13    9   10 1   
    14   10   11 1   
    15   10   41 1   
    16   10   42 1   
    17   11   12 1   
    18   11   43 1   
    19   11   44 1   
    20   12   13 1   
    21   12   40 1   
    22   13   14 1   
    23   13   15 1   
    24   14   45 1   
    25   14   46 1   
    26   14   47 1   
    27   15   48 1   
    28   15   49 1   
    29   15   50 1   
    30   16   17 1   
    31   16   19 1   
    32   16   34 1   
    33   17   18 1   
    34   17   51 1   
    35   17   52 1   
    36   18   35 1   
    37   18   36 1   
    38   19   20 1   
    39   19   53 1   
    40   20   21 1   
    41   20   22 1   
    42   23   24 1   
    43   23   28 1   
    44   24   25 1   
    45   24   54 1   
    46   25   29 1   
    47   26   27 1   
    48   26   33 1   
    49   27   57 1   
    50   28   55 1   
    51   29   56 1   
    52   30   31 1   
    53   30   59 1   
    54   31   33 1   
    55   33   58 1   
@<TRIPOS>SUBSTRUCTURE
     1 C0Z         1 TEMP              0 ****  ****    0 ROOT
