@<TRIPOS>MOLECULE
C0Z
   59    63     1     0     0
SMALL
bcc


@<TRIPOS>ATOM
      1 O3          0.1230    0.6130   -1.1450 o         1 C0Z     -0.618500
      2 C25         0.3140    1.7580   -0.7140 c         1 C0Z      0.684500
      3 N2          1.5300    2.3080   -0.3130 n         1 C0Z     -0.375000
      4 C8          2.8020    1.7060   -0.3560 ca        1 C0Z      0.080600
      5 C7          2.9720    0.3840   -0.8440 ca        1 C0Z     -0.150000
      6 C9          3.9350    2.4210    0.0970 ca        1 C0Z     -0.189000
      7 C10         5.2080    1.8460    0.0690 ca        1 C0Z     -0.076000
      8 C11         5.3620    0.5570   -0.4090 ca        1 C0Z     -0.112300
      9 C6          4.2400   -0.1670   -0.8610 ca        1 C0Z     -0.060300
     10 C5          4.6300   -1.5280   -1.3310 c3        1 C0Z     -0.035100
     11 C4          6.1340   -1.6390   -1.0650 c3        1 C0Z     -0.111400
     12 C3          6.6320   -0.2410   -0.5820 c3        1 C0Z      0.232800
     13 N1          7.5190   -0.2140    0.5750 n3        1 C0Z     -0.732600
     14 C2          6.9170   -0.6600    1.8110 c3        1 C0Z      0.156600
     15 C1          8.7930   -0.8450    0.3130 c3        1 C0Z      0.156600
     16 C14        -0.8220    2.8150   -0.5600 c3        1 C0Z      0.167500
     17 C13        -0.1060    4.0660   -0.0000 c3        1 C0Z     -0.111400
     18 C12         1.3810    3.6900    0.1190 c3        1 C0Z      0.086000
     19 N3         -1.9140    2.3400    0.2280 n3        1 C0Z     -0.895100
     20 S1         -3.4260    2.1220   -0.3360 sy        1 C0Z      1.521200
     21 O1         -4.3320    2.8220    0.4900 o         1 C0Z     -0.653300
     22 O2         -3.4630    2.4430   -1.7070 o         1 C0Z     -0.653300
     23 C15        -3.6860    0.4760   -0.1030 ca        1 C0Z     -0.391500
     24 C24        -4.7180    0.0310    0.7020 ca        1 C0Z      0.026000
     25 C23        -4.9830   -1.3510    0.8670 ca        1 C0Z     -0.081000
     26 C18        -4.1680   -2.2950    0.1930 ca        1 C0Z      0.021000
     27 C17        -3.1070   -1.8270   -0.6280 ca        1 C0Z     -0.136000
     28 C16        -2.8760   -0.4820   -0.7680 ca        1 C0Z     -0.031000
     29 C22        -6.0480   -1.8120    1.6910 ca        1 C0Z     -0.088000
     30 C21        -6.2890   -3.1540    1.8380 ca        1 C0Z     -0.134000
     31 C20        -5.4680   -4.0950    1.1600 ca        1 C0Z      0.042400
     32 CL1        -5.7910   -5.7510    1.3620 cl        1 C0Z     -0.083400
     33 C19        -4.4300   -3.6840    0.3550 ca        1 C0Z     -0.131000
     34 H14        -1.1970    3.0300   -1.6080 h1        1 C0Z      0.117700
     35 H121        1.7300    3.7920    1.1840 h1        1 C0Z      0.056700
     36 H122        2.0110    4.3630   -0.5260 h1        1 C0Z      0.056700
     37 H7          2.1150   -0.2060   -1.2050 ha        1 C0Z      0.172000
     38 H9          3.8420    3.4460    0.4830 ha        1 C0Z      0.131000
     39 H10         6.0770    2.4170    0.4300 ha        1 C0Z      0.147000
     40 H3          7.2180    0.2310   -1.4290 h1        1 C0Z      0.065700
     41 H51C        4.0620   -2.3190   -0.7790 hc        1 C0Z      0.057200
     42 H52C        4.4050   -1.6460   -2.4210 hc        1 C0Z      0.057200
     43 H41C        6.3310   -2.4230   -0.2940 hc        1 C0Z      0.047700
     44 H42C        6.6790   -1.9300   -1.9950 hc        1 C0Z      0.047700
     45 H21C        6.7100   -1.7650    1.8360 h1        1 C0Z      0.032700
     46 H22C        7.6140   -0.4120    2.6540 h1        1 C0Z      0.032700
     47 H23C        5.9500   -0.1120    1.9660 h1        1 C0Z      0.032700
     48 H11C        9.2710   -0.3510   -0.5740 h1        1 C0Z      0.032700
     49 H12C        9.4570   -0.7010    1.2060 h1        1 C0Z      0.032700
     50 H13C        8.7090   -1.9470    0.1050 h1        1 C0Z      0.032700
     51 H131       -0.2370    4.9230   -0.7040 hc        1 C0Z      0.071200
     52 H132       -0.5050    4.3750    0.9960 hc        1 C0Z      0.071200
     53 HA         -1.6740    2.1460    1.1710 hn        1 C0Z      0.448800
     54 H24        -5.3600    0.7620    1.2300 ha        1 C0Z      0.162000
     55 H16        -2.0390   -0.1290   -1.4000 ha        1 C0Z      0.169000
     56 H22        -6.6760   -1.0690    2.2080 ha        1 C0Z      0.144000
     57 H17        -2.4730   -2.5620   -1.1470 ha        1 C0Z      0.146000
     58 H19        -3.7920   -4.4090   -0.1730 ha        1 C0Z      0.154000
     59 H21        -7.1120   -3.5150    2.4730 ha        1 C0Z      0.152000
@<TRIPOS>BOND
     1    1    2 2   
     2    2    3 1   
     3    2   16 1   
     4    3    4 1   
     5    3   18 1   
     6    4    5 ar  
     7    4    6 ar  
     8    5    9 ar  
     9    5   37 1   
    10    6    7 ar  
    11    6   38 1   
    12    7    8 ar  
    13    7   39 1   
    14    8    9 ar  
    15    8   12 1   
    16    9   10 1   
    17   10   11 1   
    18   10   41 1   
    19   10   42 1   
    20   11   12 1   
    21   11   43 1   
    22   11   44 1   
    23   12   13 1   
    24   12   40 1   
    25   13   14 1   
    26   13   15 1   
    27   14   45 1   
    28   14   46 1   
    29   14   47 1   
    30   15   48 1   
    31   15   49 1   
    32   15   50 1   
    33   16   17 1   
    34   16   19 1   
    35   16   34 1   
    36   17   18 1   
    37   17   51 1   
    38   17   52 1   
    39   18   35 1   
    40   18   36 1   
    41   19   20 1   
    42   19   53 1   
    43   20   21 2   
    44   20   22 2   
    45   20   23 1   
    46   23   24 ar  
    47   23   28 ar  
    48   24   25 ar  
    49   24   54 1   
    50   25   26 ar  
    51   25   29 ar  
    52   26   27 ar  
    53   26   33 ar  
    54   27   28 ar  
    55   27   57 1   
    56   28   55 1   
    57   29   30 ar  
    58   29   56 1   
    59   30   31 ar  
    60   30   59 1   
    61   31   32 1   
    62   31   33 ar  
    63   33   58 1   
@<TRIPOS>SUBSTRUCTURE
     1 C0Z         1 TEMP              0 ****  ****    0 ROOT
