@<TRIPOS>MOLECULE
C0Z
   61    64     1     0     0
SMALL
bcc


@<TRIPOS>ATOM
      1 O3         -0.8730   -0.2850    1.5430 o         1 C0Z     -0.589500
      2 C25         0.3060   -0.1230    1.2080 c         1 C0Z      0.683500
      3 N2          1.3830    0.2490    2.0130 n         1 C0Z     -0.369000
      4 C8          1.4110    0.3070    3.4140 ca        1 C0Z      0.122600
      5 C7          0.2390    0.0720    4.1820 ca        1 C0Z     -0.148000
      6 C9          2.6250    0.6000    4.0850 ca        1 C0Z     -0.177000
      7 C10         2.6850    0.6500    5.4770 ca        1 C0Z     -0.062000
      8 C11         1.5340    0.4220    6.2150 ca        1 C0Z     -0.211300
      9 C6          0.3180    0.1290    5.5620 ca        1 C0Z     -0.019300
     10 C5         -0.7740   -0.1320    6.5440 c3        1 C0Z     -0.048100
     11 C4         -0.1090   -0.0680    7.9250 c3        1 C0Z     -0.091400
     12 C3          1.3710    0.3440    7.7050 c3        1 C0Z      0.190800
     13 N1          1.7830    1.6350    8.3870 n4        1 C0Z     -0.678400
     14 C2          0.9030    2.7800    8.0450 c3        1 C0Z      0.081600
     15 C1          1.8690    1.4540    9.8580 c3        1 C0Z      0.081600
     16 C14         0.7880   -0.2980   -0.2600 c3        1 C0Z      0.054500
     17 C13         2.2180    0.2740   -0.2630 c3        1 C0Z     -0.104400
     18 C12         2.5970    0.4380    1.2220 c3        1 C0Z      0.081000
     19 N3         -0.1320    0.2700   -1.2370 n3        1 C0Z     -0.989800
     20 S1          0.0750   -0.7420   -3.3560 s4        1 C0Z      1.677300
     21 O1          0.7840    0.3080   -3.8520 o         1 C0Z     -0.441900
     22 O2          0.6770   -1.8520   -2.8500 o         1 C0Z     -0.441900
     23 C15        -1.4410   -0.7960   -3.6740 ca        1 C0Z     -0.633500
     24 C24        -2.1060    0.2030   -4.4090 ca        1 C0Z      0.113000
     25 C23        -3.4620    0.1080   -4.7410 ca        1 C0Z     -0.107000
     26 C18        -4.2110   -1.0340   -4.3200 ca        1 C0Z      0.077000
     27 C17        -3.5440   -2.0480   -3.5690 ca        1 C0Z     -0.108000
     28 C16        -2.2200   -1.9340   -3.2620 ca        1 C0Z     -0.044000
     29 C22        -4.1180    1.1230   -5.5020 ca        1 C0Z     -0.065000
     30 C21        -5.4440    1.0040   -5.8250 ca        1 C0Z     -0.119000
     31 C20        -6.1850   -0.1360   -5.4010 ca        1 C0Z      0.101400
     32 CL1        -7.8110   -0.2520   -5.8140 cl        1 C0Z      0.006600
     33 C19        -5.5760   -1.1370   -4.6600 ca        1 C0Z     -0.158000
     34 H14         0.8280   -1.4160   -0.4520 h1        1 C0Z      0.129700
     35 H121        3.3700   -0.3260    1.5160 h1        1 C0Z      0.078200
     36 H122        3.0130    1.4660    1.4120 h1        1 C0Z      0.078200
     37 H7         -0.7260   -0.1640    3.7010 ha        1 C0Z      0.189000
     38 H9          3.5540    0.7830    3.5210 ha        1 C0Z      0.156000
     39 H10         3.6500    0.8550    5.9660 ha        1 C0Z      0.142000
     40 H3          2.0560   -0.4480    8.1350 hx        1 C0Z      0.110700
     41 H51C       -1.5880    0.6320    6.4500 hc        1 C0Z      0.089200
     42 H52C       -1.2340   -1.1390    6.3730 hc        1 C0Z      0.089200
     43 H41C       -0.6610    0.6320    8.5970 hc        1 C0Z      0.079700
     44 H42C       -0.1230   -1.0790    8.4080 hc        1 C0Z      0.079700
     45 H21C       -0.0890    2.6710    8.5580 hx        1 C0Z      0.105533
     46 H22C        1.3910    3.7340    8.3850 hx        1 C0Z      0.105533
     47 H23C        0.7480    2.8060    6.9330 hx        1 C0Z      0.105533
     48 H11C        2.1540    2.4290   10.3380 hx        1 C0Z      0.105533
     49 H12C        0.8730    1.1190   10.2550 hx        1 C0Z      0.105533
     50 H13C        2.6450    0.6780   10.0970 hx        1 C0Z      0.105533
     51 H131        2.2850    1.2620   -0.7850 hc        1 C0Z      0.088700
     52 H132        2.9230   -0.4320   -0.7670 hc        1 C0Z      0.088700
     53 HA         -1.0800    0.1480   -0.9060 hn        1 C0Z      0.411300
     54 H24        -1.5340    1.0910   -4.7500 ha        1 C0Z      0.167000
     55 H16        -1.7110   -2.7360   -2.6950 ha        1 C0Z      0.167000
     56 H22        -3.5380    2.0010   -5.8320 ha        1 C0Z      0.162000
     57 H17        -4.1220   -2.9320   -3.2490 ha        1 C0Z      0.177000
     58 H19        -6.1470   -2.0240   -4.3330 ha        1 C0Z      0.179000
     59 H21        -5.9520    1.7850   -6.4180 ha        1 C0Z      0.184000
     60 H11         2.7250    1.8550    8.0320 hn        1 C0Z      0.447800
     61 H32         0.0430    1.2560   -1.3570 hn        1 C0Z      0.411300
@<TRIPOS>BOND
     1    1    2 2   
     2    2    3 1   
     3    2   16 1   
     4    3    4 1   
     5    3   18 1   
     6    4    5 ar  
     7    4    6 ar  
     8    5    9 ar  
     9    5   37 1   
    10    6    7 ar  
    11    6   38 1   
    12    7    8 ar  
    13    7   39 1   
    14    8    9 ar  
    15    8   12 1   
    16    9   10 1   
    17   10   11 1   
    18   10   41 1   
    19   10   42 1   
    20   11   12 1   
    21   11   43 1   
    22   11   44 1   
    23   12   13 1   
    24   12   40 1   
    25   13   14 1   
    26   13   15 1   
    27   13   60 1   
    28   14   45 1   
    29   14   46 1   
    30   14   47 1   
    31   15   48 1   
    32   15   49 1   
    33   15   50 1   
    34   16   17 1   
    35   16   19 1   
    36   16   34 1   
    37   17   18 1   
    38   17   51 1   
    39   17   52 1   
    40   18   35 1   
    41   18   36 1   
    42   19   53 1   
    43   19   61 1   
    44   20   21 1   
    45   20   22 1   
    46   20   23 1   
    47   23   24 ar  
    48   23   28 ar  
    49   24   25 ar  
    50   24   54 1   
    51   25   26 ar  
    52   25   29 ar  
    53   26   27 ar  
    54   26   33 ar  
    55   27   28 ar  
    56   27   57 1   
    57   28   55 1   
    58   29   30 ar  
    59   29   56 1   
    60   30   31 ar  
    61   30   59 1   
    62   31   32 1   
    63   31   33 ar  
    64   33   58 1   
@<TRIPOS>SUBSTRUCTURE
     1 C0Z         1 TEMP              0 ****  ****    0 ROOT
