@<TRIPOS>MOLECULE
C0Z
   61    64     1     0     0
SMALL
bcc


@<TRIPOS>ATOM
      1 O3         -0.8780   -0.2840    1.5390 o         1 C0Z     -0.589500
      2 C25         0.3040   -0.1330    1.2100 c         1 C0Z      0.683500
      3 N2          1.3790    0.2340    2.0190 n         1 C0Z     -0.369000
      4 C8          1.3990    0.2990    3.4200 ca        1 C0Z      0.122600
      5 C7          0.2210    0.0770    4.1830 ca        1 C0Z     -0.148000
      6 C9          2.6120    0.5860    4.0960 ca        1 C0Z     -0.177000
      7 C10         2.6640    0.6430    5.4880 ca        1 C0Z     -0.062000
      8 C11         1.5070    0.4270    6.2210 ca        1 C0Z     -0.211300
      9 C6          0.2930    0.1410    5.5620 ca        1 C0Z     -0.019300
     10 C5         -0.8060   -0.1060    6.5400 c3        1 C0Z     -0.048100
     11 C4         -0.1490   -0.0410    7.9240 c3        1 C0Z     -0.091400
     12 C3          1.3350    0.3590    7.7100 c3        1 C0Z      0.190800
     13 N1          1.7530    1.6500    8.3880 n4        1 C0Z     -0.678400
     14 C2          0.8840    2.8010    8.0350 c3        1 C0Z      0.081600
     15 C1          1.8290    1.4760    9.8610 c3        1 C0Z      0.081600
     16 C14         0.7930   -0.3190   -0.2550 c3        1 C0Z      0.054500
     17 C13         2.2270    0.2420   -0.2520 c3        1 C0Z     -0.104400
     18 C12         2.5990    0.4100    1.2340 c3        1 C0Z      0.081000
     19 N3         -0.1180    0.2520   -1.2400 n3        1 C0Z     -0.989800
     20 S1          0.0930   -0.7710   -3.3530 s4        1 C0Z      1.677300
     21 O1          0.8130    0.2730   -3.8500 o         1 C0Z     -0.441900
     22 O2          0.6850   -1.8830   -2.8380 o         1 C0Z     -0.441900
     23 C15        -1.4210   -0.8150   -3.6790 ca        1 C0Z     -0.633500
     24 C24        -2.0740    0.1860   -4.4220 ca        1 C0Z      0.113000
     25 C23        -3.4290    0.0990   -4.7600 ca        1 C0Z     -0.107000
     26 C18        -4.1890   -1.0360   -4.3400 ca        1 C0Z      0.077000
     27 C17        -3.5330   -2.0510   -3.5800 ca        1 C0Z     -0.108000
     28 C16        -2.2110   -1.9460   -3.2660 ca        1 C0Z     -0.044000
     29 C22        -4.0740    1.1160   -5.5290 ca        1 C0Z     -0.065000
     30 C21        -5.4000    1.0060   -5.8590 ca        1 C0Z     -0.119000
     31 C20        -6.1500   -0.1280   -5.4340 ca        1 C0Z      0.101400
     32 CL1        -7.7750   -0.2340   -5.8550 cl        1 C0Z      0.006600
     33 C19        -5.5530   -1.1310   -4.6860 ca        1 C0Z     -0.158000
     34 H14         0.8240   -1.4380   -0.4410 h1        1 C0Z      0.129700
     35 H121        3.0220    1.4350    1.4220 h1        1 C0Z      0.078200
     36 H122        3.3650   -0.3580    1.5360 h1        1 C0Z      0.078200
     37 H7         -0.7420   -0.1540    3.6970 ha        1 C0Z      0.189000
     38 H9          3.5460    0.7590    3.5370 ha        1 C0Z      0.156000
     39 H10         3.6280    0.8430    5.9810 ha        1 C0Z      0.142000
     40 H3          2.0110   -0.4360    8.1480 hx        1 C0Z      0.110700
     41 H51C       -1.2740   -1.1110    6.3720 hc        1 C0Z      0.089200
     42 H52C       -1.6140    0.6630    6.4370 hc        1 C0Z      0.089200
     43 H41C       -0.7000    0.6670    8.5890 hc        1 C0Z      0.079700
     44 H42C       -0.1740   -1.0490    8.4120 hc        1 C0Z      0.079700
     45 H21C       -0.1130    2.7010    8.5420 hx        1 C0Z      0.105533
     46 H22C        1.3760    3.7520    8.3730 hx        1 C0Z      0.105533
     47 H23C        0.7360    2.8210    6.9210 hx        1 C0Z      0.105533
     48 H11C        0.8280    1.1510   10.2530 hx        1 C0Z      0.105533
     49 H12C        2.1180    2.4520   10.3360 hx        1 C0Z      0.105533
     50 H13C        2.5980    0.6960   10.1080 hx        1 C0Z      0.105533
     51 H131        2.3050    1.2260   -0.7790 hc        1 C0Z      0.088700
     52 H132        2.9290   -0.4730   -0.7490 hc        1 C0Z      0.088700
     53 HA          0.0660    1.2360   -1.3620 hn        1 C0Z      0.411300
     54 H24        -1.4950    1.0680   -4.7630 ha        1 C0Z      0.167000
     55 H16        -1.7100   -2.7480   -2.6940 ha        1 C0Z      0.167000
     56 H22        -3.4860    1.9890   -5.8590 ha        1 C0Z      0.162000
     57 H17        -4.1200   -2.9300   -3.2600 ha        1 C0Z      0.177000
     58 H19        -6.1320   -2.0110   -4.3590 ha        1 C0Z      0.179000
     59 H21        -5.8990    1.7880   -6.4570 ha        1 C0Z      0.184000
     60 H11         2.6990    1.8610    8.0370 hn        1 C0Z      0.447800
     61 H32        -1.0690    0.1390   -0.9140 hn        1 C0Z      0.411300
@<TRIPOS>BOND
     1    1    2 2   
     2    2    3 1   
     3    2   16 1   
     4    3    4 1   
     5    3   18 1   
     6    4    5 ar  
     7    4    6 ar  
     8    5    9 ar  
     9    5   37 1   
    10    6    7 ar  
    11    6   38 1   
    12    7    8 ar  
    13    7   39 1   
    14    8    9 ar  
    15    8   12 1   
    16    9   10 1   
    17   10   11 1   
    18   10   41 1   
    19   10   42 1   
    20   11   12 1   
    21   11   43 1   
    22   11   44 1   
    23   12   13 1   
    24   12   40 1   
    25   13   14 1   
    26   13   15 1   
    27   13   60 1   
    28   14   45 1   
    29   14   46 1   
    30   14   47 1   
    31   15   48 1   
    32   15   49 1   
    33   15   50 1   
    34   16   17 1   
    35   16   19 1   
    36   16   34 1   
    37   17   18 1   
    38   17   51 1   
    39   17   52 1   
    40   18   35 1   
    41   18   36 1   
    42   19   53 1   
    43   19   61 1   
    44   20   21 1   
    45   20   22 1   
    46   20   23 1   
    47   23   24 ar  
    48   23   28 ar  
    49   24   25 ar  
    50   24   54 1   
    51   25   26 ar  
    52   25   29 ar  
    53   26   27 ar  
    54   26   33 ar  
    55   27   28 ar  
    56   27   57 1   
    57   28   55 1   
    58   29   30 ar  
    59   29   56 1   
    60   30   31 ar  
    61   30   59 1   
    62   31   32 1   
    63   31   33 ar  
    64   33   58 1   
@<TRIPOS>SUBSTRUCTURE
     1 C0Z         1 TEMP              0 ****  ****    0 ROOT
