@<TRIPOS>MOLECULE
C0Z
   61    64     1     0     0
SMALL
bcc


@<TRIPOS>ATOM
      1 O3         -0.8710   -0.2910    1.5400 o         1 C0Z     -0.589500
      2 C25         0.3030   -0.1130    1.1950 c         1 C0Z      0.683500
      3 N2          1.3840    0.2600    1.9940 n         1 C0Z     -0.369000
      4 C8          1.4250    0.3030    3.3950 ca        1 C0Z      0.122600
      5 C7          0.2620    0.0500    4.1720 ca        1 C0Z     -0.148000
      6 C9          2.6420    0.6000    4.0580 ca        1 C0Z     -0.177000
      7 C10         2.7150    0.6360    5.4500 ca        1 C0Z     -0.062000
      8 C11         1.5730    0.3890    6.1960 ca        1 C0Z     -0.211300
      9 C6          0.3530    0.0920    5.5510 ca        1 C0Z     -0.019300
     10 C5         -0.7270   -0.1890    6.5410 c3        1 C0Z     -0.048100
     11 C4         -0.0490   -0.1350    7.9160 c3        1 C0Z     -0.091400
     12 C3          1.4240    0.2930    7.6870 c3        1 C0Z      0.190800
     13 N1          1.8310    1.5810    8.3790 nx        1 C0Z     -0.678400
     14 C2          0.9370    2.7220    8.0570 c3        1 C0Z      0.081600
     15 C1          1.9320    1.3850    9.8480 c3        1 C0Z      0.081600
     16 C14         0.7730   -0.2660   -0.2790 c3        1 C0Z      0.054500
     17 C13         2.1970    0.3200   -0.2890 c3        1 C0Z     -0.104400
     18 C12         2.5880    0.4710    1.1940 c3        1 C0Z      0.081000
     19 N3         -0.1620    0.3040   -1.2410 n8        1 C0Z     -0.989800
     20 S1          0.0350   -0.6810   -3.3730 s4        1 C0Z      1.677300
     21 O1          0.7260    0.3840   -3.8640 o         1 C0Z     -0.441900
     22 O2          0.6550   -1.7890   -2.8870 o         1 C0Z     -0.441900
     23 C15        -1.4840   -0.7490   -3.6770 ca        1 C0Z     -0.633500
     24 C24        -2.1670    0.2520   -4.3930 ca        1 C0Z      0.113000
     25 C23        -3.5260    0.1450   -4.7120 ca        1 C0Z     -0.107000
     26 C18        -4.2570   -1.0110   -4.2980 ca        1 C0Z      0.077000
     27 C17        -3.5710   -2.0260   -3.5660 ca        1 C0Z     -0.108000
     28 C16        -2.2460   -1.9010   -3.2710 ca        1 C0Z     -0.044000
     29 C22        -4.2010    1.1610   -5.4550 ca        1 C0Z     -0.065000
     30 C21        -5.5290    1.0310   -5.7650 ca        1 C0Z     -0.119000
     31 C20        -6.2520   -0.1230   -5.3480 ca        1 C0Z      0.101400
     32 Cl1        -7.8810   -0.2540   -5.7460 cl        1 C0Z      0.006600
     33 C19        -5.6250   -1.1260   -4.6250 ca        1 C0Z     -0.158000
     34 H14         0.8220   -1.3810   -0.4850 h1        1 C0Z      0.129700
     35 H121        3.3720   -0.2880    1.4720 h1        1 C0Z      0.078200
     36 H122        2.9960    1.5000    1.3920 h1        1 C0Z      0.078200
     37 H7         -0.7050   -0.1910    3.6970 ha        1 C0Z      0.189000
     38 H9          3.5640    0.7980    3.4880 ha        1 C0Z      0.156000
     39 H10         3.6830    0.8440    5.9320 ha        1 C0Z      0.142000
     40 H3          2.1200   -0.4960    8.1020 hx        1 C0Z      0.110700
     41 H51C       -1.5490    0.5680    6.4620 hc        1 C0Z      0.089200
     42 H52C       -1.1800   -1.1990    6.3630 hc        1 C0Z      0.089200
     43 H41C       -0.6020    0.5530    8.6010 hc        1 C0Z      0.079700
     44 H42C       -0.0500   -1.1510    8.3870 hc        1 C0Z      0.079700
     45 H21C        1.4190    3.6760    8.4040 hx        1 C0Z      0.105533
     46 H22C       -0.0500    2.5980    8.5770 hx        1 C0Z      0.105533
     47 H23C        0.7720    2.7580    6.9470 hx        1 C0Z      0.105533
     48 H11C        2.7170    0.6130   10.0700 hx        1 C0Z      0.105533
     49 H12C        2.2120    2.3570   10.3340 hx        1 C0Z      0.105533
     50 H13C        0.9430    1.0360   10.2490 hx        1 C0Z      0.105533
     51 H131        2.2490    1.3140   -0.8010 hc        1 C0Z      0.088700
     52 H132        2.9040   -0.3730   -0.8090 hc        1 C0Z      0.088700
     53 HA          0.0020    1.2930   -1.3500 hn        1 C0Z      0.411300
     54 H24        -1.6100    1.1500   -4.7290 ha        1 C0Z      0.167000
     55 H16        -1.7210   -2.7030   -2.7190 ha        1 C0Z      0.167000
     56 H22        -3.6350    2.0500   -5.7790 ha        1 C0Z      0.162000
     57 H17        -4.1350   -2.9210   -3.2510 ha        1 C0Z      0.177000
     58 H19        -6.1820   -2.0230   -4.3040 ha        1 C0Z      0.179000
     59 H21        -6.0530    1.8130   -6.3430 ha        1 C0Z      0.184000
     60 H11         2.7680    1.8130    8.0180 hn        1 C0Z      0.447800
     61 H32        -1.1060    0.1690   -0.9030 hn        1 C0Z      0.411300
@<TRIPOS>BOND
     1    1    2 2   
     2    2    3 1   
     3    2   16 1   
     4    3    4 1   
     5    3   18 1   
     6    4    5 ar  
     7    4    6 ar  
     8    5    9 ar  
     9    5   37 1   
    10    6    7 ar  
    11    6   38 1   
    12    7    8 ar  
    13    7   39 1   
    14    8    9 ar  
    15    8   12 1   
    16    9   10 1   
    17   10   11 1   
    18   10   41 1   
    19   10   42 1   
    20   11   12 1   
    21   11   43 1   
    22   11   44 1   
    23   12   13 1   
    24   12   40 1   
    25   13   14 1   
    26   13   15 1   
    27   13   60 1   
    28   14   45 1   
    29   14   46 1   
    30   14   47 1   
    31   15   48 1   
    32   15   49 1   
    33   15   50 1   
    34   16   17 1   
    35   16   19 1   
    36   16   34 1   
    37   17   18 1   
    38   17   51 1   
    39   17   52 1   
    40   18   35 1   
    41   18   36 1   
    42   19   53 1   
    43   19   61 1   
    44   20   21 1   
    45   20   22 1   
    46   20   23 1   
    47   23   24 ar  
    48   23   28 ar  
    49   24   25 ar  
    50   24   54 1   
    51   25   26 ar  
    52   25   29 ar  
    53   26   27 ar  
    54   26   33 ar  
    55   27   28 ar  
    56   27   57 1   
    57   28   55 1   
    58   29   30 ar  
    59   29   56 1   
    60   30   31 ar  
    61   30   59 1   
    62   31   32 1   
    63   31   33 ar  
    64   33   58 1   
@<TRIPOS>SUBSTRUCTURE
     1 C0Z         1 TEMP              0 ****  ****    0 ROOT
