@<TRIPOS>MOLECULE
C10
   75    74     1     0     0
SMALL
bcc


@<TRIPOS>ATOM
      1 C1          4.5840    7.7430   -5.9660 c3        1 C10     -0.092100
      2 C2          4.4240    6.3350   -6.5250 c3        1 C10     -0.080400
      3 C3          3.0070    5.8020   -6.1860 c3        1 C10     -0.079400
      4 C4          2.8880    4.3420   -6.6400 c3        1 C10     -0.079400
      5 C5          1.5920    3.7480   -6.1160 c3        1 C10     -0.079400
      6 C6          1.6020    2.2190   -6.3420 c3        1 C10     -0.079400
      7 C7          0.2330    1.6210   -5.9030 c3        1 C10     -0.078400
      8 C8          0.3440    0.0980   -5.8100 c3        1 C10     -0.078400
      9 C9         -0.9210   -0.4630   -5.1910 c3        1 C10     -0.083400
     10 C10        -0.7950   -1.9830   -5.0700 c3        1 C10      0.132400
     11 O11        -1.5990   -2.4390   -3.9990 os        1 C10     -0.428600
     12 C12        -1.4630   -3.8190   -3.7240 c3        1 C10      0.126400
     13 C13        -2.5590   -4.2540   -2.7200 c3        1 C10      0.122400
     14 O14        -2.1170   -4.0020   -1.4130 os        1 C10     -0.421600
     15 C15        -2.6910   -4.8490   -0.4360 c3        1 C10      0.128400
     16 C16        -2.9280   -4.0540    0.8530 c3        1 C10      0.092400
     17 O17        -2.3370   -4.7610    1.9700 os        1 C10     -0.420600
     18 C18        -3.0800   -4.6330    3.2090 c3        1 C10      0.129400
     19 C19        -2.1580   -4.9840    4.3990 c3        1 C10      0.098400
     20 O20        -1.7800   -3.7850    5.0750 os        1 C10     -0.427600
     21 C21        -1.3660   -3.9900    6.4220 c3        1 C10      0.129400
     22 C22        -1.7360   -2.7780    7.2580 c3        1 C10      0.128400
     23 O23        -0.5450   -2.1440    7.7380 os        1 C10     -0.428600
     24 C24        -0.7900   -1.0210    8.5760 c3        1 C10      0.128400
     25 C25         0.4770   -0.1480    8.6490 c3        1 C10      0.128400
     26 O26         0.1190    1.2240    8.5120 os        1 C10     -0.430600
     27 C27         1.0170    2.1050    9.1290 c3        1 C10      0.128400
     28 C28         0.8280    3.4870    8.5720 c3        1 C10      0.127400
     29 O29         2.0630    4.1120    8.4500 oh        1 C10     -0.602800
     30 H1C1        4.0960    8.3800   -6.5380 hc        1 C10      0.032700
     31 H1C2        5.5430    7.9840   -5.9480 hc        1 C10      0.032700
     32 H1C3        4.2240    7.7750   -5.0630 hc        1 C10      0.032700
     33 H2C1        4.5400    6.3540   -7.4920 hc        1 C10      0.038700
     34 H2C2        5.0950    5.7490   -6.1280 hc        1 C10      0.038700
     35 H3C1        2.3250    6.3520   -6.6550 hc        1 C10      0.039700
     36 H3C2        2.8610    5.8550   -5.2210 hc        1 C10      0.039700
     37 H4C1        2.8920    4.3050   -7.6140 hc        1 C10      0.039700
     38 H4C2        3.6400    3.8330   -6.2950 hc        1 C10      0.039700
     39 H5C1        1.5100    3.9350   -5.1650 hc        1 C10      0.039700
     40 H5C2        0.8350    4.1440   -6.5920 hc        1 C10      0.039700
     41 H6C1        1.7540    2.0280   -7.3070 hc        1 C10      0.039700
     42 H6C2        2.3210    1.8140   -5.8130 hc        1 C10      0.039700
     43 H7C1       -0.0150    1.9820   -5.0300 hc        1 C10      0.041700
     44 H7C2       -0.4550    1.8590   -6.5620 hc        1 C10      0.041700
     45 H8C1        1.0980   -0.1350   -5.2630 hc        1 C10      0.040200
     46 H8C2        0.4600   -0.2710   -6.6940 hc        1 C10      0.040200
     47 H9C1       -1.6830   -0.2440   -5.7550 hc        1 C10      0.054700
     48 H9C2       -1.0470   -0.0820   -4.3210 hc        1 C10      0.054700
     49 H101        0.1390   -2.2190   -4.9000 h1        1 C10      0.026700
     50 H102       -1.0920   -2.4040   -5.9050 h1        1 C10      0.026700
     51 H121       -0.5770   -3.9900   -3.3340 h1        1 C10      0.042700
     52 H122       -1.5590   -4.3350   -4.5650 h1        1 C10      0.042700
     53 H131       -2.7380   -5.2020   -2.8260 h1        1 C10      0.044700
     54 H132       -3.3770   -3.7470   -2.8900 h1        1 C10      0.044700
     55 H151       -3.5570   -5.2030   -0.7710 h1        1 C10      0.059700
     56 H152       -2.0880   -5.5870   -0.2540 h1        1 C10      0.059700
     57 H161       -3.8900   -3.9530    1.0020 h1        1 C10      0.038200
     58 H162       -2.5170   -3.1690    0.7710 h1        1 C10      0.038200
     59 H181       -3.8440   -5.2450    3.1980 h1        1 C10      0.061700
     60 H182       -3.4010   -3.7110    3.3050 h1        1 C10      0.061700
     61 H191       -2.6360   -5.5740    5.0190 h1        1 C10      0.036700
     62 H192       -1.3480   -5.4430    4.0650 h1        1 C10      0.036700
     63 H211       -0.4080   -4.1200    6.4490 h1        1 C10      0.041700
     64 H212       -1.8160   -4.7880    6.7850 h1        1 C10      0.041700
     65 H221       -2.2450   -2.1450    6.7080 h1        1 C10      0.041200
     66 H222       -2.2860   -3.0630    8.0230 h1        1 C10      0.041200
     67 H241       -1.5320   -0.4940    8.2070 h1        1 C10      0.044700
     68 H242       -1.0270   -1.3320    9.4810 h1        1 C10      0.044700
     69 H251        0.9220   -0.2860    9.5200 h1        1 C10      0.045200
     70 H252        1.0990   -0.4040    7.9150 h1        1 C10      0.045200
     71 H271        0.8500    2.1170   10.0970 h1        1 C10      0.041700
     72 H272        1.9210    1.8110    8.9620 h1        1 C10      0.041700
     73 H281        0.2660    4.0000    9.1690 h1        1 C10      0.035700
     74 H282        0.4010    3.4300    7.6860 h1        1 C10      0.035700
     75 H29         2.0320    4.7140    7.7670 ho        1 C10      0.405000
@<TRIPOS>BOND
     1    1    2 1   
     2    1   30 1   
     3    1   31 1   
     4    1   32 1   
     5    2    3 1   
     6    2   33 1   
     7    2   34 1   
     8    3    4 1   
     9    3   35 1   
    10    3   36 1   
    11    4    5 1   
    12    4   37 1   
    13    4   38 1   
    14    5    6 1   
    15    5   39 1   
    16    5   40 1   
    17    6    7 1   
    18    6   41 1   
    19    6   42 1   
    20    7    8 1   
    21    7   43 1   
    22    7   44 1   
    23    8    9 1   
    24    8   45 1   
    25    8   46 1   
    26    9   10 1   
    27    9   47 1   
    28    9   48 1   
    29   10   11 1   
    30   10   49 1   
    31   10   50 1   
    32   11   12 1   
    33   12   13 1   
    34   12   51 1   
    35   12   52 1   
    36   13   14 1   
    37   13   53 1   
    38   13   54 1   
    39   14   15 1   
    40   15   16 1   
    41   15   55 1   
    42   15   56 1   
    43   16   17 1   
    44   16   57 1   
    45   16   58 1   
    46   17   18 1   
    47   18   19 1   
    48   18   59 1   
    49   18   60 1   
    50   19   20 1   
    51   19   61 1   
    52   19   62 1   
    53   20   21 1   
    54   21   22 1   
    55   21   63 1   
    56   21   64 1   
    57   22   23 1   
    58   22   65 1   
    59   22   66 1   
    60   23   24 1   
    61   24   25 1   
    62   24   67 1   
    63   24   68 1   
    64   25   26 1   
    65   25   69 1   
    66   25   70 1   
    67   26   27 1   
    68   27   28 1   
    69   27   71 1   
    70   27   72 1   
    71   28   29 1   
    72   28   73 1   
    73   28   74 1   
    74   29   75 1   
@<TRIPOS>SUBSTRUCTURE
     1 C10         1 TEMP              0 ****  ****    0 ROOT
