@<TRIPOS>MOLECULE
C10
   75    74     1     0     0
SMALL
bcc


@<TRIPOS>ATOM
      1 C1         -0.9920   -1.7540   15.8170 c3        1 C10     -0.092100
      2 C2         -1.3650   -0.8540   14.6670 c3        1 C10     -0.080400
      3 C3         -0.5590   -1.1760   13.4270 c3        1 C10     -0.079400
      4 C4         -0.9370   -0.2700   12.2740 c3        1 C10     -0.079400
      5 C5         -0.1310   -0.5930   11.0340 c3        1 C10     -0.079400
      6 C6         -0.5090    0.3130    9.8820 c3        1 C10     -0.079400
      7 C7          0.2970   -0.0100    8.6430 c3        1 C10     -0.078400
      8 C8         -0.0810    0.8960    7.4900 c3        1 C10     -0.078400
      9 C9          0.7270    0.5690    6.2540 c3        1 C10     -0.083400
     10 C10         0.3370    1.4860    5.1080 c3        1 C10      0.132400
     11 O11         1.1400    1.1090    3.9910 os        1 C10     -0.428600
     12 C12         0.8800    1.9140    2.8440 c3        1 C10      0.126400
     13 C13         1.6830    1.3060    1.6990 c3        1 C10      0.127400
     14 O14         0.7350    0.7490    0.7910 os        1 C10     -0.429600
     15 C15         1.3580   -0.0040   -0.2470 c3        1 C10      0.127400
     16 C16         0.2550   -0.3880   -1.2270 c3        1 C10      0.127400
     17 O17         0.4440    0.4190   -2.3880 os        1 C10     -0.429600
     18 C18        -0.6220    0.2780   -3.3240 c3        1 C10      0.127400
     19 C19        -0.2060    1.0460   -4.5730 c3        1 C10      0.127400
     20 O20         0.1180    0.0700   -5.5610 os        1 C10     -0.429600
     21 C21         0.6840    0.6530   -6.7320 c3        1 C10      0.127400
     22 C22         0.8170   -0.4700   -7.7550 c3        1 C10      0.127400
     23 O23        -0.2010   -0.2520   -8.7300 os        1 C10     -0.428600
     24 C24        -0.2990   -1.3300   -9.6580 c3        1 C10      0.127400
     25 C25        -1.2940   -0.8910  -10.7280 c3        1 C10      0.128400
     26 O26        -0.5320   -0.6050  -11.8990 os        1 C10     -0.438600
     27 C27        -1.3210   -0.0150  -12.9300 c3        1 C10      0.087400
     28 C28        -0.3890    0.1730  -14.1220 c3        1 C10      0.131400
     29 O29         0.0340   -1.0650  -14.6530 oh        1 C10     -0.600800
     30 H1C1       -1.5970   -1.5000   16.7210 hc        1 C10      0.032700
     31 H1C2       -1.1790   -2.8240   15.5570 hc        1 C10      0.032700
     32 H1C3        0.0890   -1.6400   16.0730 hc        1 C10      0.032700
     33 H2C1       -2.4580   -0.9640   14.4420 hc        1 C10      0.038700
     34 H2C2       -1.1940    0.2170   14.9560 hc        1 C10      0.038700
     35 H3C1        0.5340   -1.0650   13.6500 hc        1 C10      0.039700
     36 H3C2       -0.7300   -2.2460   13.1360 hc        1 C10      0.039700
     37 H4C1       -2.0310   -0.3810   12.0510 hc        1 C10      0.039700
     38 H4C2       -0.7660    0.8000   12.5660 hc        1 C10      0.039700
     39 H5C1        0.9630   -0.4820   11.2570 hc        1 C10      0.039700
     40 H5C2       -0.3020   -1.6630   10.7430 hc        1 C10      0.039700
     41 H6C1       -1.6030    0.2010    9.6590 hc        1 C10      0.039700
     42 H6C2       -0.3380    1.3830   10.1730 hc        1 C10      0.039700
     43 H7C1        1.3910    0.1010    8.8650 hc        1 C10      0.041700
     44 H7C2        0.1270   -1.0800    8.3510 hc        1 C10      0.041700
     45 H8C1       -1.1750    0.7840    7.2670 hc        1 C10      0.040200
     46 H8C2        0.0900    1.9660    7.7820 hc        1 C10      0.040200
     47 H9C1        1.8220    0.6840    6.4640 hc        1 C10      0.054700
     48 H9C2        0.5580   -0.4960    5.9490 hc        1 C10      0.054700
     49 H101       -0.7490    1.3660    4.8480 h1        1 C10      0.025700
     50 H102        0.5330    2.5610    5.3670 h1        1 C10      0.025700
     51 H121       -0.2170    1.9120    2.6070 h1        1 C10      0.041700
     52 H122        1.2180    2.9650    3.0460 h1        1 C10      0.041700
     53 H131        2.2770    2.0980    1.1700 h1        1 C10      0.043200
     54 H132        2.3750    0.5070    2.0780 h1        1 C10      0.043200
     55 H151        2.1460    0.6140   -0.7550 h1        1 C10      0.043700
     56 H152        1.8270   -0.9230    0.1940 h1        1 C10      0.043700
     57 H161        0.3430   -1.4690   -1.5120 h1        1 C10      0.043700
     58 H162       -0.7580   -0.1960   -0.7820 h1        1 C10      0.043700
     59 H181       -0.7900   -0.8060   -3.5600 h1        1 C10      0.043200
     60 H182       -1.5570    0.7180   -2.8860 h1        1 C10      0.043200
     61 H191       -1.0560    1.6770   -4.9460 h1        1 C10      0.043700
     62 H192        0.6830    1.6970   -4.3630 h1        1 C10      0.043700
     63 H211        0.0190    1.4700   -7.1200 h1        1 C10      0.043700
     64 H212        1.6930    1.0760   -6.4820 h1        1 C10      0.043700
     65 H221        1.8200   -0.4270   -8.2550 h1        1 C10      0.044200
     66 H222        0.6800   -1.4710   -7.2670 h1        1 C10      0.044200
     67 H241        0.7050   -1.5450  -10.1110 h1        1 C10      0.043200
     68 H242       -0.6750   -2.2430   -9.1260 h1        1 C10      0.043200
     69 H251       -2.0170   -1.7180  -10.9540 h1        1 C10      0.045200
     70 H252       -1.8560    0.0230  -10.3980 h1        1 C10      0.045200
     71 H271       -2.1710   -0.6990  -13.1930 h1        1 C10      0.039200
     72 H272       -1.7230    0.9720  -12.5840 h1        1 C10      0.039200
     73 H281       -0.9390    0.6780  -14.9590 h1        1 C10      0.053200
     74 H282        0.5010    0.7880  -13.8200 h1        1 C10      0.053200
     75 H29         0.4560   -1.5510  -13.9320 ho        1 C10      0.412000
@<TRIPOS>BOND
     1    1    2 1   
     2    1   30 1   
     3    1   31 1   
     4    1   32 1   
     5    2    3 1   
     6    2   33 1   
     7    2   34 1   
     8    3    4 1   
     9    3   35 1   
    10    3   36 1   
    11    4    5 1   
    12    4   37 1   
    13    4   38 1   
    14    5    6 1   
    15    5   39 1   
    16    5   40 1   
    17    6    7 1   
    18    6   41 1   
    19    6   42 1   
    20    7    8 1   
    21    7   43 1   
    22    7   44 1   
    23    8    9 1   
    24    8   45 1   
    25    8   46 1   
    26    9   10 1   
    27    9   47 1   
    28    9   48 1   
    29   10   11 1   
    30   10   49 1   
    31   10   50 1   
    32   11   12 1   
    33   12   13 1   
    34   12   51 1   
    35   12   52 1   
    36   13   14 1   
    37   13   53 1   
    38   13   54 1   
    39   14   15 1   
    40   15   16 1   
    41   15   55 1   
    42   15   56 1   
    43   16   17 1   
    44   16   57 1   
    45   16   58 1   
    46   17   18 1   
    47   18   19 1   
    48   18   59 1   
    49   18   60 1   
    50   19   20 1   
    51   19   61 1   
    52   19   62 1   
    53   20   21 1   
    54   21   22 1   
    55   21   63 1   
    56   21   64 1   
    57   22   23 1   
    58   22   65 1   
    59   22   66 1   
    60   23   24 1   
    61   24   25 1   
    62   24   67 1   
    63   24   68 1   
    64   25   26 1   
    65   25   69 1   
    66   25   70 1   
    67   26   27 1   
    68   27   28 1   
    69   27   71 1   
    70   27   72 1   
    71   28   29 1   
    72   28   73 1   
    73   28   74 1   
    74   29   75 1   
@<TRIPOS>SUBSTRUCTURE
     1 C10         1 TEMP              0 ****  ****    0 ROOT
