@<TRIPOS>MOLECULE
C10
   75    74     1     0     0
SMALL
bcc


@<TRIPOS>ATOM
      1 C1         -1.0940    1.7150    0.2010 c3        1 C10     -0.092100
      2 C2         -0.0410    0.6680    0.4570 c3        1 C10     -0.080400
      3 C3          1.1240    1.2320    1.2420 c3        1 C10     -0.079400
      4 C4          2.1790    0.1770    1.4960 c3        1 C10     -0.079400
      5 C5          3.3440    0.7420    2.2810 c3        1 C10     -0.079400
      6 C6          4.3990   -0.3130    2.5350 c3        1 C10     -0.079400
      7 C7          5.5620    0.2520    3.3210 c3        1 C10     -0.078400
      8 C8          6.6170   -0.8030    3.5750 c3        1 C10     -0.078400
      9 C9          7.7790   -0.2340    4.3590 c3        1 C10     -0.083400
     10 C10         8.8270   -1.3040    4.6060 c3        1 C10      0.132400
     11 O11         9.8760   -0.6840    5.3480 os        1 C10     -0.428600
     12 C12        10.9430   -1.5870    5.6300 c3        1 C10      0.126400
     13 C13        11.9050   -0.8440    6.5520 c3        1 C10      0.127400
     14 O14        11.8100   -1.4740    7.8280 os        1 C10     -0.428600
     15 C15        12.5340   -0.7690    8.8340 c3        1 C10      0.127400
     16 C16        12.4940   -1.6400   10.0850 c3        1 C10      0.128400
     17 O17        13.8140   -2.1540   10.2600 os        1 C10     -0.430600
     18 C18        13.8820   -3.1000   11.3240 c3        1 C10      0.128400
     19 C19        15.3400   -3.5470   11.3880 c3        1 C10      0.128400
     20 O20        15.4420   -4.3690   12.5480 os        1 C10     -0.430600
     21 C21        16.7680   -4.8610   12.7400 c3        1 C10      0.129400
     22 C22        16.7010   -5.8340   13.9120 c3        1 C10      0.127400
     23 O23        16.8550   -7.1410   13.3620 os        1 C10     -0.427600
     24 C24        16.6370   -8.1640   14.3310 c3        1 C10      0.127400
     25 C25        16.9990   -9.4830   13.6550 c3        1 C10      0.128400
     26 O26        18.2430   -9.8980   14.2150 os        1 C10     -0.438600
     27 C27        18.7880  -11.0320   13.5450 c3        1 C10      0.087400
     28 C28        20.0720  -11.3870   14.2890 c3        1 C10      0.131400
     29 O29        19.8070  -11.8350   15.6020 oh        1 C10     -0.599800
     30 H1C1       -1.4940    2.1160    1.1640 hc        1 C10      0.032700
     31 H1C2       -1.9430    1.2790   -0.3790 hc        1 C10      0.032700
     32 H1C3       -0.6690    2.5670   -0.3830 hc        1 C10      0.032700
     33 H2C1        0.3300    0.2600   -0.5210 hc        1 C10      0.038700
     34 H2C2       -0.4920   -0.1900    1.0220 hc        1 C10      0.038700
     35 H3C1        1.5770    2.0890    0.6770 hc        1 C10      0.039700
     36 H3C2        0.7550    1.6390    2.2200 hc        1 C10      0.039700
     37 H4C1        2.5480   -0.2300    0.5170 hc        1 C10      0.039700
     38 H4C2        1.7260   -0.6800    2.0600 hc        1 C10      0.039700
     39 H5C1        3.7970    1.5990    1.7170 hc        1 C10      0.039700
     40 H5C2        2.9750    1.1490    3.2600 hc        1 C10      0.039700
     41 H6C1        4.7670   -0.7200    1.5570 hc        1 C10      0.039700
     42 H6C2        3.9450   -1.1700    3.1000 hc        1 C10      0.039700
     43 H7C1        6.0160    1.1090    2.7560 hc        1 C10      0.041700
     44 H7C2        5.1940    0.6590    4.2990 hc        1 C10      0.041700
     45 H8C1        6.1640   -1.6600    4.1390 hc        1 C10      0.040200
     46 H8C2        6.9860   -1.2100    2.5960 hc        1 C10      0.040200
     47 H9C1        7.4220    0.1690    5.3430 hc        1 C10      0.054700
     48 H9C2        8.2430    0.6200    3.8010 hc        1 C10      0.054700
     49 H101        8.4010   -2.1570    5.1970 h1        1 C10      0.026200
     50 H102        9.2350   -1.6990    3.6370 h1        1 C10      0.026200
     51 H121       11.4540   -1.8650    4.6710 h1        1 C10      0.042700
     52 H122       10.5480   -2.5120    6.1290 h1        1 C10      0.042700
     53 H131       12.9580   -0.9330    6.1760 h1        1 C10      0.043700
     54 H132       11.6230    0.2400    6.6320 h1        1 C10      0.043700
     55 H151       13.5920   -0.5960    8.5020 h1        1 C10      0.043700
     56 H152       12.0330    0.2160    9.0260 h1        1 C10      0.043700
     57 H161       11.7630   -2.4820    9.9620 h1        1 C10      0.044700
     58 H162       12.2170   -1.0260   10.9820 h1        1 C10      0.044700
     59 H181       13.5730   -2.6180   12.2890 h1        1 C10      0.041200
     60 H182       13.2080   -3.9700   11.1110 h1        1 C10      0.041200
     61 H191       16.0220   -2.6620   11.4810 h1        1 C10      0.041200
     62 H192       15.6160   -4.1340   10.4730 h1        1 C10      0.041200
     63 H211       17.1290   -5.3780   11.8120 h1        1 C10      0.044700
     64 H212       17.4470   -4.0010   12.9820 h1        1 C10      0.044700
     65 H221       17.5370   -5.6380   14.6330 h1        1 C10      0.044200
     66 H222       15.7160   -5.7500   14.4440 h1        1 C10      0.044200
     67 H241       15.5560   -8.1630   14.6320 h1        1 C10      0.043700
     68 H242       17.2800   -7.9880   15.2330 h1        1 C10      0.043700
     69 H251       17.0980   -9.3470   12.5460 h1        1 C10      0.045200
     70 H252       16.2210  -10.2610   13.8740 h1        1 C10      0.045200
     71 H271       18.0570  -11.8820   13.5860 h1        1 C10      0.039700
     72 H272       19.0090  -10.7740   12.4770 h1        1 C10      0.039700
     73 H281       20.7580  -10.4990   14.3140 h1        1 C10      0.053700
     74 H282       20.5780  -12.2510   13.7820 h1        1 C10      0.053700
     75 H29        19.3100  -11.1330   16.0430 ho        1 C10      0.412000
@<TRIPOS>BOND
     1    1    2 1   
     2    1   30 1   
     3    1   31 1   
     4    1   32 1   
     5    2    3 1   
     6    2   33 1   
     7    2   34 1   
     8    3    4 1   
     9    3   35 1   
    10    3   36 1   
    11    4    5 1   
    12    4   37 1   
    13    4   38 1   
    14    5    6 1   
    15    5   39 1   
    16    5   40 1   
    17    6    7 1   
    18    6   41 1   
    19    6   42 1   
    20    7    8 1   
    21    7   43 1   
    22    7   44 1   
    23    8    9 1   
    24    8   45 1   
    25    8   46 1   
    26    9   10 1   
    27    9   47 1   
    28    9   48 1   
    29   10   11 1   
    30   10   49 1   
    31   10   50 1   
    32   11   12 1   
    33   12   13 1   
    34   12   51 1   
    35   12   52 1   
    36   13   14 1   
    37   13   53 1   
    38   13   54 1   
    39   14   15 1   
    40   15   16 1   
    41   15   55 1   
    42   15   56 1   
    43   16   17 1   
    44   16   57 1   
    45   16   58 1   
    46   17   18 1   
    47   18   19 1   
    48   18   59 1   
    49   18   60 1   
    50   19   20 1   
    51   19   61 1   
    52   19   62 1   
    53   20   21 1   
    54   21   22 1   
    55   21   63 1   
    56   21   64 1   
    57   22   23 1   
    58   22   65 1   
    59   22   66 1   
    60   23   24 1   
    61   24   25 1   
    62   24   67 1   
    63   24   68 1   
    64   25   26 1   
    65   25   69 1   
    66   25   70 1   
    67   26   27 1   
    68   27   28 1   
    69   27   71 1   
    70   27   72 1   
    71   28   29 1   
    72   28   73 1   
    73   28   74 1   
    74   29   75 1   
@<TRIPOS>SUBSTRUCTURE
     1 C10         1 TEMP              0 ****  ****    0 ROOT
