@<TRIPOS>MOLECULE
C10
   75    74     1     0     0
SMALL
bcc


@<TRIPOS>ATOM
      1 C1         -1.2840    2.5910    0.5200 c3        1 C10     -0.092100
      2 C2         -0.0840    1.6920    0.3790 c3        1 C10     -0.080400
      3 C3          0.9140    1.9180    1.4950 c3        1 C10     -0.079400
      4 C4          2.1180    1.0130    1.3490 c3        1 C10     -0.079400
      5 C5          3.1150    1.2390    2.4660 c3        1 C10     -0.079400
      6 C6          4.3190    0.3340    2.3200 c3        1 C10     -0.079400
      7 C7          5.3150    0.5610    3.4370 c3        1 C10     -0.078400
      8 C8          6.5190   -0.3450    3.2910 c3        1 C10     -0.078400
      9 C9          7.5110   -0.1150    4.4090 c3        1 C10     -0.083400
     10 C10         8.7120   -1.0310    4.2490 c3        1 C10      0.132400
     11 O11         9.5870   -0.7510    5.3400 os        1 C10     -0.428600
     12 C12        10.7730   -1.5410    5.2950 c3        1 C10      0.126400
     13 C13        11.5300   -1.2580    6.5900 c3        1 C10      0.127400
     14 O14        11.4630   -2.4520    7.3660 os        1 C10     -0.429600
     15 C15        11.9880   -2.2720    8.6800 c3        1 C10      0.127400
     16 C16        12.0110   -3.6520    9.3300 c3        1 C10      0.127400
     17 O17        13.3790   -4.0520    9.3830 os        1 C10     -0.429600
     18 C18        13.5300   -5.4010    9.8200 c3        1 C10      0.127400
     19 C19        15.0260   -5.6330    9.9990 c3        1 C10      0.127400
     20 O20        15.2630   -5.6860   11.4050 os        1 C10     -0.429600
     21 C21        16.6540   -5.7350   11.7160 c3        1 C10      0.127400
     22 C22        16.7520   -5.9630   13.2210 c3        1 C10      0.127400
     23 O23        17.1580   -7.3190   13.4000 os        1 C10     -0.428600
     24 C24        17.1260   -7.7160   14.7690 c3        1 C10      0.127400
     25 C25        17.7380   -9.1120   14.8290 c3        1 C10      0.128400
     26 O26        19.0290   -8.9640   15.4160 os        1 C10     -0.438600
     27 C27        19.7860  -10.1720   15.3740 c3        1 C10      0.087400
     28 C28        21.1010   -9.8730   16.0860 c3        1 C10      0.131400
     29 O29        20.9030   -9.6170   17.4610 oh        1 C10     -0.600800
     30 H1C1       -1.8070    2.4010    1.4880 hc        1 C10      0.032700
     31 H1C2       -2.0060    2.4080   -0.3120 hc        1 C10      0.032700
     32 H1C3       -0.9790    3.6650    0.4920 hc        1 C10      0.032700
     33 H2C1        0.4130    1.8790   -0.6100 hc        1 C10      0.038700
     34 H2C2       -0.4130    0.6190    0.3840 hc        1 C10      0.038700
     35 H3C1        1.2460    2.9890    1.4900 hc        1 C10      0.039700
     36 H3C2        0.4190    1.7290    2.4840 hc        1 C10      0.039700
     37 H4C1        2.6130    1.2010    0.3600 hc        1 C10      0.039700
     38 H4C2        1.7860   -0.0590    1.3530 hc        1 C10      0.039700
     39 H5C1        3.4470    2.3110    2.4610 hc        1 C10      0.039700
     40 H5C2        2.6200    1.0510    3.4550 hc        1 C10      0.039700
     41 H6C1        4.8140    0.5230    1.3300 hc        1 C10      0.039700
     42 H6C2        3.9870   -0.7380    2.3240 hc        1 C10      0.039700
     43 H7C1        5.6480    1.6330    3.4320 hc        1 C10      0.041700
     44 H7C2        4.8210    0.3720    4.4260 hc        1 C10      0.041700
     45 H8C1        6.1860   -1.4160    3.2950 hc        1 C10      0.040200
     46 H8C2        7.0140   -0.1550    2.3010 hc        1 C10      0.040200
     47 H9C1        7.0290   -0.3090    5.4020 hc        1 C10      0.054700
     48 H9C2        7.8550    0.9520    4.4100 hc        1 C10      0.054700
     49 H101        8.4030   -2.1100    4.2800 h1        1 C10      0.025700
     50 H102        9.2440   -0.8320    3.2800 h1        1 C10      0.025700
     51 H121       11.3870   -1.2350    4.4070 h1        1 C10      0.041700
     52 H122       10.5140   -2.6300    5.2160 h1        1 C10      0.041700
     53 H131       12.6040   -1.0200    6.3730 h1        1 C10      0.043200
     54 H132       11.0590   -0.4050    7.1470 h1        1 C10      0.043200
     55 H151       13.0220   -1.8390    8.6280 h1        1 C10      0.043700
     56 H152       11.3160   -1.5810    9.2530 h1        1 C10      0.043700
     57 H161       11.4140   -4.3860    8.7270 h1        1 C10      0.043700
     58 H162       11.6020   -3.5990   10.3730 h1        1 C10      0.043700
     59 H181       12.9830   -5.5590   10.7880 h1        1 C10      0.043200
     60 H182       13.1180   -6.0900    9.0370 h1        1 C10      0.043200
     61 H191       15.6170   -4.7990    9.5360 h1        1 C10      0.043700
     62 H192       15.3290   -6.6110    9.5390 h1        1 C10      0.043700
     63 H211       17.1490   -6.5710   11.1530 h1        1 C10      0.043700
     64 H212       17.1290   -4.7580   11.4370 h1        1 C10      0.043700
     65 H221       17.5260   -5.2860   13.6690 h1        1 C10      0.044200
     66 H222       15.7610   -5.7860   13.7170 h1        1 C10      0.044200
     67 H241       16.0610   -7.7410   15.1200 h1        1 C10      0.043200
     68 H242       17.7140   -6.9950   15.3960 h1        1 C10      0.043200
     69 H251       17.8280   -9.5520   13.8000 h1        1 C10      0.045200
     70 H252       17.1160   -9.7850   15.4750 h1        1 C10      0.045200
     71 H271       19.2250  -10.9880   15.9020 h1        1 C10      0.039200
     72 H272       19.9720  -10.4680   14.3090 h1        1 C10      0.039200
     73 H281       21.6100   -8.9990   15.6000 h1        1 C10      0.053200
     74 H282       21.7670  -10.7750   16.0490 h1        1 C10      0.053200
     75 H29        20.2790   -8.8830   17.5220 ho        1 C10      0.412000
@<TRIPOS>BOND
     1    1    2 1   
     2    1   30 1   
     3    1   31 1   
     4    1   32 1   
     5    2    3 1   
     6    2   33 1   
     7    2   34 1   
     8    3    4 1   
     9    3   35 1   
    10    3   36 1   
    11    4    5 1   
    12    4   37 1   
    13    4   38 1   
    14    5    6 1   
    15    5   39 1   
    16    5   40 1   
    17    6    7 1   
    18    6   41 1   
    19    6   42 1   
    20    7    8 1   
    21    7   43 1   
    22    7   44 1   
    23    8    9 1   
    24    8   45 1   
    25    8   46 1   
    26    9   10 1   
    27    9   47 1   
    28    9   48 1   
    29   10   11 1   
    30   10   49 1   
    31   10   50 1   
    32   11   12 1   
    33   12   13 1   
    34   12   51 1   
    35   12   52 1   
    36   13   14 1   
    37   13   53 1   
    38   13   54 1   
    39   14   15 1   
    40   15   16 1   
    41   15   55 1   
    42   15   56 1   
    43   16   17 1   
    44   16   57 1   
    45   16   58 1   
    46   17   18 1   
    47   18   19 1   
    48   18   59 1   
    49   18   60 1   
    50   19   20 1   
    51   19   61 1   
    52   19   62 1   
    53   20   21 1   
    54   21   22 1   
    55   21   63 1   
    56   21   64 1   
    57   22   23 1   
    58   22   65 1   
    59   22   66 1   
    60   23   24 1   
    61   24   25 1   
    62   24   67 1   
    63   24   68 1   
    64   25   26 1   
    65   25   69 1   
    66   25   70 1   
    67   26   27 1   
    68   27   28 1   
    69   27   71 1   
    70   27   72 1   
    71   28   29 1   
    72   28   73 1   
    73   28   74 1   
    74   29   75 1   
@<TRIPOS>SUBSTRUCTURE
     1 C10         1 TEMP              0 ****  ****    0 ROOT
