@<TRIPOS>MOLECULE
C11
   51    50     1     0     0
SMALL
bcc


@<TRIPOS>ATOM
      1 C1         -2.3110   -0.0290   -1.2070 c3        1 C11     -0.411600
      2 C2         -0.7980   -0.0290   -1.2070 c3        1 C11     -0.074400
      3 C3         -0.2940   -0.0290    0.2190 c3        1 C11     -0.070400
      4 C4          1.2190   -0.0370    0.2190 c3        1 C11     -0.080400
      5 C5          1.7230   -0.0380    1.6460 c3        1 C11     -0.078400
      6 C6          3.2360   -0.0570    1.6460 c3        1 C11     -0.079400
      7 C7          3.7400   -0.0600    3.0720 c3        1 C11     -0.078400
      8 C8          5.2530   -0.0910    3.0720 c3        1 C11     -0.079400
      9 C9          5.7570   -0.1010    4.4980 c3        1 C11     -0.079400
     10 C10         7.2690   -0.1410    4.4990 c3        1 C11     -0.080400
     11 C11         7.7730   -0.1590    5.9250 c3        1 C11     -0.092100
     12 P          -2.9160   -0.0460   -2.9190 p5        1 C11      1.450300
     13 O1P        -2.5000   -1.3050   -3.5770 o         1 C11     -0.849300
     14 O2P        -4.4940    0.0530   -2.9210 os        1 C11     -0.604200
     15 CY1        -5.1600    0.1350   -4.1590 c3        1 C11      0.174400
     16 CY2        -6.6550    0.1520   -3.9280 c3        1 C11     -0.083400
     17 CY3        -7.3700    0.2490   -5.2580 c3        1 C11     -0.081400
     18 CY4        -8.8640    0.2790   -5.0260 c3        1 C11     -0.092100
     19 H11        -2.6370   -0.8210   -0.7390 hc        1 C11      0.112700
     20 H12        -2.6370    0.7730   -0.7550 hc        1 C11      0.112700
     21 H21        -0.4730    0.7680   -1.6670 hc        1 C11      0.055200
     22 H22        -0.4730   -0.8260   -1.6670 hc        1 C11      0.055200
     23 H31        -0.6150    0.7710    0.6780 hc        1 C11      0.043700
     24 H32        -0.6240   -0.8230    0.6810 hc        1 C11      0.043700
     25 H41         1.5400   -0.8370   -0.2400 hc        1 C11      0.042700
     26 H42         1.5490    0.7570   -0.2420 hc        1 C11      0.042700
     27 H51         1.4080    0.7660    2.1020 hc        1 C11      0.040200
     28 H52         1.3870   -0.8280    2.1090 hc        1 C11      0.040200
     29 H61         3.5510   -0.8600    1.1880 hc        1 C11      0.040700
     30 H62         3.5720    0.7340    1.1830 hc        1 C11      0.040700
     31 H71         3.3980   -0.8470    3.5370 hc        1 C11      0.039700
     32 H72         3.4310    0.7460    3.5280 hc        1 C11      0.039700
     33 H81         5.5940    0.6990    2.6120 hc        1 C11      0.039700
     34 H82         5.5620   -0.8950    2.6120 hc        1 C11      0.039700
     35 H91         5.4530    0.7060    4.9560 hc        1 C11      0.039700
     36 H92         5.4100   -0.8870    4.9610 hc        1 C11      0.039700
     37 H101        7.6160    0.6490    4.0410 hc        1 C11      0.038700
     38 H102        7.5730   -0.9450    4.0360 hc        1 C11      0.038700
     39 H111        8.7490   -0.1830    5.9250 hc        1 C11      0.032700
     40 H112        7.4670    0.6430    6.3890 hc        1 C11      0.032700
     41 H113        7.4280   -0.9500    6.3820 hc        1 C11      0.032700
     42 HP         -2.4110    0.9800   -3.5740 hp        1 C11     -0.167400
     43 HY11       -4.9240   -0.6380   -4.7070 h1        1 C11      0.042700
     44 HY12       -4.8920    0.9530   -4.6190 h1        1 C11      0.042700
     45 HY21       -6.8900    0.9210   -3.3750 hc        1 C11      0.052200
     46 HY22       -6.9230   -0.6690   -3.4740 hc        1 C11      0.052200
     47 HY31       -7.0950    1.0660   -5.7160 hc        1 C11      0.042200
     48 HY32       -7.1410   -0.5240   -5.8080 hc        1 C11      0.042200
     49 HY41       -9.1380   -0.5380   -4.5660 hc        1 C11      0.034033
     50 HY42       -9.0940    1.0530   -4.4780 hc        1 C11      0.034033
     51 HY43       -9.3260    0.3390   -5.8840 hc        1 C11      0.034033
@<TRIPOS>BOND
     1    1    2 1   
     2    1   12 1   
     3    1   19 1   
     4    1   20 1   
     5    2    3 1   
     6    2   21 1   
     7    2   22 1   
     8    3    4 1   
     9    3   23 1   
    10    3   24 1   
    11    4    5 1   
    12    4   25 1   
    13    4   26 1   
    14    5    6 1   
    15    5   27 1   
    16    5   28 1   
    17    6    7 1   
    18    6   29 1   
    19    6   30 1   
    20    7    8 1   
    21    7   31 1   
    22    7   32 1   
    23    8    9 1   
    24    8   33 1   
    25    8   34 1   
    26    9   10 1   
    27    9   35 1   
    28    9   36 1   
    29   10   11 1   
    30   10   37 1   
    31   10   38 1   
    32   11   39 1   
    33   11   40 1   
    34   11   41 1   
    35   12   13 2   
    36   12   14 1   
    37   12   42 1   
    38   14   15 1   
    39   15   16 1   
    40   15   43 1   
    41   15   44 1   
    42   16   17 1   
    43   16   45 1   
    44   16   46 1   
    45   17   18 1   
    46   17   47 1   
    47   17   48 1   
    48   18   49 1   
    49   18   50 1   
    50   18   51 1   
@<TRIPOS>SUBSTRUCTURE
     1 C11         1 TEMP              0 ****  ****    0 ROOT
