@<TRIPOS>MOLECULE
C11
   51    50     1     0     0
SMALL
bcc


@<TRIPOS>ATOM
      1 C1         -0.2940    0.2590   -2.0250 c3        1 C11     -0.411600
      2 C2          0.4250    0.5520   -0.7320 c3        1 C11     -0.074400
      3 C3         -0.3550    0.0990    0.4800 c3        1 C11     -0.070400
      4 C4          0.3900    0.4150    1.7600 c3        1 C11     -0.080400
      5 C5         -0.3910   -0.0420    2.9730 c3        1 C11     -0.078400
      6 C6          0.3520    0.2740    4.2540 c3        1 C11     -0.079400
      7 C7         -0.4280   -0.1820    5.4680 c3        1 C11     -0.078400
      8 C8          0.3140    0.1340    6.7480 c3        1 C11     -0.079400
      9 C9         -0.4660   -0.3220    7.9630 c3        1 C11     -0.079400
     10 C10         0.2760   -0.0060    9.2450 c3        1 C11     -0.080400
     11 C11        -0.4970   -0.4590   10.4560 c3        1 C11     -0.092100
     12 P           0.6860    0.7250   -3.2530 p5        1 C11      1.450300
     13 O1P         1.9160   -0.0260   -3.4730 o         1 C11     -0.849300
     14 O2P        -0.2490    0.6730   -4.5680 os        1 C11     -0.604200
     15 CY1         0.3730    0.1250   -5.7120 c3        1 C11      0.174400
     16 CY2        -0.6250    0.1270   -6.8540 c3        1 C11     -0.083400
     17 CY3         0.0020   -0.4500   -8.1050 c3        1 C11     -0.081400
     18 CY4        -0.9750   -0.4600   -9.2520 c3        1 C11     -0.092100
     19 H11        -0.5350   -0.8370   -2.0710 hc        1 C11      0.112700
     20 H12        -1.2910    0.7710   -2.0290 hc        1 C11      0.112700
     21 H21         0.6160    1.6570   -0.6680 hc        1 C11      0.055200
     22 H22         1.4250    0.0370   -0.7580 hc        1 C11      0.055200
     23 H31        -0.5400   -1.0060    0.4140 hc        1 C11      0.043700
     24 H32        -1.3570    0.6030    0.4910 hc        1 C11      0.043700
     25 H41         0.5750    1.5190    1.8250 hc        1 C11      0.042700
     26 H42         1.3920   -0.0890    1.7460 hc        1 C11      0.042700
     27 H51        -0.5750   -1.1470    2.9080 hc        1 C11      0.040200
     28 H52        -1.3940    0.4600    2.9870 hc        1 C11      0.040200
     29 H61         0.5360    1.3790    4.3190 hc        1 C11      0.040700
     30 H62         1.3550   -0.2280    4.2410 hc        1 C11      0.040700
     31 H71        -0.6130   -1.2870    5.4030 hc        1 C11      0.039700
     32 H72        -1.4320    0.3200    5.4810 hc        1 C11      0.039700
     33 H81         0.4990    1.2390    6.8130 hc        1 C11      0.039700
     34 H82         1.3170   -0.3680    6.7360 hc        1 C11      0.039700
     35 H91        -0.6510   -1.4270    7.8990 hc        1 C11      0.039700
     36 H92        -1.4690    0.1800    7.9760 hc        1 C11      0.039700
     37 H101        0.4610    1.0990    9.3060 hc        1 C11      0.038700
     38 H102        1.2790   -0.5080    9.2290 hc        1 C11      0.038700
     39 H111        0.0670   -0.2160   11.3890 hc        1 C11      0.032700
     40 H112       -1.4910    0.0500   10.5030 hc        1 C11      0.032700
     41 H113       -0.6700   -1.5620   10.4250 hc        1 C11      0.032700
     42 HP          0.8300    1.9910   -3.0680 hp        1 C11     -0.167400
     43 HY11        0.7160   -0.9160   -5.4620 h1        1 C11      0.042700
     44 HY12        1.2750    0.7510   -5.9510 h1        1 C11      0.042700
     45 HY21       -0.9730    1.1750   -7.0420 hc        1 C11      0.052200
     46 HY22       -1.5260   -0.4720   -6.5600 hc        1 C11      0.052200
     47 HY31        0.3540   -1.4960   -7.9010 hc        1 C11      0.042200
     48 HY32        0.9050    0.1540   -8.3850 hc        1 C11      0.042200
     49 HY41       -0.4960   -0.8870  -10.1660 hc        1 C11      0.034033
     50 HY42       -1.8720   -1.0770   -9.0020 hc        1 C11      0.034033
     51 HY43       -1.3190    0.5770   -9.4870 hc        1 C11      0.034033
@<TRIPOS>BOND
     1    1    2 1   
     2    1   12 1   
     3    1   19 1   
     4    1   20 1   
     5    2    3 1   
     6    2   21 1   
     7    2   22 1   
     8    3    4 1   
     9    3   23 1   
    10    3   24 1   
    11    4    5 1   
    12    4   25 1   
    13    4   26 1   
    14    5    6 1   
    15    5   27 1   
    16    5   28 1   
    17    6    7 1   
    18    6   29 1   
    19    6   30 1   
    20    7    8 1   
    21    7   31 1   
    22    7   32 1   
    23    8    9 1   
    24    8   33 1   
    25    8   34 1   
    26    9   10 1   
    27    9   35 1   
    28    9   36 1   
    29   10   11 1   
    30   10   37 1   
    31   10   38 1   
    32   11   39 1   
    33   11   40 1   
    34   11   41 1   
    35   12   13 2   
    36   12   14 1   
    37   12   42 1   
    38   14   15 1   
    39   15   16 1   
    40   15   43 1   
    41   15   44 1   
    42   16   17 1   
    43   16   45 1   
    44   16   46 1   
    45   17   18 1   
    46   17   47 1   
    47   17   48 1   
    48   18   49 1   
    49   18   50 1   
    50   18   51 1   
@<TRIPOS>SUBSTRUCTURE
     1 C11         1 TEMP              0 ****  ****    0 ROOT
