@<TRIPOS>MOLECULE
C11
   51    50     1     0     0
SMALL
bcc


@<TRIPOS>ATOM
      1 C1          0.1520    0.2620   -0.4420 c3        1 C11     -0.411600
      2 C2          1.6520    0.3230   -0.2930 c3        1 C11     -0.074400
      3 C3          2.1000    0.1440    1.1390 c3        1 C11     -0.070400
      4 C4          3.6070    0.2190    1.2540 c3        1 C11     -0.080400
      5 C5          4.0560    0.0360    2.6890 c3        1 C11     -0.078400
      6 C6          5.5630    0.1110    2.8060 c3        1 C11     -0.079400
      7 C7          6.0120   -0.0720    4.2400 c3        1 C11     -0.078400
      8 C8          7.5190    0.0030    4.3570 c3        1 C11     -0.079400
      9 C9          7.9680   -0.1800    5.7910 c3        1 C11     -0.079400
     10 C10         9.4760   -0.1050    5.9100 c3        1 C11     -0.080400
     11 C11         9.9280   -0.2870    7.3360 c3        1 C11     -0.092100
     12 P          -0.1920    0.3910   -2.0390 p5        1 C11      1.450300
     13 O1P         0.1940   -0.7080   -2.9150 o         1 C11     -0.849300
     14 O2P        -1.7880    0.6250   -2.0980 os        1 C11     -0.604200
     15 CY1        -2.4540   -0.0990   -3.1130 c3        1 C11      0.174400
     16 CY2        -3.9360    0.2080   -3.0350 c3        1 C11     -0.083400
     17 CY3        -4.6900   -0.5450   -4.1100 c3        1 C11     -0.081400
     18 CY4        -6.1670   -0.2560   -4.0480 c3        1 C11     -0.092100
     19 H11        -0.3240    1.0600    0.1840 hc        1 C11      0.112700
     20 H12        -0.2210   -0.7030   -0.0070 hc        1 C11      0.112700
     21 H21         2.0120    1.3130   -0.6810 hc        1 C11      0.055200
     22 H22         2.1050   -0.4780   -0.9390 hc        1 C11      0.055200
     23 H31         1.6310    0.9360    1.7810 hc        1 C11      0.043700
     24 H32         1.7410   -0.8480    1.5220 hc        1 C11      0.043700
     25 H41         4.0740   -0.5730    0.6100 hc        1 C11      0.042700
     26 H42         3.9660    1.2100    0.8720 hc        1 C11      0.042700
     27 H51         3.5880    0.8270    3.3330 hc        1 C11      0.040200
     28 H52         3.6980   -0.9560    3.0710 hc        1 C11      0.040200
     29 H61         6.0300   -0.6800    2.1620 hc        1 C11      0.040700
     30 H62         5.9210    1.1030    2.4230 hc        1 C11      0.040700
     31 H71         5.5440    0.7190    4.8840 hc        1 C11      0.039700
     32 H72         5.6540   -1.0640    4.6220 hc        1 C11      0.039700
     33 H81         7.9860   -0.7880    3.7130 hc        1 C11      0.039700
     34 H82         7.8770    0.9950    3.9740 hc        1 C11      0.039700
     35 H91         7.6100   -1.1720    6.1740 hc        1 C11      0.039700
     36 H92         7.5010    0.6110    6.4360 hc        1 C11      0.039700
     37 H101        9.9410   -0.8960    5.2630 hc        1 C11      0.038700
     38 H102        9.8320    0.8870    5.5250 hc        1 C11      0.038700
     39 H111        9.6030   -1.2810    7.7290 hc        1 C11      0.032700
     40 H112       11.0410   -0.2290    7.4010 hc        1 C11      0.032700
     41 H113        9.4940    0.5060    7.9910 hc        1 C11      0.032700
     42 HP          0.2680    1.5490   -2.3600 hp        1 C11     -0.167400
     43 HY11       -2.2460   -1.1930   -2.9580 h1        1 C11      0.042700
     44 HY12       -2.0190    0.2110   -4.1020 h1        1 C11      0.042700
     45 HY21       -4.0940    1.3110   -3.1510 hc        1 C11      0.052200
     46 HY22       -4.3210   -0.0760   -2.0210 hc        1 C11      0.052200
     47 HY31       -4.2910   -0.2570   -5.1190 hc        1 C11      0.042200
     48 HY32       -4.5150   -1.6470   -3.9880 hc        1 C11      0.042200
     49 HY41       -6.5880   -0.5590   -3.0590 hc        1 C11      0.034033
     50 HY42       -6.7060   -0.8190   -4.8480 hc        1 C11      0.034033
     51 HY43       -6.3620    0.8340   -4.1910 hc        1 C11      0.034033
@<TRIPOS>BOND
     1    1    2 1   
     2    1   12 1   
     3    1   19 1   
     4    1   20 1   
     5    2    3 1   
     6    2   21 1   
     7    2   22 1   
     8    3    4 1   
     9    3   23 1   
    10    3   24 1   
    11    4    5 1   
    12    4   25 1   
    13    4   26 1   
    14    5    6 1   
    15    5   27 1   
    16    5   28 1   
    17    6    7 1   
    18    6   29 1   
    19    6   30 1   
    20    7    8 1   
    21    7   31 1   
    22    7   32 1   
    23    8    9 1   
    24    8   33 1   
    25    8   34 1   
    26    9   10 1   
    27    9   35 1   
    28    9   36 1   
    29   10   11 1   
    30   10   37 1   
    31   10   38 1   
    32   11   39 1   
    33   11   40 1   
    34   11   41 1   
    35   12   13 2   
    36   12   14 1   
    37   12   42 1   
    38   14   15 1   
    39   15   16 1   
    40   15   43 1   
    41   15   44 1   
    42   16   17 1   
    43   16   45 1   
    44   16   46 1   
    45   17   18 1   
    46   17   47 1   
    47   17   48 1   
    48   18   49 1   
    49   18   50 1   
    50   18   51 1   
@<TRIPOS>SUBSTRUCTURE
     1 C11         1 TEMP              0 ****  ****    0 ROOT
