@<TRIPOS>MOLECULE
C12
   40    41     1     0     0
SMALL
bcc


@<TRIPOS>ATOM
      1 C1          1.5730    0.2770    0.0870 cc        1 C12      0.180800
      2 N2          0.4480    0.9490    0.4090 nd        1 C12     -0.620000
      3 CA2        -0.2670    0.1520    1.2860 cd        1 C12      0.030600
      4 CG1         5.0310    1.6770   -0.8250 c3        1 C12     -0.085100
      5 OG1         3.4330    2.5560    0.6720 oh        1 C12     -0.622800
      6 C2          0.4330   -1.0990    1.5300 cc        1 C12      0.198400
      7 O2          0.1670   -2.1060    2.2300 o         1 C12     -0.482000
      8 N3          1.6700   -0.9640    0.7980 n         1 C12     -0.307900
      9 CA1         2.6520    0.7730   -0.8400 c3        1 C12      0.139200
     10 N1          2.1910    1.7120   -1.8480 n3        1 C12     -0.894800
     11 CB1         3.8110    1.3540    0.0170 c3        1 C12      0.146100
     12 CA3         2.4570   -2.0690    0.3810 c3        1 C12     -0.059700
     13 C3          2.0830   -2.7080   -0.9430 c         1 C12      0.548900
     14 O3          2.8410   -3.4950   -1.5190 o         1 C12     -0.579100
     15 CB2        -1.5720    0.4840    1.8760 c3        1 C12     -0.001400
     16 CG2        -2.6910    0.4780    0.8840 ca        1 C12     -0.067300
     17 CD1        -2.8380    1.5370   -0.0230 ca        1 C12     -0.095500
     18 CE1        -3.8840    1.5550   -0.9400 ca        1 C12     -0.191000
     19 CD2        -3.6050   -0.5800    0.8500 ca        1 C12     -0.095500
     20 CE2        -4.6610   -0.5810   -0.0600 ca        1 C12     -0.191000
     21 CZ         -4.7980    0.4910   -0.9500 ca        1 C12      0.087100
     22 OH         -5.8280    0.5630   -1.8700 oh        1 C12     -0.517100
     23 HG12        5.8740    1.9920   -0.1650 hc        1 C12      0.035367
     24 HG13        5.3340    0.7740   -1.4040 hc        1 C12      0.035367
     25 HG1         2.5920    2.3760    1.1150 ho        1 C12      0.425000
     26 HA1         3.0710   -0.1180   -1.4010 h1        1 C12      0.045700
     27 HN11        1.3120    1.3990   -2.2170 hn        1 C12      0.349300
     28 HN12        2.0480    2.6110   -1.4240 hn        1 C12      0.349300
     29 HB1         4.0750    0.5820    0.7950 h1        1 C12      0.037700
     30 HA31        3.5400   -1.7560    0.3250 h1        1 C12      0.073700
     31 HA32        2.3560   -2.8740    1.1710 h1        1 C12      0.073700
     32 H3          1.0870   -2.4490   -1.3650 h4        1 C12      0.009200
     33 HB21       -1.7850   -0.2670    2.6860 hc        1 C12      0.035700
     34 HB22       -1.5340    1.5020    2.3550 hc        1 C12      0.035700
     35 HD1        -2.0980    2.3530   -0.0160 ha        1 C12      0.142500
     36 HE1        -4.0020    2.3800   -1.6540 ha        1 C12      0.123500
     37 HD2        -3.4810   -1.4270    1.5420 ha        1 C12      0.142500
     38 HE2        -5.3730   -1.4170   -0.0850 ha        1 C12      0.123500
     39 HOH        -6.3210   -0.2660   -1.8150 ho        1 C12      0.404000
     40 HG11        4.8080    2.5090   -1.5340 hc        1 C12      0.035367
@<TRIPOS>BOND
     1    1    2 2   
     2    1    8 1   
     3    1    9 1   
     4    2    3 1   
     5    3    6 2   
     6    3   15 1   
     7    4   11 1   
     8    4   23 1   
     9    4   24 1   
    10    4   40 1   
    11    5   11 1   
    12    5   25 1   
    13    6    7 1   
    14    6    8 1   
    15    8   12 1   
    16    9   10 1   
    17    9   11 1   
    18    9   26 1   
    19   10   27 1   
    20   10   28 1   
    21   11   29 1   
    22   12   13 1   
    23   12   30 1   
    24   12   31 1   
    25   13   14 2   
    26   13   32 1   
    27   15   16 1   
    28   15   33 1   
    29   15   34 1   
    30   16   17 ar  
    31   16   19 ar  
    32   17   18 ar  
    33   17   35 1   
    34   18   21 ar  
    35   18   36 1   
    36   19   20 ar  
    37   19   37 1   
    38   20   21 ar  
    39   20   38 1   
    40   21   22 1   
    41   22   39 1   
@<TRIPOS>SUBSTRUCTURE
     1 C12         1 TEMP              0 ****  ****    0 ROOT
