@<TRIPOS>MOLECULE
C12
   40    35     1     0     0
SMALL
bcc


@<TRIPOS>ATOM
      1 C1         -1.1030   -0.6200   -0.7430 c1        1 C12     -0.253000
      2 N2          0.2630   -0.5700   -0.7640 n2        1 C12     -0.179000
      3 CA2         0.6960   -0.4910    0.5040 c1        1 C12     -0.050500
      4 CG1        -3.1940   -1.9420   -3.5800 c3        1 C12     -0.202000
      5 OG1        -0.8250   -1.9790   -3.4490 oh        1 C12     -0.349000
      6 C2         -0.4050   -0.4920    1.3290 c1        1 C12     -0.050500
      7 O2         -0.3840   -0.4660    2.7280 os        1 C12     -0.507000
      8 N3         -1.5040   -0.5710    0.5560 n2        1 C12     -0.179000
      9 CA1        -1.9980   -0.5310   -1.9370 c2        1 C12      0.036000
     10 N1         -1.5330    0.4910   -2.8000 n3        1 C12     -0.327000
     11 CB1        -1.9960   -1.8700   -2.6810 c3        1 C12      0.034000
     12 CA3        -2.8760   -0.5460    1.0220 c2        1 C12     -0.064000
     13 C3         -3.0250   -1.4830    2.2120 c2        1 C12      0.182000
     14 O3         -2.8070   -2.6550    2.0820 o         1 C12     -0.349000
     15 CB2         2.1870   -0.6260    0.8420 c2        1 C12      0.010000
     16 CG2         2.7370    0.7410    1.3070 c2        1 C12     -0.066000
     17 CD1         3.3500    1.5890    0.3910 c2        1 C12     -0.112000
     18 CE1         3.9490    2.7720    0.8270 c1        1 C12     -0.169000
     19 CD2         2.7210    1.0700    2.6510 c1        1 C12     -0.085000
     20 CE2         3.3220    2.2570    3.0900 c1        1 C12     -0.215000
     21 CZ          3.9330    3.1030    2.1780 c1        1 C12      0.041000
     22 OH          4.4240    4.3680    2.6020 oh        1 C12     -0.273000
     23 HG11       -3.9760   -1.6180   -3.1040 hc        1 C12      0.074333
     24 HG12       -3.0400   -1.3880   -4.3720 hc        1 C12      0.074333
     25 HG13       -3.3410   -2.8720   -3.8550 hc        1 C12      0.074333
     26 HG1        -0.7640   -2.8130   -3.7870 ho        1 C12      0.224000
     27 HA1        -2.9070   -0.3220   -1.6460 h4        1 C12      0.086000
     28 HN11       -1.4440    1.2830   -2.3240 hn        1 C12      0.146000
     29 HN12       -2.1210    0.6090   -3.4700 hn        1 C12      0.146000
     30 HB1        -2.0290   -2.6010   -2.0350 h1        1 C12      0.077000
     31 HA31       -3.4690   -0.8380    0.3010 ha        1 C12      0.086500
     32 HA32       -3.1150    0.3750    1.2940 ha        1 C12      0.086500
     33 H3         -3.2530   -1.1210    3.0960 h4        1 C12      0.152000
     34 HB21        2.3000   -1.2870    1.5610 ha        1 C12      0.074000
     35 HB22        2.6750   -0.9210    0.0490 ha        1 C12      0.074000
     36 HD1         3.3610    1.3590   -0.5540 ha        1 C12      0.126000
     37 HE1         4.3830    3.3720    0.1790 ha        1 C12      0.129000
     38 HD2         2.2890    0.4740    3.2950 ha        1 C12      0.178000
     39 HE2         3.3110    2.4880    4.0360 ha        1 C12      0.118000
     40 HOH         5.2060    4.2680    2.9690 ho        1 C12      0.204000
@<TRIPOS>BOND
     1    1    2 1   
     2    1    8 1   
     3    2    3 1   
     4    3    6 1   
     5    4   11 1   
     6    4   23 1   
     7    4   24 1   
     8    4   25 1   
     9    5   11 1   
    10    5   26 1   
    11    6    8 1   
    12    9   10 1   
    13    9   11 1   
    14    9   27 1   
    15   10   28 1   
    16   10   29 1   
    17   11   30 1   
    18   12   13 1   
    19   12   31 1   
    20   12   32 1   
    21   13   14 1   
    22   13   33 1   
    23   15   16 1   
    24   15   34 1   
    25   15   35 1   
    26   16   17 1   
    27   16   19 1   
    28   17   18 1   
    29   17   36 1   
    30   18   37 1   
    31   19   38 1   
    32   20   21 1   
    33   20   39 1   
    34   21   22 1   
    35   22   40 1   
@<TRIPOS>SUBSTRUCTURE
     1 C12         1 TEMP              0 ****  ****    0 ROOT
