@<TRIPOS>MOLECULE
C13
   42    43     1     0     0
SMALL
bcc


@<TRIPOS>ATOM
      1 OAA        -4.6560    0.1610   -1.2930 o         1 C13     -0.619100
      2 CLC         7.1390    2.5210   -1.2750 cl        1 C13     -0.084900
      3 CAD        -9.6140    0.5720   -0.0260 ca        1 C13     -0.152000
      4 CAE        -8.7620    0.2780   -1.0890 ca        1 C13     -0.108500
      5 CAF        -9.1220    0.5360    1.2780 ca        1 C13     -0.108500
      6 CAG        -7.4290   -0.0550   -0.8660 ca        1 C13     -0.158500
      7 CAH        -7.7920    0.2130    1.5240 ca        1 C13     -0.158500
      8 CAI         6.6630    0.4160    0.3110 ca        1 C13     -0.119000
      9 CAJ         4.5640   -0.8150    0.2730 ca        1 C13     -0.113500
     10 CAK         4.8800    1.0780   -1.2060 ca        1 C13     -0.113500
     11 CAL        -0.7520   -0.3300    0.1860 c3        1 C13     -0.094400
     12 CAM         0.3440   -0.3340   -0.8770 c3        1 C13      0.164800
     13 CAN        -2.1090   -0.4080   -0.5130 c3        1 C13      0.083000
     14 CAO         2.7160   -0.1810   -1.3100 c3        1 C13      0.208100
     15 NAP         1.6770   -0.3220   -0.3060 n3        1 C13     -0.825200
     16 NAQ        -3.2110   -0.3930    0.4210 n         1 C13     -0.551900
     17 NAR        -5.6010   -0.4920    0.7420 n         1 C13     -0.458100
     18 CAS        -4.5080   -0.2230   -0.1110 c         1 C13      0.753100
     19 CAT         5.8500   -0.6190    0.7840 ca        1 C13      0.021400
     20 CAU         6.1650    1.2580   -0.6870 ca        1 C13      0.021400
     21 CAV         4.0810    0.0370   -0.7240 ca        1 C13     -0.076300
     22 CAW        -6.9220   -0.0930    0.4500 ca        1 C13      0.060600
     23 HAD       -10.6660    0.8310   -0.2130 ha        1 C13      0.133000
     24 HAE        -9.1430    0.3060   -2.1210 ha        1 C13      0.133000
     25 HAF        -9.7870    0.7680    2.1230 ha        1 C13      0.133000
     26 HAG        -6.7730   -0.2760   -1.7240 ha        1 C13      0.148500
     27 HAH        -7.4280    0.1950    2.5620 ha        1 C13      0.148500
     28 HAI         7.6760    0.5640    0.7170 ha        1 C13      0.162000
     29 HAJ         3.9320   -1.6350    0.6500 ha        1 C13      0.158500
     30 HAK         4.5020    1.7520   -1.9900 ha        1 C13      0.158500
     31 HAL        -0.6180   -1.2030    0.8780 hc        1 C13      0.054200
     32 HALA       -0.6890    0.6040    0.8030 hc        1 C13      0.054200
     33 HAM         0.2540   -1.2720   -1.4960 h1        1 C13      0.035200
     34 HAMA        0.1700    0.5410   -1.5730 h1        1 C13      0.035200
     35 HAN        -2.2310    0.4750   -1.2050 h1        1 C13      0.056200
     36 HANA       -2.1410   -1.3400   -1.1490 h1        1 C13      0.056200
     37 HAO         2.7360   -1.1400   -1.9070 h1        1 C13      0.043700
     38 HAOA        2.4910    0.6560   -2.0390 h1        1 C13      0.043700
     39 HNAP        1.7590    0.3920    0.3940 hn        1 C13      0.363800
     40 HNAQ       -3.1030   -0.9850    1.2120 hn        1 C13      0.293500
     41 HNAR       -5.4070   -0.5690    1.7180 hn        1 C13      0.305500
     42 CLB         6.4390   -1.6520    1.9980 cl        1 C13     -0.084900
@<TRIPOS>BOND
     1    1   18 2   
     2    2   20 1   
     3    3    4 ar  
     4    3    5 ar  
     5    3   23 1   
     6    4    6 ar  
     7    4   24 1   
     8    5    7 ar  
     9    5   25 1   
    10    6   22 ar  
    11    6   26 1   
    12    7   22 ar  
    13    7   27 1   
    14    8   19 ar  
    15    8   20 ar  
    16    8   28 1   
    17    9   19 ar  
    18    9   21 ar  
    19    9   29 1   
    20   10   20 ar  
    21   10   21 ar  
    22   10   30 1   
    23   11   12 1   
    24   11   13 1   
    25   11   31 1   
    26   11   32 1   
    27   12   15 1   
    28   12   33 1   
    29   12   34 1   
    30   13   16 1   
    31   13   35 1   
    32   13   36 1   
    33   14   15 1   
    34   14   21 1   
    35   14   37 1   
    36   14   38 1   
    37   15   39 1   
    38   16   18 1   
    39   16   40 1   
    40   17   18 1   
    41   17   22 1   
    42   17   41 1   
    43   19   42 1   
@<TRIPOS>SUBSTRUCTURE
     1 C13         1 TEMP              0 ****  ****    0 ROOT
