@<TRIPOS>MOLECULE
C13
   42    40     1     0     0
SMALL
bcc


@<TRIPOS>ATOM
      1 OAA         0.5330    0.7840   -0.8990 os        1 C13     -0.199000
      2 CLC         4.8740   -3.6350   10.5660 cl        1 C13      0.028000
      3 CAD         1.5120   -3.3760   -6.0630 c2        1 C13     -0.152000
      4 CAE        -0.0020    1.1190   -2.1380 c2        1 C13      0.011000
      5 CAF         1.2890   -2.5720   -5.0630 c1        1 C13     -0.107000
      6 CAG         0.1900    0.2720   -3.1680 c2        1 C13     -0.182000
      7 CAH         1.0740   -1.7940   -4.0920 c1        1 C13     -0.134000
      8 CAI         5.3830   -1.0320    9.9840 c2        1 C13     -0.059000
      9 CAJ         4.0000    0.2790    8.1880 c1        1 C13      0.156000
     10 CAK         4.3780   -1.5380   12.1360 c1        1 C13      0.143000
     11 CAL         1.7400    0.9300    3.5420 c3        1 C13     -0.173000
     12 CAM         1.1830    0.8200    4.9610 c3        1 C13     -0.068000
     13 CAN         0.5980    1.2840    2.5910 c3        1 C13     -0.055000
     14 CAO         1.6690    0.2860    7.2670 c3        1 C13      0.011000
     15 NAP         2.2090    0.5420    5.9450 n3        1 C13     -0.313000
     16 NAQ         1.0380    1.4560    1.2230 n3        1 C13     -0.310000
     17 NAR        -1.1730    1.9490    0.2270 n2        1 C13     -0.335000
     18 CAS         0.0230    1.4500    0.2340 c2        1 C13      0.204000
     19 CAT         5.3420    0.2680   10.3370 c2        1 C13     -0.226000
     20 CAU         4.8610   -1.9860   10.9480 c2        1 C13     -0.377000
     21 CAV         2.7180   -0.0000    8.2930 c2        1 C13     -0.475000
     22 CAW         0.8620   -1.0020   -3.0680 c2        1 C13     -0.028000
     23 HAD        -0.5300    2.0800   -2.2150 h4        1 C13      0.167000
     24 HAE         1.1990   -3.1340   -7.0890 ha        1 C13      0.130500
     25 HAF         2.0250   -4.3400   -5.9340 ha        1 C13      0.130500
     26 HAG        -0.1820    0.5720   -4.1620 ha        1 C13      0.147000
     27 HAH         1.2040   -1.3040   -2.0590 ha        1 C13      0.145000
     28 HAI         5.7910   -1.3770    9.0210 ha        1 C13      0.186000
     29 HAJ         5.6810    1.1520    9.7930 h4        1 C13      0.208000
     30 HAK         2.3120   -0.4720    9.2090 ha        1 C13      0.187000
     31 HAL         2.7970   -0.2140    5.6470 hn        1 C13      0.161000
     32 HALA        2.5350    1.7200    3.5030 hc        1 C13      0.099500
     33 HAM         2.2090   -0.0420    3.2360 hc        1 C13      0.099500
     34 HAMA        0.3660    0.0370    4.9650 h1        1 C13      0.072500
     35 HAN         0.1360    2.2590    2.9200 h1        1 C13      0.082500
     36 HANA       -0.2000    0.4880    2.6720 h1        1 C13      0.082500
     37 HAO         0.7040    1.8010    5.2430 h1        1 C13      0.072500
     38 HAOA        1.1010    1.2070    7.5900 h1        1 C13      0.081000
     39 HNAP        0.9370   -0.5790    7.2670 h1        1 C13      0.081000
     40 HNAQ        1.8380    0.9090    0.9750 hn        1 C13      0.211000
     41 HNAR       -1.4660    2.3830    1.0740 hn        1 C13      0.165000
     42 CLB         4.6780    0.5520   11.9070 cl        1 C13      0.130000
@<TRIPOS>BOND
     1    1    4 1   
     2    1   18 1   
     3    2   20 1   
     4    3    5 1   
     5    3   24 1   
     6    3   25 1   
     7    4    6 1   
     8    4   23 1   
     9    5    7 1   
    10    6   22 1   
    11    6   26 1   
    12    7   22 1   
    13    8   19 1   
    14    8   20 1   
    15    8   28 1   
    16    9   21 1   
    17   10   20 1   
    18   11   12 1   
    19   11   13 1   
    20   11   32 1   
    21   11   33 1   
    22   12   15 1   
    23   12   34 1   
    24   12   37 1   
    25   13   16 1   
    26   13   35 1   
    27   13   36 1   
    28   14   15 1   
    29   14   21 1   
    30   14   38 1   
    31   14   39 1   
    32   15   31 1   
    33   16   18 1   
    34   16   40 1   
    35   17   18 1   
    36   17   41 1   
    37   19   29 1   
    38   19   42 1   
    39   21   30 1   
    40   22   27 1   
@<TRIPOS>SUBSTRUCTURE
     1 C13         1 TEMP              0 ****  ****    0 ROOT
