@<TRIPOS>MOLECULE
C13
   44    42     1     0     0
SMALL
bcc


@<TRIPOS>ATOM
      1 OAA         0.4920    1.2450    0.7960 os        1 C13     -0.216000
      2 ClC         4.3710   -1.8590    5.7700 cl        1 C13      0.158500
      3 CAD         1.0180   -1.6760   -5.0140 c2        1 C13      0.279000
      4 CAE        -0.1300    1.7480   -0.3200 c2        1 C13      0.041000
      5 CAF         1.1700   -0.9290   -3.9180 c1        1 C13     -0.294000
      6 CAG         0.2880    1.5030   -1.5720 c2        1 C13     -0.333000
      7 CAH         1.3120   -0.2230   -2.9160 c1        1 C13      0.259000
      8 CAI         5.3650    3.0390   11.2240 c1        1 C13     -0.139000
      9 CAJ         3.2470    1.5360    8.7810 c1        1 C13      0.004000
     10 CAK         3.1080   -3.5790    7.5830 c1        1 C13     -0.139000
     11 CAL         1.4570   -0.5630    3.4600 c3        1 C13     -0.201000
     12 CAM         0.9150   -0.2020    4.8390 c3        1 C13     -0.132000
     13 CAN         0.2810   -0.9190    2.5500 c3        1 C13     -0.085000
     14 CAO         1.4250    0.6500    7.1080 c3        1 C13      0.028000
     15 NAP         1.9860    0.2650    5.7630 ny        1 C13     -0.056000
     16 NAQ         0.6800   -1.1110    1.1390 ny        1 C13     -0.087000
     17 NAR         2.0400    0.0330   -0.6170 n7        1 C13     -0.395000
     18 CAS         1.4430    0.2160    0.6670 c2        1 C13     -0.054000
     19 CAT         6.1290    2.2020   10.8340 c1        1 C13     -0.253500
     20 CAU         3.6140   -2.8250    6.8050 c1        1 C13     -0.253500
     21 CAV         2.4500    1.1270    7.9850 c1        1 C13     -0.337000
     22 CAW         1.5280    0.6820   -1.8010 c3        1 C13      0.086000
     23 HAD        -0.9670    2.4120   -0.0390 h4        1 C13      0.195000
     24 HAE         1.3940   -2.7200   -5.0620 ha        1 C13      0.196500
     25 HAF         0.5090   -1.2770   -5.9180 ha        1 C13      0.196500
     26 HAG        -0.1940    1.9420   -2.4540 ha        1 C13      0.173000
     27 HAH         2.3210    1.4050   -2.2310 h1        1 C13      0.175000
     28 HAI         4.7140    3.7910   11.5940 ha        1 C13      0.251500
     29 HAJ         3.9650    1.9010    9.4910 ha        1 C13      0.270000
     30 HAK         2.6530   -4.2470    8.2780 ha        1 C13      0.251500
     31 HAL         2.6980   -0.4860    5.8880 hn        1 C13      0.254500
     32 HALA        2.0130    0.3060    3.0030 hc        1 C13      0.136000
     33 HAM         2.1660   -1.4300    3.5320 hc        1 C13      0.136000
     34 HAMA        0.1520    0.6250    4.7470 hx        1 C13      0.146000
     35 HAN        -0.2170   -1.8590    2.9230 hx        1 C13      0.122500
     36 HANA       -0.4690   -0.0760    2.5700 hx        1 C13      0.122500
     37 HAO         0.4170   -1.0970    5.3110 hx        1 C13      0.146000
     38 HAOA        0.6430    1.4510    6.9390 hx        1 C13      0.156000
     39 HNAP        0.9230   -0.2660    7.5450 hx        1 C13      0.156000
     40 HNAQ        1.3600   -1.8660    1.0760 hn        1 C13      0.191000
     41 HNAR        3.0350    0.0490   -0.5470 hn        1 C13      0.241000
     42 HAP2        2.4620    1.0770    5.3540 hn        1 C13      0.254500
     43 HAQ2       -0.1470   -1.3700    0.6030 hn        1 C13      0.191000
     44 ClB         7.1620    1.0930   10.3330 cl        1 C13      0.158500
@<TRIPOS>BOND
     1    1    4 1   
     2    1   18 1   
     3    2   20 1   
     4    3    5 1   
     5    3   24 1   
     6    3   25 1   
     7    4    6 1   
     8    4   23 1   
     9    5    7 1   
    10    6   22 1   
    11    6   26 1   
    12    7   22 1   
    13    8   19 1   
    14    8   28 1   
    15    9   21 1   
    16    9   29 1   
    17   10   20 1   
    18   10   30 1   
    19   11   12 1   
    20   11   13 1   
    21   11   32 1   
    22   11   33 1   
    23   12   15 1   
    24   12   34 1   
    25   12   37 1   
    26   13   16 1   
    27   13   35 1   
    28   13   36 1   
    29   14   15 1   
    30   14   21 1   
    31   14   38 1   
    32   14   39 1   
    33   15   31 1   
    34   15   42 1   
    35   16   18 1   
    36   16   40 1   
    37   16   43 1   
    38   17   18 1   
    39   17   22 1   
    40   17   41 1   
    41   19   44 1   
    42   22   27 1   
@<TRIPOS>SUBSTRUCTURE
     1 C13         1 TEMP              0 ****  ****    0 ROOT
