@<TRIPOS>MOLECULE
C13
   44    39     1     0     0
SMALL
bcc


@<TRIPOS>ATOM
      1 OAA       -54.2360   24.7330  104.2230 o         1 C13     -0.472000
      2 CLC       -50.0590   23.9250  107.8520 cl        1 C13      0.181500
      3 CAD       524.9400 -233.0370 -968.3430 c1        1 C13      0.825000
      4 CAE       -51.1850   27.1710  101.8120 c1        1 C13     -0.151000
      5 CAF       523.9040 -233.3540 -967.5370 c1        1 C13     -0.526000
      6 CAG       -52.0600   26.3550  101.7970 c1        1 C13     -0.237000
      7 CAH       522.9620 -233.6430 -966.8040 c1        1 C13      0.401000
      8 CAI       -51.0440   21.4080  102.0600 c1        1 C13     -0.196500
      9 CAJ       -53.1220   28.7000  107.0590 c1        1 C13     -0.048000
     10 CAK       -51.5060   25.4980  109.6530 c1        1 C13     -0.196500
     11 CAL       -53.7310   22.7120  106.8650 c3        1 C13     -0.196000
     12 CAM       -54.4920   24.0100  107.0980 c3        1 C13     -0.121000
     13 CAN       -53.7880   22.2360  105.4110 c3        1 C13     -0.041000
     14 CAO       -54.5060   26.4700  106.8950 c3        1 C13      0.012000
     15 NAP       -53.6570   25.2310  106.9060 n4        1 C13     -0.040000
     16 NAQ       -52.8700   22.9020  104.5170 n         1 C13     -0.372000
     17 NAR       -52.8940   24.1520  102.4270 n         1 C13     -0.336000
     18 CAS       -53.3640   23.9660  103.7230 c2        1 C13      0.375000
     19 CAT       -50.0850   21.8700  102.6090 c1        1 C13     -0.223500
     20 CAU       -50.8980   24.8250  108.8700 c1        1 C13     -0.223500
     21 CAV       -53.7180   27.6640  106.9910 c1        1 C13     -0.291000
     22 CAW       -53.1420   25.3990  101.7370 c3        1 C13      0.076000
     23 HAD        -1.3740    0.4490    6.1140 ha        1 C13      0.000000
     24 HAE       -50.4110   27.8980  101.8110 ha        1 C13      0.234000
     25 HAF        -2.0410    0.3390    6.0950 ha        1 C13      0.000000
     26 HAG       -53.3320   25.1330  100.6510 h1        1 C13      0.136000
     27 HAH       -54.0820   25.8710  102.1560 h1        1 C13      0.136000
     28 HAI       -51.8670   20.9730  101.5470 ha        1 C13      0.247500
     29 HAJ       -52.5920   29.6230  107.1200 ha        1 C13      0.252000
     30 HAK       -52.0140   26.0950  110.3720 ha        1 C13      0.247500
     31 HAL       -52.9450   25.2910  107.6450 hn        1 C13      0.257000
     32 HALA      -52.6700   22.7840  107.2230 hc        1 C13      0.124000
     33 HAM       -54.2360   21.9230  107.4890 hc        1 C13      0.124000
     34 HAMA      -55.3560   24.0790  106.3710 hx        1 C13      0.145000
     35 HAN       -53.5380   21.1350  105.4130 h1        1 C13      0.111500
     36 HANA      -54.8490   22.3500  105.0420 h1        1 C13      0.111500
     37 HAO       -54.8920   24.0390  108.1520 hx        1 C13      0.145000
     38 HAOA      -55.0920   26.4590  105.9220 hx        1 C13      0.163000
     39 HNAP      -55.2290   26.4090  107.7630 hx        1 C13      0.163000
     40 HNAQ      522.1310 -233.8970 -966.1580 ha        1 C13      0.300000
     41 HNAR      -52.0930   23.6370  102.1270 hn        1 C13      0.237000
     42 HAP2      -53.1790   25.1650  105.9920 hn        1 C13      0.257000
     43 HAQ2      -52.2040   22.2920  104.0850 hn        1 C13      0.227000
     44 CLB       -48.7980   22.4790  103.3290 cl        1 C13      0.181500
@<TRIPOS>BOND
     1    1   18 1   
     2    2   20 1   
     3    3    5 1   
     4    4    6 1   
     5    4   24 1   
     6    5    7 1   
     7    6   22 1   
     8    7   40 1   
     9    8   19 1   
    10    8   28 1   
    11    9   21 1   
    12    9   29 1   
    13   10   20 1   
    14   10   30 1   
    15   11   12 1   
    16   11   13 1   
    17   11   32 1   
    18   11   33 1   
    19   12   15 1   
    20   12   34 1   
    21   12   37 1   
    22   13   16 1   
    23   13   35 1   
    24   13   36 1   
    25   14   15 1   
    26   14   21 1   
    27   14   38 1   
    28   14   39 1   
    29   15   31 1   
    30   15   42 1   
    31   16   18 1   
    32   16   43 1   
    33   17   18 1   
    34   17   22 1   
    35   17   41 1   
    36   19   44 1   
    37   22   26 1   
    38   22   27 1   
    39   23   25 1   
@<TRIPOS>SUBSTRUCTURE
     1 C13         1 TEMP              0 ****  ****    0 ROOT
