@<TRIPOS>MOLECULE
C14
   44    43     1     0     0
SMALL
bcc


@<TRIPOS>ATOM
      1 C01        -0.3300   -0.0040    8.1250 c3        1 C14     -0.092100
      2 C02         0.5020    0.0050    6.8690 c3        1 C14     -0.080400
      3 C03        -0.3640   -0.0040    5.6280 c3        1 C14     -0.079400
      4 C04         0.4760    0.0050    4.3690 c3        1 C14     -0.079400
      5 C05        -0.3920   -0.0040    3.1290 c3        1 C14     -0.079400
      6 C06         0.4480    0.0050    1.8690 c3        1 C14     -0.079400
      7 C07        -0.4200   -0.0050    0.6290 c3        1 C14     -0.079400
      8 C08         0.4200    0.0050   -0.6290 c3        1 C14     -0.079400
      9 C09        -0.4480   -0.0050   -1.8690 c3        1 C14     -0.079400
     10 C10         0.3920    0.0040   -3.1290 c3        1 C14     -0.079400
     11 C11        -0.4760   -0.0050   -4.3690 c3        1 C14     -0.079400
     12 C12         0.3640    0.0040   -5.6280 c3        1 C14     -0.079400
     13 C13        -0.5020   -0.0050   -6.8690 c3        1 C14     -0.080400
     14 C14         0.3300    0.0040   -8.1250 c3        1 C14     -0.092100
     15 H011        0.3290    0.0040    9.0270 hc        1 C14      0.032700
     16 H012       -0.9930    0.8940    8.1650 hc        1 C14      0.032700
     17 H013       -0.9730   -0.9150    8.1650 hc        1 C14      0.032700
     18 H021        1.1600    0.9150    6.8590 hc        1 C14      0.038700
     19 H022        1.1790   -0.8900    6.8590 hc        1 C14      0.038700
     20 H031       -1.0210   -0.9140    5.6350 hc        1 C14      0.039700
     21 H032       -1.0410    0.8910    5.6350 hc        1 C14      0.039700
     22 H041        1.1320    0.9150    4.3610 hc        1 C14      0.039700
     23 H042        1.1520   -0.8900    4.3610 hc        1 C14      0.039700
     24 H051       -1.0490   -0.9140    3.1360 hc        1 C14      0.039700
     25 H052       -1.0690    0.8910    3.1360 hc        1 C14      0.039700
     26 H061        1.1040    0.9150    1.8620 hc        1 C14      0.039700
     27 H062        1.1240   -0.8900    1.8620 hc        1 C14      0.039700
     28 H071       -1.0770   -0.9140    0.6370 hc        1 C14      0.039700
     29 H072       -1.0960    0.8910    0.6370 hc        1 C14      0.039700
     30 H081        1.0770    0.9140   -0.6370 hc        1 C14      0.039700
     31 H082        1.0960   -0.8910   -0.6370 hc        1 C14      0.039700
     32 H091       -1.1040   -0.9150   -1.8620 hc        1 C14      0.039700
     33 H092       -1.1240    0.8900   -1.8620 hc        1 C14      0.039700
     34 H101        1.0490    0.9140   -3.1360 hc        1 C14      0.039700
     35 H102        1.0690   -0.8910   -3.1360 hc        1 C14      0.039700
     36 H111       -1.1320   -0.9150   -4.3610 hc        1 C14      0.039700
     37 H112       -1.1520    0.8900   -4.3610 hc        1 C14      0.039700
     38 H121        1.0210    0.9140   -5.6350 hc        1 C14      0.039700
     39 H122        1.0410   -0.8910   -5.6350 hc        1 C14      0.039700
     40 H131       -1.1600   -0.9150   -6.8590 hc        1 C14      0.038700
     41 H132       -1.1790    0.8900   -6.8590 hc        1 C14      0.038700
     42 H141       -0.3290   -0.0040   -9.0270 hc        1 C14      0.032700
     43 H142        0.9730    0.9150   -8.1650 hc        1 C14      0.032700
     44 H143        0.9930   -0.8940   -8.1650 hc        1 C14      0.032700
@<TRIPOS>BOND
     1    1    2 1   
     2    1   15 1   
     3    1   16 1   
     4    1   17 1   
     5    2    3 1   
     6    2   18 1   
     7    2   19 1   
     8    3    4 1   
     9    3   20 1   
    10    3   21 1   
    11    4    5 1   
    12    4   22 1   
    13    4   23 1   
    14    5    6 1   
    15    5   24 1   
    16    5   25 1   
    17    6    7 1   
    18    6   26 1   
    19    6   27 1   
    20    7    8 1   
    21    7   28 1   
    22    7   29 1   
    23    8    9 1   
    24    8   30 1   
    25    8   31 1   
    26    9   10 1   
    27    9   32 1   
    28    9   33 1   
    29   10   11 1   
    30   10   34 1   
    31   10   35 1   
    32   11   12 1   
    33   11   36 1   
    34   11   37 1   
    35   12   13 1   
    36   12   38 1   
    37   12   39 1   
    38   13   14 1   
    39   13   40 1   
    40   13   41 1   
    41   14   42 1   
    42   14   43 1   
    43   14   44 1   
@<TRIPOS>SUBSTRUCTURE
     1 C14         1 TEMP              0 ****  ****    0 ROOT
