@<TRIPOS>MOLECULE
C14
   44    43     1     0     0
SMALL
bcc


@<TRIPOS>ATOM
      1 C01        -6.8080    0.0060   -4.2790 c3        1 C14     -0.092100
      2 C02        -5.2950    0.0060   -4.2790 c3        1 C14     -0.080400
      3 C03        -4.7910    0.0060   -2.8530 c3        1 C14     -0.079400
      4 C04        -3.2780   -0.0010   -2.8530 c3        1 C14     -0.079400
      5 C05        -2.7740    0.0070   -1.4260 c3        1 C14     -0.079400
      6 C06        -1.2610   -0.0060   -1.4260 c3        1 C14     -0.079400
      7 C07        -0.7560    0.0090   -0.0000 c3        1 C14     -0.079400
      8 C08         0.7560   -0.0110    0.0000 c3        1 C14     -0.079400
      9 C09         1.2610    0.0110    1.4260 c3        1 C14     -0.079400
     10 C10         2.7740   -0.0140    1.4260 c3        1 C14     -0.079400
     11 C11         3.2780    0.0120    2.8530 c3        1 C14     -0.079400
     12 C12         4.7910   -0.0160    2.8530 c3        1 C14     -0.079400
     13 C13         5.2950    0.0120    4.2790 c3        1 C14     -0.080400
     14 C14         6.8080   -0.0170    4.2790 c3        1 C14     -0.092100
     15 H011       -7.1330   -0.7930   -3.8210 hc        1 C14      0.032700
     16 H012       -7.1330    0.0080   -5.1990 hc        1 C14      0.032700
     17 H013       -7.1330    0.8010   -3.8170 hc        1 C14      0.032700
     18 H021       -4.9700   -0.7910   -4.7390 hc        1 C14      0.038700
     19 H022       -4.9700    0.8030   -4.7390 hc        1 C14      0.038700
     20 H031       -5.1200   -0.7890   -2.3910 hc        1 C14      0.039700
     21 H032       -5.1130    0.8050   -2.3940 hc        1 C14      0.039700
     22 H041       -2.9490    0.7910   -3.3190 hc        1 C14      0.039700
     23 H042       -2.9560   -0.8030   -3.3070 hc        1 C14      0.039700
     24 H051       -3.0920    0.8110   -0.9730 hc        1 C14      0.039700
     25 H052       -3.1060   -0.7830   -0.9590 hc        1 C14      0.039700
     26 H061       -0.9420   -0.8120   -1.8750 hc        1 C14      0.039700
     27 H062       -0.9280    0.7820   -1.8970 hc        1 C14      0.039700
     28 H071       -1.0920   -0.7760    0.4720 hc        1 C14      0.039700
     29 H072       -1.0710    0.8170    0.4480 hc        1 C14      0.039700
     30 H081        1.0920    0.7730   -0.4760 hc        1 C14      0.039700
     31 H082        1.0710   -0.8210   -0.4440 hc        1 C14      0.039700
     32 H091        0.9480    0.8220    1.8700 hc        1 C14      0.039700
     33 H092        0.9230   -0.7710    1.9030 hc        1 C14      0.039700
     34 H101        3.1120    0.7670    0.9480 hc        1 C14      0.039700
     35 H102        3.0860   -0.8270    0.9850 hc        1 C14      0.039700
     36 H111        2.9380   -0.7680    3.3320 hc        1 C14      0.039700
     37 H112        2.9670    0.8250    3.2930 hc        1 C14      0.039700
     38 H121        5.1010   -0.8300    2.4130 hc        1 C14      0.039700
     39 H122        5.1300    0.7630    2.3720 hc        1 C14      0.039700
     40 H131        4.9850    0.8270    4.7180 hc        1 C14      0.038700
     41 H132        4.9550   -0.7670    4.7600 hc        1 C14      0.038700
     42 H141        7.1180   -0.8320    3.8400 hc        1 C14      0.032700
     43 H142        7.1480    0.7620    3.7980 hc        1 C14      0.032700
     44 H143        7.1330    0.0020    5.1990 hc        1 C14      0.032700
@<TRIPOS>BOND
     1    1    2 1   
     2    1   15 1   
     3    1   16 1   
     4    1   17 1   
     5    2    3 1   
     6    2   18 1   
     7    2   19 1   
     8    3    4 1   
     9    3   20 1   
    10    3   21 1   
    11    4    5 1   
    12    4   22 1   
    13    4   23 1   
    14    5    6 1   
    15    5   24 1   
    16    5   25 1   
    17    6    7 1   
    18    6   26 1   
    19    6   27 1   
    20    7    8 1   
    21    7   28 1   
    22    7   29 1   
    23    8    9 1   
    24    8   30 1   
    25    8   31 1   
    26    9   10 1   
    27    9   32 1   
    28    9   33 1   
    29   10   11 1   
    30   10   34 1   
    31   10   35 1   
    32   11   12 1   
    33   11   36 1   
    34   11   37 1   
    35   12   13 1   
    36   12   38 1   
    37   12   39 1   
    38   13   14 1   
    39   13   40 1   
    40   13   41 1   
    41   14   42 1   
    42   14   43 1   
    43   14   44 1   
@<TRIPOS>SUBSTRUCTURE
     1 C14         1 TEMP              0 ****  ****    0 ROOT
