@<TRIPOS>MOLECULE
C15
   59    58     1     0     0
SMALL
bcc


@<TRIPOS>ATOM
      1 C1          1.2250   -7.5030   -4.9490 c3        1 C15     -0.306600
      2 C2          2.3450   -6.6720   -4.3900 c3        1 C15     -0.039400
      3 C3          3.6700   -7.0110   -5.0750 c3        1 C15      0.100800
      4 C5         -3.2200    4.2970   -3.8900 c3        1 C15     -0.093100
      5 C6         -1.8390    3.7460   -4.1350 c3        1 C15     -0.079400
      6 C7         -1.8840    2.4860   -4.9730 c3        1 C15     -0.079400
      7 C8         -0.4950    1.9370   -5.2170 c3        1 C15     -0.078400
      8 N1          4.4530   -5.8440   -5.6380 n4        1 C15     -0.588800
      9 C1N         4.7490   -4.8650   -4.5610 c3        1 C15      0.090600
     10 C2N         5.7330   -6.3870   -6.1780 c3        1 C15      0.090600
     11 C9         -0.5420    0.6760   -6.0550 c3        1 C15     -0.080400
     12 C10         0.8470    0.1260   -6.2990 c3        1 C15     -0.076400
     13 C11         0.7970   -1.1350   -7.1340 c3        1 C15     -0.083400
     14 C12         2.1850   -1.6860   -7.3830 c3        1 C15     -0.069400
     15 C13         2.1230   -2.9640   -8.1900 c3        1 C15     -0.109400
     16 C14         3.4910   -3.4950   -8.5590 c3        1 C15     -0.067400
     17 C15         4.3220   -3.9720   -7.3810 c3        1 C15     -0.088400
     18 C16         3.6700   -5.1910   -6.7510 c3        1 C15      0.062800
     19 S1          0.7860   -7.0800   -6.6330 s6        1 C15      1.435800
     20 O1S         1.9370   -7.4980   -7.3670 o         1 C15     -0.744533
     21 O2S         0.7140   -5.6610   -6.6110 o         1 C15     -0.744533
     22 O3S        -0.4000   -7.7680   -6.8930 o         1 C15     -0.744533
     23 H1C1        0.3200   -7.3630   -4.3080 h1        1 C15      0.086700
     24 H1C2        1.4820   -8.5880   -4.9040 h1        1 C15      0.086700
     25 H2C1        2.4650   -6.8640   -3.2910 hc        1 C15      0.053200
     26 H2C2        2.0670   -5.5880   -4.5020 hc        1 C15      0.053200
     27 H3C1        3.4780   -7.7130   -5.9470 hx        1 C15      0.107700
     28 H3C2        4.3490   -7.5210   -4.3350 hx        1 C15      0.107700
     29 H5C1       -3.8530    3.5500   -3.3510 hc        1 C15      0.032700
     30 H5C2       -3.7220    4.5470   -4.8560 hc        1 C15      0.032700
     31 H5C3       -3.1650    5.2240   -3.2710 hc        1 C15      0.032700
     32 H6C1       -1.3420    3.5250   -3.1540 hc        1 C15      0.036700
     33 H6C2       -1.2120    4.5180   -4.6550 hc        1 C15      0.036700
     34 H7C1       -2.5090    1.7120   -4.4540 hc        1 C15      0.041200
     35 H7C2       -2.3790    2.7060   -5.9550 hc        1 C15      0.041200
     36 H8C1        0.1300    2.7100   -5.7360 hc        1 C15      0.036700
     37 H8C2        0.0000    1.7170   -4.2350 hc        1 C15      0.036700
     38 HCN1        3.7950   -4.3750   -4.2310 hx        1 C15      0.086867
     39 HCN2        5.2170   -5.3970   -3.6920 hx        1 C15      0.086867
     40 HCN3        5.4540   -4.0820   -4.9450 hx        1 C15      0.086867
     41 HCN4        5.5030   -7.0900   -7.0230 hx        1 C15      0.086867
     42 HCN5        6.3730   -5.5470   -6.5520 hx        1 C15      0.086867
     43 HCN6        6.2790   -6.9370   -5.3670 hx        1 C15      0.086867
     44 H9C1       -1.1670   -0.0980   -5.5360 hc        1 C15      0.043200
     45 H9C2       -1.0370    0.8960   -7.0370 hc        1 C15      0.043200
     46 H101        1.3420   -0.0920   -5.3170 hc        1 C15      0.032700
     47 H102        1.4710    0.8990   -6.8200 hc        1 C15      0.032700
     48 H111        0.2990   -0.9170   -8.1150 hc        1 C15      0.051700
     49 H112        0.1750   -1.9120   -6.6140 hc        1 C15      0.051700
     50 H121        2.6870   -1.8800   -6.3990 hc        1 C15      0.024700
     51 H122        2.8030   -0.9210   -7.9240 hc        1 C15      0.024700
     52 H131        1.5350   -3.7450   -7.6300 hc        1 C15      0.078200
     53 H132        1.5610   -2.7640   -9.1430 hc        1 C15      0.078200
     54 H141        3.3620   -4.3450   -9.2820 hc        1 C15      0.048700
     55 H142        4.0730   -2.6900   -9.0850 hc        1 C15      0.048700
     56 H151        5.3530   -4.2160   -7.7530 hc        1 C15      0.037700
     57 H152        4.4170   -3.1430   -6.6310 hc        1 C15      0.037700
     58 H161        2.6560   -4.8940   -6.3320 hx        1 C15      0.158200
     59 H162        3.4690   -5.9900   -7.5330 hx        1 C15      0.158200
@<TRIPOS>BOND
     1    1    2 1   
     2    1   19 1   
     3    1   23 1   
     4    1   24 1   
     5    2    3 1   
     6    2   25 1   
     7    2   26 1   
     8    3    8 1   
     9    3   27 1   
    10    3   28 1   
    11    4    5 1   
    12    4   29 1   
    13    4   30 1   
    14    4   31 1   
    15    5    6 1   
    16    5   32 1   
    17    5   33 1   
    18    6    7 1   
    19    6   34 1   
    20    6   35 1   
    21    7   11 1   
    22    7   36 1   
    23    7   37 1   
    24    8    9 1   
    25    8   10 1   
    26    8   18 1   
    27    9   38 1   
    28    9   39 1   
    29    9   40 1   
    30   10   41 1   
    31   10   42 1   
    32   10   43 1   
    33   11   12 1   
    34   11   44 1   
    35   11   45 1   
    36   12   13 1   
    37   12   46 1   
    38   12   47 1   
    39   13   14 1   
    40   13   48 1   
    41   13   49 1   
    42   14   15 1   
    43   14   50 1   
    44   14   51 1   
    45   15   16 1   
    46   15   52 1   
    47   15   53 1   
    48   16   17 1   
    49   16   54 1   
    50   16   55 1   
    51   17   18 1   
    52   17   56 1   
    53   17   57 1   
    54   18   58 1   
    55   18   59 1   
    56   19   20 1   
    57   19   21 1   
    58   19   22 1   
@<TRIPOS>SUBSTRUCTURE
     1 C15         1 TEMP              0 ****  ****    0 ROOT
