@<TRIPOS>MOLECULE
C15
   59    58     1     0     0
SMALL
bcc


@<TRIPOS>ATOM
      1 C1          0.2020   -0.2640    0.0830 c3        1 C15     -0.306600
      2 C2          1.3350    0.7120    0.2380 c3        1 C15     -0.039400
      3 C3          2.0990    0.4580    1.5380 c3        1 C15      0.100800
      4 C5          5.8210    0.5700  -11.2260 c3        1 C15     -0.093100
      5 C6          6.3360    0.7250   -9.8180 c3        1 C15     -0.079400
      6 C7          5.6300   -0.2130   -8.8620 c3        1 C15     -0.079400
      7 C8          6.1500   -0.0540   -7.4490 c3        1 C15     -0.078400
      8 N1          3.6010    0.3050    1.4150 n4        1 C15     -0.588800
      9 C1N         4.1840    1.5200    0.7880 c3        1 C15      0.090600
     10 C2N         4.1460    0.1520    2.7950 c3        1 C15      0.090600
     11 C9          5.4430   -0.9930   -6.4950 c3        1 C15     -0.080400
     12 C10         5.9620   -0.8350   -5.0820 c3        1 C15     -0.076400
     13 C11         5.2520   -1.7720   -4.1290 c3        1 C15     -0.083400
     14 C12         5.7720   -1.6190   -2.7160 c3        1 C15     -0.069400
     15 C13         5.0330   -2.5360   -1.7650 c3        1 C15     -0.109400
     16 C14         5.5920   -2.4990   -0.3590 c3        1 C15     -0.067400
     17 C15         5.4060   -1.1750    0.3610 c3        1 C15     -0.088400
     18 C16         3.9270   -0.9230    0.6010 c3        1 C15      0.062800
     19 S1          0.7380   -1.9440   -0.2310 s6        1 C15      1.435800
     20 O1S         1.3530   -2.3080    1.0040 o         1 C15     -0.744867
     21 O2S         1.7280   -1.7930   -1.2390 o         1 C15     -0.744867
     22 O3S        -0.4170   -2.6440   -0.5800 o         1 C15     -0.744867
     23 H1C1       -0.4380    0.0630   -0.7730 h1        1 C15      0.086700
     24 H1C2       -0.4490   -0.2550    0.9890 h1        1 C15      0.086700
     25 H2C1        1.9920    0.6330   -0.6710 hc        1 C15      0.053200
     26 H2C2        0.9450    1.7640    0.2660 hc        1 C15      0.053200
     27 H3C1        1.7240   -0.5000    2.0190 hx        1 C15      0.107700
     28 H3C2        1.9250    1.3180    2.2440 hx        1 C15      0.107700
     29 H5C1        4.7280    0.7940  -11.2720 hc        1 C15      0.032700
     30 H5C2        6.3540    1.2700  -11.9130 hc        1 C15      0.032700
     31 H5C3        5.9810   -0.4730  -11.5910 hc        1 C15      0.032700
     32 H6C1        6.1900    1.7840   -9.4780 hc        1 C15      0.036700
     33 H6C2        7.4390    0.5210   -9.7950 hc        1 C15      0.036700
     34 H7C1        4.5270   -0.0090   -8.8820 hc        1 C15      0.041200
     35 H7C2        5.7760   -1.2730   -9.2000 hc        1 C15      0.041200
     36 H8C1        6.0040    1.0060   -7.1120 hc        1 C15      0.036700
     37 H8C2        7.2530   -0.2580   -7.4290 hc        1 C15      0.036700
     38 HCN1        3.8610    1.5750   -0.2850 hx        1 C15      0.086867
     39 HCN2        3.8260    2.4310    1.3350 hx        1 C15      0.086867
     40 HCN3        5.3030    1.4690    0.8360 hx        1 C15      0.086867
     41 HCN4        3.8400    1.0310    3.4190 hx        1 C15      0.086867
     42 HCN5        5.2650    0.0960    2.7560 hx        1 C15      0.086867
     43 HCN6        3.7370   -0.7930    3.2440 hx        1 C15      0.086867
     44 H9C1        5.5890   -2.0530   -6.8320 hc        1 C15      0.043200
     45 H9C2        4.3400   -0.7890   -6.5140 hc        1 C15      0.043200
     46 H101        5.8180    0.2250   -4.7450 hc        1 C15      0.032700
     47 H102        7.0650   -1.0410   -5.0610 hc        1 C15      0.032700
     48 H111        4.1480   -1.5660   -4.1450 hc        1 C15      0.051700
     49 H112        5.3940   -2.8320   -4.4680 hc        1 C15      0.051700
     50 H121        6.8710   -1.8470   -2.6910 hc        1 C15      0.024700
     51 H122        5.6490   -0.5520   -2.3910 hc        1 C15      0.024700
     52 H131        3.9360   -2.2810   -1.7600 hc        1 C15      0.078200
     53 H132        5.1150   -3.5910   -2.1430 hc        1 C15      0.078200
     54 H141        5.1010   -3.3120    0.2410 hc        1 C15      0.048700
     55 H142        6.6930   -2.7200   -0.3900 hc        1 C15      0.048700
     56 H151        5.8510   -0.3500   -0.2550 hc        1 C15      0.037700
     57 H152        5.9680   -1.2190    1.3310 hc        1 C15      0.037700
     58 H161        3.4470   -1.8090    1.1250 hx        1 C15      0.158200
     59 H162        3.4000   -0.8240   -0.4010 hx        1 C15      0.158200
@<TRIPOS>BOND
     1    1    2 1   
     2    1   19 1   
     3    1   23 1   
     4    1   24 1   
     5    2    3 1   
     6    2   25 1   
     7    2   26 1   
     8    3    8 1   
     9    3   27 1   
    10    3   28 1   
    11    4    5 1   
    12    4   29 1   
    13    4   30 1   
    14    4   31 1   
    15    5    6 1   
    16    5   32 1   
    17    5   33 1   
    18    6    7 1   
    19    6   34 1   
    20    6   35 1   
    21    7   11 1   
    22    7   36 1   
    23    7   37 1   
    24    8    9 1   
    25    8   10 1   
    26    8   18 1   
    27    9   38 1   
    28    9   39 1   
    29    9   40 1   
    30   10   41 1   
    31   10   42 1   
    32   10   43 1   
    33   11   12 1   
    34   11   44 1   
    35   11   45 1   
    36   12   13 1   
    37   12   46 1   
    38   12   47 1   
    39   13   14 1   
    40   13   48 1   
    41   13   49 1   
    42   14   15 1   
    43   14   50 1   
    44   14   51 1   
    45   15   16 1   
    46   15   52 1   
    47   15   53 1   
    48   16   17 1   
    49   16   54 1   
    50   16   55 1   
    51   17   18 1   
    52   17   56 1   
    53   17   57 1   
    54   18   58 1   
    55   18   59 1   
    56   19   20 1   
    57   19   21 1   
    58   19   22 1   
@<TRIPOS>SUBSTRUCTURE
     1 C15         1 TEMP              0 ****  ****    0 ROOT
