@<TRIPOS>MOLECULE
C15
   59    57     1     0     0
SMALL
bcc


@<TRIPOS>ATOM
      1 C1         -7.7320   -2.7200    0.8740 c3        1 C15     -0.341100
      2 C2         -6.2340   -3.0330    0.8590 c3        1 C15     -0.039400
      3 C3         -5.4390   -1.7730    0.4040 c3        1 C15      0.099800
      4 C5          9.6690    4.1770   -0.9360 c3        1 C15     -0.093100
      5 C6          8.1880    4.3500   -1.2440 c3        1 C15     -0.080400
      6 C7          7.4030    3.1830   -0.6430 c3        1 C15     -0.079400
      7 C8          5.9410    3.2750   -1.0720 c3        1 C15     -0.079400
      8 N1         -3.9890   -2.0620    0.4520 n4        1 C15     -0.587800
      9 C1N        -3.5880   -2.2840    1.8200 c3        1 C15      0.071100
     10 C2N        -3.7090   -3.2280   -0.3220 c3        1 C15      0.071100
     11 C9          5.1040    2.2350   -0.2840 c3        1 C15     -0.078400
     12 C10         3.6680    2.2060   -0.8430 c3        1 C15     -0.079400
     13 C11         2.8080    1.1820   -0.0290 c3        1 C15     -0.078400
     14 C12         1.3970    1.0800   -0.6560 c3        1 C15     -0.079400
     15 C13         0.5400    0.1160    0.1680 c3        1 C15     -0.078400
     16 C14        -0.8950    0.0470   -0.4380 c3        1 C15     -0.080400
     17 C15        -1.6960   -1.0380    0.2760 c3        1 C15     -0.099400
     18 C16        -3.2320   -0.9030   -0.1050 c3        1 C15      0.110800
     19 S1         -8.6360   -4.1790    1.3600 s4        1 C15      1.654500
     20 O1S        -8.8330   -5.1170    0.1900 o         1 C15     -0.658400
     21 O2S       -10.0680   -3.8470    1.7140 o         1 C15     -0.658400
     22 O3S        -7.9340   -4.8710    2.5060 os        1 C15     -1.102000
     23 H1C1       -7.9100   -1.9980    1.5130 h1        1 C15      0.086200
     24 H1C2       -8.0160   -2.4440   -0.0170 h1        1 C15      0.086200
     25 H2C1       -5.9450   -3.2940    1.7620 hc        1 C15      0.053200
     26 H2C2       -6.0630   -3.7630    0.2420 hc        1 C15      0.053200
     27 H3C1       -5.6970   -1.5380   -0.5150 hx        1 C15      0.107700
     28 H3C2       -5.6430   -1.0200    1.0050 hx        1 C15      0.107700
     29 H5C1       10.1730    4.9410   -1.3060 hc        1 C15      0.033033
     30 H5C2        9.9960    3.3370   -1.3460 hc        1 C15      0.033033
     31 H5C3        9.7990    4.1400    0.0290 hc        1 C15      0.033033
     32 H6C1        7.8730    5.1850   -0.8580 hc        1 C15      0.038700
     33 H6C2        8.0550    4.3680   -2.2200 hc        1 C15      0.038700
     34 H7C1        7.4580    3.2220    0.3330 hc        1 C15      0.039700
     35 H7C2        7.7850    2.3360   -0.9590 hc        1 C15      0.039700
     36 H8C1        5.6030    4.1710   -0.8870 hc        1 C15      0.040200
     37 H8C2        5.8700    3.0920   -2.0330 hc        1 C15      0.040200
     38 HCN1       -2.6420   -2.5710    1.8440 hx        1 C15      0.103867
     39 HCN2       -3.6920   -1.4460    2.3350 hx        1 C15      0.103867
     40 HCN3       -4.1540   -2.9850    2.2190 hx        1 C15      0.103867
     41 HCN4       -4.0150   -4.0250    0.1660 hx        1 C15      0.103867
     42 HCN5       -2.7430   -3.2920   -0.4800 hx        1 C15      0.103867
     43 HCN6       -4.1770   -3.1700   -1.1780 hx        1 C15      0.103867
     44 H9C1        5.0820    2.4850    0.6580 hc        1 C15      0.040200
     45 H9C2        5.5080    1.3540   -0.3770 hc        1 C15      0.040200
     46 H101        3.6900    1.9390   -1.7810 hc        1 C15      0.040700
     47 H102        3.2680    3.1040   -0.7660 hc        1 C15      0.040700
     48 H111        2.7300    1.4850    0.8990 hc        1 C15      0.041200
     49 H112        3.2390    0.3020   -0.0510 hc        1 C15      0.041200
     50 H121        1.4700    0.7500   -1.5690 hc        1 C15      0.043700
     51 H122        0.9830    1.9570   -0.6620 hc        1 C15      0.043700
     52 H131        0.9470   -0.7800    0.1520 hc        1 C15      0.043700
     53 H132        0.4890    0.4340    1.0910 hc        1 C15      0.043700
     54 H141       -0.8370   -0.1660   -1.3930 hc        1 C15      0.051700
     55 H142       -1.3390    0.9070   -0.3230 hc        1 C15      0.051700
     56 H151       -1.3690   -1.9170    0.0020 hc        1 C15      0.058200
     57 H152       -1.5900   -0.9390    1.2300 hc        1 C15      0.058200
     58 H161       -3.5920   -0.0640    0.2710 hx        1 C15      0.097200
     59 H162       -3.3270   -0.8900   -1.0820 hx        1 C15      0.097200
@<TRIPOS>BOND
     1    1    2 1   
     2    1   19 1   
     3    1   23 1   
     4    1   24 1   
     5    2    3 1   
     6    2   25 1   
     7    2   26 1   
     8    3    8 1   
     9    3   27 1   
    10    3   28 1   
    11    4    5 1   
    12    4   29 1   
    13    4   30 1   
    14    4   31 1   
    15    5    6 1   
    16    5   32 1   
    17    5   33 1   
    18    6    7 1   
    19    6   34 1   
    20    6   35 1   
    21    7   11 1   
    22    7   36 1   
    23    7   37 1   
    24    8    9 1   
    25    8   10 1   
    26    8   18 1   
    27    9   38 1   
    28    9   39 1   
    29    9   40 1   
    30   10   41 1   
    31   10   42 1   
    32   10   43 1   
    33   11   12 1   
    34   11   44 1   
    35   11   45 1   
    36   12   13 1   
    37   12   46 1   
    38   12   47 1   
    39   13   14 1   
    40   13   48 1   
    41   13   49 1   
    42   14   15 1   
    43   14   50 1   
    44   14   51 1   
    45   15   16 1   
    46   15   52 1   
    47   15   53 1   
    48   16   17 1   
    49   16   54 1   
    50   16   55 1   
    51   17   18 1   
    52   17   56 1   
    53   17   57 1   
    54   18   58 1   
    55   18   59 1   
    56   19   20 1   
    57   19   21 1   
@<TRIPOS>SUBSTRUCTURE
     1 C15         1 TEMP              0 ****  ****    0 ROOT
