@<TRIPOS>MOLECULE
C15
   59    58     1     0     0
SMALL
bcc


@<TRIPOS>ATOM
      1 C1          0.1960   -0.3980    0.0760 c3        1 C15     -0.306600
      2 C2          1.2920    0.6200    0.2270 c3        1 C15     -0.039400
      3 C3          2.0630    0.4020    1.5300 c3        1 C15      0.100800
      4 C5          5.7730    0.5720  -11.2310 c3        1 C15     -0.093100
      5 C6          6.2870    0.7510   -9.8260 c3        1 C15     -0.079400
      6 C7          5.6140   -0.2030   -8.8620 c3        1 C15     -0.079400
      7 C8          6.1330   -0.0210   -7.4520 c3        1 C15     -0.078400
      8 N1          3.5690    0.3040    1.4100 n4        1 C15     -0.588800
      9 C1N         4.1080    1.5360    0.7770 c3        1 C15      0.090600
     10 C2N         4.1170    0.1790    2.7910 c3        1 C15      0.090600
     11 C9          5.4590   -0.9750   -6.4900 c3        1 C15     -0.080400
     12 C10         5.9760   -0.7920   -5.0800 c3        1 C15     -0.076400
     13 C11         5.2990   -1.7460   -4.1200 c3        1 C15     -0.083400
     14 C12         5.8160   -1.5660   -2.7080 c3        1 C15     -0.069400
     15 C13         5.1100   -2.5020   -1.7510 c3        1 C15     -0.109400
     16 C14         5.6660   -2.4340   -0.3440 c3        1 C15     -0.067400
     17 C15         5.4290   -1.1130    0.3660 c3        1 C15     -0.088400
     18 C16         3.9410   -0.9150    0.6030 c3        1 C15      0.062800
     19 S1          0.7940   -2.0580   -0.2280 s6        1 C15      1.435800
     20 O1S         1.4200   -2.3930    1.0110 o         1 C15     -0.744867
     21 O2S         1.7790   -1.8770   -1.2350 o         1 C15     -0.744867
     22 O3S        -0.3340   -2.8030   -0.5740 o         1 C15     -0.744867
     23 H1C1       -0.4570   -0.4070    0.9820 h1        1 C15      0.086700
     24 H1C2       -0.4550   -0.1000   -0.7820 h1        1 C15      0.086700
     25 H2C1        1.9520    0.5610   -0.6810 hc        1 C15      0.053200
     26 H2C2        0.8620    1.6570    0.2490 hc        1 C15      0.053200
     27 H3C1        1.8550    1.2590    2.2310 hx        1 C15      0.107700
     28 H3C2        1.7220   -0.5660    2.0160 hx        1 C15      0.107700
     29 H5C1        4.6730    0.7600  -11.2750 hc        1 C15      0.032700
     30 H5C2        6.2810    1.2840  -11.9240 hc        1 C15      0.032700
     31 H5C3        5.9640   -0.4680  -11.5910 hc        1 C15      0.032700
     32 H6C1        6.1090    1.8070   -9.4910 hc        1 C15      0.036700
     33 H6C2        7.3960    0.5810   -9.8060 hc        1 C15      0.036700
     34 H7C1        5.7920   -1.2600   -9.1940 hc        1 C15      0.041200
     35 H7C2        4.5050   -0.0340   -8.8790 hc        1 C15      0.041200
     36 H8C1        5.9550    1.0360   -7.1200 hc        1 C15      0.036700
     37 H8C2        7.2420   -0.1900   -7.4350 hc        1 C15      0.036700
     38 HCN1        5.2280    1.5270    0.8270 hx        1 C15      0.086867
     39 HCN2        3.7150    2.4360    1.3170 hx        1 C15      0.086867
     40 HCN3        3.7850    1.5730   -0.2980 hx        1 C15      0.086867
     41 HCN4        5.2370    0.1650    2.7540 hx        1 C15      0.086867
     42 HCN5        3.7780    1.0500    3.4100 hx        1 C15      0.086867
     43 HCN6        3.7430   -0.7770    3.2460 hx        1 C15      0.086867
     44 H9C1        4.3490   -0.8070   -6.5080 hc        1 C15      0.043200
     45 H9C2        5.6370   -2.0320   -6.8220 hc        1 C15      0.043200
     46 H101        7.0850   -0.9620   -5.0610 hc        1 C15      0.033200
     47 H102        5.7990    0.2650   -4.7490 hc        1 C15      0.033200
     48 H111        5.4760   -2.8030   -4.4520 hc        1 C15      0.051700
     49 H112        4.1890   -1.5770   -4.1350 hc        1 C15      0.051700
     50 H121        5.6570   -0.5020   -2.3890 hc        1 C15      0.024700
     51 H122        6.9210   -1.7560   -2.6830 hc        1 C15      0.024700
     52 H131        4.0040   -2.2880   -1.7480 hc        1 C15      0.078200
     53 H132        5.2300   -3.5570   -2.1200 hc        1 C15      0.078200
     54 H141        5.2060   -3.2610    0.2610 hc        1 C15      0.048700
     55 H142        6.7740   -2.6140   -0.3740 hc        1 C15      0.048700
     56 H151        5.9920   -1.1290    1.3360 hc        1 C15      0.037700
     57 H152        5.8430   -0.2760   -0.2560 hc        1 C15      0.037700
     58 H161        3.4950   -1.8160    1.1330 hx        1 C15      0.158200
     59 H162        3.4120   -0.8420   -0.4000 hx        1 C15      0.158200
@<TRIPOS>BOND
     1    1    2 1   
     2    1   19 1   
     3    1   23 1   
     4    1   24 1   
     5    2    3 1   
     6    2   25 1   
     7    2   26 1   
     8    3    8 1   
     9    3   27 1   
    10    3   28 1   
    11    4    5 1   
    12    4   29 1   
    13    4   30 1   
    14    4   31 1   
    15    5    6 1   
    16    5   32 1   
    17    5   33 1   
    18    6    7 1   
    19    6   34 1   
    20    6   35 1   
    21    7   11 1   
    22    7   36 1   
    23    7   37 1   
    24    8    9 1   
    25    8   10 1   
    26    8   18 1   
    27    9   38 1   
    28    9   39 1   
    29    9   40 1   
    30   10   41 1   
    31   10   42 1   
    32   10   43 1   
    33   11   12 1   
    34   11   44 1   
    35   11   45 1   
    36   12   13 1   
    37   12   46 1   
    38   12   47 1   
    39   13   14 1   
    40   13   48 1   
    41   13   49 1   
    42   14   15 1   
    43   14   50 1   
    44   14   51 1   
    45   15   16 1   
    46   15   52 1   
    47   15   53 1   
    48   16   17 1   
    49   16   54 1   
    50   16   55 1   
    51   17   18 1   
    52   17   56 1   
    53   17   57 1   
    54   18   58 1   
    55   18   59 1   
    56   19   20 1   
    57   19   21 1   
    58   19   22 1   
@<TRIPOS>SUBSTRUCTURE
     1 C15         1 TEMP              0 ****  ****    0 ROOT
