@<TRIPOS>MOLECULE
C15
   59    58     1     0     0
SMALL
bcc


@<TRIPOS>ATOM
      1 C1          0.2020   -0.3800    0.0870 c3        1 C15     -0.306600
      2 C2          1.3060    0.6290    0.2380 c3        1 C15     -0.039400
      3 C3          2.0790    0.4020    1.5380 c3        1 C15      0.100800
      4 C5          5.7690    0.5950  -11.2290 c3        1 C15     -0.093100
      5 C6          6.2820    0.7680   -9.8230 c3        1 C15     -0.079400
      6 C7          5.6070   -0.1890   -8.8640 c3        1 C15     -0.079400
      7 C8          6.1250   -0.0110   -7.4520 c3        1 C15     -0.078400
      8 N1          3.5840    0.2930    1.4130 n4        1 C15     -0.588800
      9 C1N         4.1300    1.5230    0.7830 c3        1 C15      0.090600
     10 C2N         4.1350    0.1600    2.7930 c3        1 C15      0.090600
     11 C9          5.4490   -0.9690   -6.4950 c3        1 C15     -0.080400
     12 C10         5.9670   -0.7920   -5.0830 c3        1 C15     -0.076400
     13 C11         5.2870   -1.7480   -4.1270 c3        1 C15     -0.083400
     14 C12         5.8060   -1.5760   -2.7150 c3        1 C15     -0.069400
     15 C13         5.0960   -2.5120   -1.7610 c3        1 C15     -0.109400
     16 C14         5.6560   -2.4550   -0.3550 c3        1 C15     -0.067400
     17 C15         5.4310   -1.1350    0.3610 c3        1 C15     -0.088400
     18 C16         3.9450   -0.9270    0.6020 c3        1 C15      0.062800
     19 S1          0.7880   -2.0440   -0.2240 s6        1 C15      1.435800
     20 O1S         1.4140   -2.3870    1.0130 o         1 C15     -0.744867
     21 O2S         1.7710   -1.8670   -1.2330 o         1 C15     -0.744867
     22 O3S        -0.3460   -2.7790   -0.5690 o         1 C15     -0.744867
     23 H1C1       -0.4490   -0.0750   -0.7690 h1        1 C15      0.086700
     24 H1C2       -0.4480   -0.3880    0.9940 h1        1 C15      0.086700
     25 H2C1        1.9630    0.5680   -0.6720 hc        1 C15      0.053200
     26 H2C2        0.8840    1.6690    0.2640 hc        1 C15      0.053200
     27 H3C1        1.7320   -0.5660    2.0220 hx        1 C15      0.107700
     28 H3C2        1.8800    1.2580    2.2420 hx        1 C15      0.107700
     29 H5C1        4.6690    0.7850  -11.2740 hc        1 C15      0.032700
     30 H5C2        6.2790    1.3090  -11.9200 hc        1 C15      0.032700
     31 H5C3        5.9580   -0.4440  -11.5930 hc        1 C15      0.032700
     32 H6C1        6.1050    1.8230   -9.4850 hc        1 C15      0.036700
     33 H6C2        7.3910    0.5970   -9.8030 hc        1 C15      0.036700
     34 H7C1        4.4980   -0.0180   -8.8810 hc        1 C15      0.041200
     35 H7C2        5.7840   -1.2440   -9.1990 hc        1 C15      0.041200
     36 H8C1        5.9480    1.0440   -7.1170 hc        1 C15      0.036700
     37 H8C2        7.2340   -0.1820   -7.4350 hc        1 C15      0.036700
     38 HCN1        3.8050    1.5660   -0.2900 hx        1 C15      0.086867
     39 HCN2        3.7460    2.4240    1.3280 hx        1 C15      0.086867
     40 HCN3        5.2500    1.5060    0.8300 hx        1 C15      0.086867
     41 HCN4        3.8040    1.0310    3.4160 hx        1 C15      0.086867
     42 HCN5        5.2550    0.1380    2.7530 hx        1 C15      0.086867
     43 HCN6        3.7550   -0.7950    3.2460 hx        1 C15      0.086867
     44 H9C1        5.6260   -2.0240   -6.8300 hc        1 C15      0.043200
     45 H9C2        4.3400   -0.7980   -6.5120 hc        1 C15      0.043200
     46 H101        5.7910    0.2640   -4.7490 hc        1 C15      0.032700
     47 H102        7.0750   -0.9640   -5.0650 hc        1 C15      0.032700
     48 H111        4.1780   -1.5760   -4.1410 hc        1 C15      0.051700
     49 H112        5.4610   -2.8040   -4.4630 hc        1 C15      0.051700
     50 H121        6.9100   -1.7700   -2.6920 hc        1 C15      0.024700
     51 H122        5.6500   -0.5120   -2.3920 hc        1 C15      0.024700
     52 H131        3.9910   -2.2920   -1.7550 hc        1 C15      0.078200
     53 H132        5.2100   -3.5660   -2.1360 hc        1 C15      0.078200
     54 H141        5.1910   -3.2810    0.2480 hc        1 C15      0.048700
     55 H142        6.7630   -2.6430   -0.3880 hc        1 C15      0.048700
     56 H151        5.8510   -0.2990   -0.2580 hc        1 C15      0.037700
     57 H152        5.9950   -1.1600    1.3310 hc        1 C15      0.037700
     58 H161        3.4930   -1.8250    1.1290 hx        1 C15      0.158200
     59 H162        3.4140   -0.8460   -0.4000 hx        1 C15      0.158200
@<TRIPOS>BOND
     1    1    2 1   
     2    1   19 1   
     3    1   23 1   
     4    1   24 1   
     5    2    3 1   
     6    2   25 1   
     7    2   26 1   
     8    3    8 1   
     9    3   27 1   
    10    3   28 1   
    11    4    5 1   
    12    4   29 1   
    13    4   30 1   
    14    4   31 1   
    15    5    6 1   
    16    5   32 1   
    17    5   33 1   
    18    6    7 1   
    19    6   34 1   
    20    6   35 1   
    21    7   11 1   
    22    7   36 1   
    23    7   37 1   
    24    8    9 1   
    25    8   10 1   
    26    8   18 1   
    27    9   38 1   
    28    9   39 1   
    29    9   40 1   
    30   10   41 1   
    31   10   42 1   
    32   10   43 1   
    33   11   12 1   
    34   11   44 1   
    35   11   45 1   
    36   12   13 1   
    37   12   46 1   
    38   12   47 1   
    39   13   14 1   
    40   13   48 1   
    41   13   49 1   
    42   14   15 1   
    43   14   50 1   
    44   14   51 1   
    45   15   16 1   
    46   15   52 1   
    47   15   53 1   
    48   16   17 1   
    49   16   54 1   
    50   16   55 1   
    51   17   18 1   
    52   17   56 1   
    53   17   57 1   
    54   18   58 1   
    55   18   59 1   
    56   19   20 1   
    57   19   21 1   
    58   19   22 1   
@<TRIPOS>SUBSTRUCTURE
     1 C15         1 TEMP              0 ****  ****    0 ROOT
