@<TRIPOS>MOLECULE
C16
   30    32     1     0     0
SMALL
bcc


@<TRIPOS>ATOM
      1 N41        -1.3520   -0.0880   -2.3010 n1        1 C16     -0.366800
      2 C39        -0.7650   -0.0790   -1.2960 cg        1 C16      0.236800
      3 C32        -0.0490   -0.0680   -0.0690 ca        1 C16     -0.035000
      4 C30         1.2880   -0.4850   -0.0290 ca        1 C16     -0.076000
      5 C28         1.9920   -0.4790    1.1690 ca        1 C16     -0.149500
      6 C34        -0.6740    0.3600    1.1090 ca        1 C16     -0.076000
      7 C36         0.0230    0.3770    2.3110 ca        1 C16     -0.149500
      8 C26         1.3710   -0.0450    2.3620 ca        1 C16      0.085600
      9 N19         2.0810   -0.0340    3.5800 n         1 C16     -0.435600
     10 C21         1.4850   -0.1650    4.8760 c         1 C16      0.730100
     11 O23         0.2830   -0.3050    5.1040 o         1 C16     -0.558500
     12 C6          2.6000   -0.1000    5.8710 ca        1 C16     -0.136600
     13 C4          2.5660   -0.1770    7.2440 ca        1 C16     -0.065000
     14 C2          3.7930   -0.0810    7.9310 ca        1 C16     -0.110000
     15 C15         3.5020    0.1120    3.7000 c         1 C16      0.734100
     16 O17         4.2820    0.2460    2.7560 o         1 C16     -0.564500
     17 C8          3.8220    0.0700    5.1620 ca        1 C16     -0.146600
     18 C10         5.0280    0.1660    5.8320 ca        1 C16      0.005700
     19 C13         6.3270    0.3430    5.1480 c3        1 C16     -0.077800
     20 C1          4.9860    0.0860    7.2460 ca        1 C16     -0.121000
     21 H30         1.7870   -0.8230   -0.9500 ha        1 C16      0.148500
     22 H28         3.0460   -0.8050    1.1710 ha        1 C16      0.165000
     23 H34        -1.7250    0.6890    1.0870 ha        1 C16      0.148500
     24 H36        -0.4960    0.7100    3.2250 ha        1 C16      0.165000
     25 H4          1.6190   -0.3100    7.7890 ha        1 C16      0.162000
     26 H2          3.7940   -0.1400    9.0310 ha        1 C16      0.146000
     27 H13         6.8330    1.2700    5.5180 hc        1 C16      0.065033
     28 H13A        6.9950   -0.5290    5.3630 hc        1 C16      0.065033
     29 H13B        6.1970    0.4260    4.0400 hc        1 C16      0.065033
     30 H1          5.9340    0.1600    7.8030 ha        1 C16      0.146000
@<TRIPOS>BOND
     1    1    2 3   
     2    2    3 1   
     3    3    4 ar  
     4    3    6 ar  
     5    4    5 ar  
     6    4   21 1   
     7    5    8 ar  
     8    5   22 1   
     9    6    7 ar  
    10    6   23 1   
    11    7    8 ar  
    12    7   24 1   
    13    8    9 1   
    14    9   10 1   
    15    9   15 1   
    16   10   11 2   
    17   10   12 1   
    18   12   13 ar  
    19   12   17 ar  
    20   13   14 ar  
    21   13   25 1   
    22   14   20 ar  
    23   14   26 1   
    24   15   16 2   
    25   15   17 1   
    26   17   18 ar  
    27   18   19 1   
    28   18   20 ar  
    29   19   27 1   
    30   19   28 1   
    31   19   29 1   
    32   20   30 1   
@<TRIPOS>SUBSTRUCTURE
     1 C16         1 TEMP              0 ****  ****    0 ROOT
