@<TRIPOS>MOLECULE
C16
   30    32     1     0     0
SMALL
bcc


@<TRIPOS>ATOM
      1 N41        -1.3550   -0.0810   -2.2990 n1        1 C16     -0.366800
      2 C39        -0.7680   -0.0730   -1.2940 cg        1 C16      0.236800
      3 C32        -0.0510   -0.0640   -0.0680 ca        1 C16     -0.035000
      4 C30         1.2850   -0.4820   -0.0280 ca        1 C16     -0.076000
      5 C28         1.9900   -0.4780    1.1690 ca        1 C16     -0.149500
      6 C34        -0.6750    0.3650    1.1110 ca        1 C16     -0.076000
      7 C36         0.0220    0.3810    2.3120 ca        1 C16     -0.149500
      8 C26         1.3700   -0.0440    2.3630 ca        1 C16      0.085600
      9 N19         2.0800   -0.0340    3.5800 n         1 C16     -0.435600
     10 C21         1.4850   -0.1640    4.8760 c         1 C16      0.730100
     11 O23         0.2830   -0.3030    5.1050 o         1 C16     -0.558500
     12 C6          2.6010   -0.1000    5.8710 ca        1 C16     -0.136600
     13 C4          2.5670   -0.1780    7.2440 ca        1 C16     -0.065000
     14 C2          3.7950   -0.0830    7.9310 ca        1 C16     -0.110000
     15 C15         3.5020    0.1110    3.6990 c         1 C16      0.734100
     16 O17         4.2820    0.2440    2.7550 o         1 C16     -0.564500
     17 C8          3.8230    0.0680    5.1610 ca        1 C16     -0.146600
     18 C10         5.0290    0.1630    5.8310 ca        1 C16      0.005700
     19 C13         6.3280    0.3380    5.1460 c3        1 C16     -0.077800
     20 C1          4.9870    0.0830    7.2450 ca        1 C16     -0.121000
     21 H30         1.7840   -0.8210   -0.9500 ha        1 C16      0.148500
     22 H28         3.0430   -0.8050    1.1710 ha        1 C16      0.165000
     23 H34        -1.7260    0.6950    1.0890 ha        1 C16      0.148500
     24 H36        -0.4950    0.7140    3.2270 ha        1 C16      0.165000
     25 H4          1.6210   -0.3090    7.7890 ha        1 C16      0.162000
     26 H2          3.7970   -0.1420    9.0310 ha        1 C16      0.146000
     27 H13         6.8400    1.2590    5.5230 hc        1 C16      0.065033
     28 H13A        6.9910   -0.5400    5.3540 hc        1 C16      0.065033
     29 H13B        6.1960    0.4300    4.0390 hc        1 C16      0.065033
     30 H1          5.9360    0.1550    7.8010 ha        1 C16      0.146000
@<TRIPOS>BOND
     1    1    2 3   
     2    2    3 1   
     3    3    4 ar  
     4    3    6 ar  
     5    4    5 ar  
     6    4   21 1   
     7    5    8 ar  
     8    5   22 1   
     9    6    7 ar  
    10    6   23 1   
    11    7    8 ar  
    12    7   24 1   
    13    8    9 1   
    14    9   10 1   
    15    9   15 1   
    16   10   11 2   
    17   10   12 1   
    18   12   13 ar  
    19   12   17 ar  
    20   13   14 ar  
    21   13   25 1   
    22   14   20 ar  
    23   14   26 1   
    24   15   16 2   
    25   15   17 1   
    26   17   18 ar  
    27   18   19 1   
    28   18   20 ar  
    29   19   27 1   
    30   19   28 1   
    31   19   29 1   
    32   20   30 1   
@<TRIPOS>SUBSTRUCTURE
     1 C16         1 TEMP              0 ****  ****    0 ROOT
