@<TRIPOS>MOLECULE
C16
   30    32     1     0     0
SMALL
bcc


@<TRIPOS>ATOM
      1 N41        -6.6920    0.2340   -0.0770 n1        1 C16     -0.366800
      2 C39        -5.5310    0.1660   -0.0570 cg        1 C16      0.236800
      3 C32        -4.1130    0.0840   -0.0320 ca        1 C16     -0.035000
      4 C30        -3.3500    1.1810    0.3870 ca        1 C16     -0.076000
      5 C28        -1.9630    1.1050    0.4160 ca        1 C16     -0.149500
      6 C34        -3.4680   -1.0960   -0.4260 ca        1 C16     -0.076000
      7 C36        -2.0810   -1.1810   -0.4070 ca        1 C16     -0.149500
      8 C26        -1.3020   -0.0800    0.0170 ca        1 C16      0.085600
      9 N19         0.1040   -0.1620    0.0410 n         1 C16     -0.435600
     10 C21         0.8500   -1.3730    0.2090 c         1 C16      0.730100
     11 O23         0.3710   -2.4980    0.3550 o         1 C16     -0.558500
     12 C6          2.2970   -0.9960    0.1730 ca        1 C16     -0.136600
     13 C4          3.4200   -1.7830    0.2900 ca        1 C16     -0.065000
     14 C2          4.6730   -1.1430    0.2130 ca        1 C16     -0.110000
     15 C15         0.9940    0.9530   -0.1010 c         1 C16      0.734100
     16 O17         0.6430    2.1230   -0.2620 o         1 C16     -0.564500
     17 C8          2.3880    0.4120   -0.0170 ca        1 C16     -0.146600
     18 C10         3.6160    1.0440   -0.0930 ca        1 C16      0.005700
     19 C13         3.7690    2.5010   -0.2890 c3        1 C16     -0.077800
     20 C1          4.7670    0.2270    0.0270 ca        1 C16     -0.121000
     21 H30        -3.8490    2.1120    0.6980 ha        1 C16      0.148500
     22 H28        -1.3860    1.9860    0.7420 ha        1 C16      0.165000
     23 H34        -4.0600   -1.9640   -0.7560 ha        1 C16      0.148500
     24 H36        -1.5990   -2.1240   -0.7140 ha        1 C16      0.165000
     25 H4          3.3460   -2.8710    0.4380 ha        1 C16      0.162000
     26 H2          5.5880   -1.7490    0.3040 ha        1 C16      0.146000
     27 H13         4.2880    2.9530    0.5940 hc        1 C16      0.065033
     28 H13A        4.3880    2.7030   -1.2000 hc        1 C16      0.065033
     29 H13B        2.7760    3.0030   -0.4140 hc        1 C16      0.065033
     30 H1          5.7570    0.7080   -0.0310 ha        1 C16      0.146000
@<TRIPOS>BOND
     1    1    2 3   
     2    2    3 1   
     3    3    4 ar  
     4    3    6 ar  
     5    4    5 ar  
     6    4   21 1   
     7    5    8 ar  
     8    5   22 1   
     9    6    7 ar  
    10    6   23 1   
    11    7    8 ar  
    12    7   24 1   
    13    8    9 1   
    14    9   10 1   
    15    9   15 1   
    16   10   11 2   
    17   10   12 1   
    18   12   13 ar  
    19   12   17 ar  
    20   13   14 ar  
    21   13   25 1   
    22   14   20 ar  
    23   14   26 1   
    24   15   16 2   
    25   15   17 1   
    26   17   18 ar  
    27   18   19 1   
    28   18   20 ar  
    29   19   27 1   
    30   19   28 1   
    31   19   29 1   
    32   20   30 1   
@<TRIPOS>SUBSTRUCTURE
     1 C16         1 TEMP              0 ****  ****    0 ROOT
