@<TRIPOS>MOLECULE
C16
   30    28     1     0     0
SMALL
bcc


@<TRIPOS>ATOM
      1 N41        -3.2670    0.0450   -6.5140 n1        1 C16     -0.041000
      2 C39        -2.7300    0.0460   -5.5080 c1        1 C16     -0.093000
      3 C32        -2.0180    0.0470   -4.1730 c1        1 C16     -0.031000
      4 C30        -1.6720   -1.1520   -3.5720 c2        1 C16     -0.076000
      5 C28        -0.9850   -1.1510   -2.3680 c1        1 C16     -0.149000
      6 C34        -1.6770    1.2480   -3.5710 c1        1 C16     -0.076000
      7 C36        -0.9900    1.2490   -2.3680 c1        1 C16     -0.150000
      8 C26        -0.6440    0.0500   -1.7660 c1        1 C16      0.093000
      9 N19         0.0650    0.0510   -0.5380 n         1 C16     -0.309000
     10 C21         1.4860    0.0770   -0.3880 c2        1 C16      0.367000
     11 O23         2.2980    0.1240   -1.2900 o         1 C16     -0.283000
     12 C6          1.8030    0.0560    1.1020 c2        1 C16     -0.116000
     13 C4          3.0150    0.0740    1.8040 c2        1 C16     -0.065000
     14 C2          3.0140    0.0540    3.1890 c1        1 C16     -0.110000
     15 C15        -0.5170    0.0150    0.7670 c2        1 C16      0.371000
     16 O17        -1.7060   -0.0010    1.0180 o         1 C16     -0.289000
     17 C8          0.6140    0.0190    1.7870 c2        1 C16     -0.126000
     18 C10         0.6130   -0.0010    3.1880 c2        1 C16      0.013000
     19 C13        -0.5000   -0.2640    4.1770 c3        1 C16     -0.203000
     20 C1          1.8130    0.0160    3.8820 c1        1 C16     -0.121000
     21 H30        -1.9130   -1.9980   -3.9960 ha        1 C16      0.148000
     22 H28        -0.7410   -1.9960   -1.9450 ha        1 C16      0.165000
     23 H34        -1.9210    2.0930   -3.9950 ha        1 C16      0.149000
     24 H36        -0.7490    2.0950   -1.9440 ha        1 C16      0.165000
     25 H4          3.8600    0.1000    1.3160 ha        1 C16      0.162000
     26 H2          3.8590    0.0660    3.6780 ha        1 C16      0.146000
     27 H13        -1.3170   -0.5040    3.6920 hc        1 C16      0.104333
     28 H13A       -0.2430   -1.0020    4.7690 hc        1 C16      0.104333
     29 H13B       -0.6610    0.5420    4.7090 hc        1 C16      0.104333
     30 H1          1.8130    0.0020    4.8580 ha        1 C16      0.146000
@<TRIPOS>BOND
     1    1    2 1   
     2    3    4 1   
     3    3    6 1   
     4    4    5 1   
     5    4   21 1   
     6    5   22 1   
     7    6   23 1   
     8    7    8 1   
     9    7   24 1   
    10    8    9 1   
    11    9   10 1   
    12    9   15 1   
    13   10   11 1   
    14   10   12 1   
    15   12   13 1   
    16   12   17 1   
    17   13   14 1   
    18   13   25 1   
    19   14   26 1   
    20   15   16 1   
    21   15   17 1   
    22   17   18 1   
    23   18   19 1   
    24   18   20 1   
    25   19   27 1   
    26   19   28 1   
    27   19   29 1   
    28   20   30 1   
@<TRIPOS>SUBSTRUCTURE
     1 C16         1 TEMP              0 ****  ****    0 ROOT
