@<TRIPOS>MOLECULE
C17
   33    35     1     0     0
SMALL
bcc


@<TRIPOS>ATOM
      1 O2C        -5.1650   -3.0670    0.0840 o         1 C17     -0.553500
      2 C2         -4.6740   -1.9410    0.1360 c         1 C17      0.717800
      3 O1         -3.2900   -1.9840   -0.0070 os        1 C17     -0.317200
      4 C9         -2.5850   -0.7980    0.0230 ca        1 C17      0.181100
      5 C10        -3.2050    0.4620    0.1910 ca        1 C17     -0.171800
      6 C4         -4.6400    0.4990    0.3460 cc        1 C17     -0.046400
      7 C4C        -5.3800    1.7700    0.5450 c         1 C17      0.569100
      8 O4C        -5.0440    2.8540    0.0740 o         1 C17     -0.500100
      9 C3         -5.3410   -0.6610    0.3260 cd        1 C17     -0.223200
     10 C8         -1.1980   -0.9300   -0.1290 ca        1 C17     -0.187000
     11 C7         -0.4180    0.2340   -0.1140 ca        1 C17      0.180100
     12 C6         -1.0110    1.5010    0.0480 ca        1 C17     -0.232000
     13 C5         -2.3850    1.6030    0.1960 ca        1 C17     -0.028000
     14 O7C         0.9330    0.0170   -0.2600 os        1 C17     -0.317900
     15 C7B         1.7570    1.1940   -0.3170 c3        1 C17      0.174700
     16 C1B         3.1670    0.7460   -0.5160 ca        1 C17     -0.089300
     17 C6B         4.0430    1.5660   -1.2370 ca        1 C17     -0.122000
     18 C5B         5.3740    1.1890   -1.4020 ca        1 C17     -0.121000
     19 C4B         5.8420   -0.0070   -0.8580 ca        1 C17     -0.117000
     20 C3B         4.9610   -0.8260   -0.1450 ca        1 C17      0.015400
     21 CL3         5.5200   -2.2880    0.5180 cl        1 C17     -0.088400
     22 C2B         3.6250   -0.4550    0.0310 ca        1 C17     -0.096000
     23 H3         -6.4350   -0.7070    0.4430 ha        1 C17      0.171000
     24 H8         -0.7390   -1.9200   -0.2590 ha        1 C17      0.178000
     25 H5         -2.8440    2.6000    0.3120 ha        1 C17      0.164000
     26 H6         -0.3980    2.4140    0.0570 ha        1 C17      0.147000
     27 H7B1        1.4160    1.8430   -1.1670 h1        1 C17      0.054700
     28 H7B2        1.6630    1.7530    0.6540 h1        1 C17      0.054700
     29 H6B         3.6810    2.5080   -1.6760 ha        1 C17      0.136000
     30 H2B         2.9280   -1.1040    0.5870 ha        1 C17      0.163000
     31 H5B         6.0620    1.8360   -1.9660 ha        1 C17      0.140000
     32 H4B         6.8930   -0.3030   -0.9920 ha        1 C17      0.149000
     33 H4'        -6.3040    1.6630    1.1610 h4        1 C17      0.015200
@<TRIPOS>BOND
     1    1    2 2   
     2    2    3 1   
     3    2    9 1   
     4    3    4 1   
     5    4    5 ar  
     6    4   10 ar  
     7    5    6 1   
     8    5   13 ar  
     9    6    7 1   
    10    6    9 2   
    11    7    8 2   
    12    7   33 1   
    13    9   23 1   
    14   10   11 ar  
    15   10   24 1   
    16   11   12 ar  
    17   11   14 1   
    18   12   13 ar  
    19   12   26 1   
    20   13   25 1   
    21   14   15 1   
    22   15   16 1   
    23   15   27 1   
    24   15   28 1   
    25   16   17 ar  
    26   16   22 ar  
    27   17   18 ar  
    28   17   29 1   
    29   18   19 ar  
    30   18   31 1   
    31   19   20 ar  
    32   19   32 1   
    33   20   21 1   
    34   20   22 ar  
    35   22   30 1   
@<TRIPOS>SUBSTRUCTURE
     1 C17         1 TEMP              0 ****  ****    0 ROOT
