@<TRIPOS>MOLECULE
C17
   33    35     1     0     0
SMALL
bcc


@<TRIPOS>ATOM
      1 O2C        -0.1170   -0.0760    0.0820 o         1 C17     -0.553500
      2 C2          1.0540    0.2680   -0.0720 c         1 C17      0.717800
      3 O1          1.5640    0.8580    1.0810 os        1 C17     -0.317200
      4 C9          2.8720    1.2960    1.0770 ca        1 C17      0.181100
      5 C10         3.7220    1.1720   -0.0470 ca        1 C17     -0.171800
      6 C4          3.1840    0.5650   -1.2420 cc        1 C17     -0.046400
      7 C4C         3.9910    0.4060   -2.4780 c         1 C17      0.569100
      8 O4C         5.2060    0.2210   -2.4990 o         1 C17     -0.500100
      9 C3          1.8980    0.1390   -1.2510 cd        1 C17     -0.223200
     10 C8          3.3060    1.8770    2.2760 ca        1 C17     -0.187000
     11 C7          4.6270    2.3400    2.3460 ca        1 C17      0.180100
     12 C6          5.4950    2.2240    1.2430 ca        1 C17     -0.232000
     13 C5          5.0400    1.6470    0.0690 ca        1 C17     -0.028000
     14 O7C         4.9700    2.9040    3.5540 os        1 C17     -0.317900
     15 C7B         6.3370    3.3290    3.6840 c3        1 C17      0.174700
     16 C1B         6.5110    3.8690    5.0650 ca        1 C17     -0.089300
     17 C6B         7.7560    3.7390    5.6920 ca        1 C17     -0.122000
     18 C5B         7.9540    4.2700    6.9640 ca        1 C17     -0.121000
     19 C4B         6.9160    4.9260    7.6250 ca        1 C17     -0.117000
     20 C3B         5.6730    5.0470    6.9980 ca        1 C17      0.015400
     21 CL3         4.4000    5.8410    7.7970 cl        1 C17     -0.088400
     22 C2B         5.4630    4.5230    5.7190 ca        1 C17     -0.096000
     23 H3          1.4220   -0.3280   -2.1280 ha        1 C17      0.171000
     24 H8          2.6280    1.9620    3.1370 ha        1 C17      0.178000
     25 H5          5.7280    1.5500   -0.7890 ha        1 C17      0.164000
     26 H6          6.5310    2.5850    1.3000 ha        1 C17      0.147000
     27 H7B1        6.5430    4.1340    2.9260 h1        1 C17      0.054700
     28 H7B2        7.0160    2.4530    3.5050 h1        1 C17      0.054700
     29 H6B         8.5780    3.2160    5.1810 ha        1 C17      0.136000
     30 H2B         4.4810    4.6110    5.2270 ha        1 C17      0.163000
     31 H5B         8.9340    4.1700    7.4540 ha        1 C17      0.140000
     32 H4B         7.0760    5.3430    8.6320 ha        1 C17      0.149000
     33 H4'         3.3930    0.4520   -3.4170 h4        1 C17      0.015200
@<TRIPOS>BOND
     1    1    2 2   
     2    2    3 1   
     3    2    9 1   
     4    3    4 1   
     5    4    5 ar  
     6    4   10 ar  
     7    5    6 1   
     8    5   13 ar  
     9    6    7 1   
    10    6    9 2   
    11    7    8 2   
    12    7   33 1   
    13    9   23 1   
    14   10   11 ar  
    15   10   24 1   
    16   11   12 ar  
    17   11   14 1   
    18   12   13 ar  
    19   12   26 1   
    20   13   25 1   
    21   14   15 1   
    22   15   16 1   
    23   15   27 1   
    24   15   28 1   
    25   16   17 ar  
    26   16   22 ar  
    27   17   18 ar  
    28   17   29 1   
    29   18   19 ar  
    30   18   31 1   
    31   19   20 ar  
    32   19   32 1   
    33   20   21 1   
    34   20   22 ar  
    35   22   30 1   
@<TRIPOS>SUBSTRUCTURE
     1 C17         1 TEMP              0 ****  ****    0 ROOT
