@<TRIPOS>MOLECULE
C17
   33    35     1     0     0
SMALL
bcc


@<TRIPOS>ATOM
      1 O2C        -0.1170   -0.0870    0.0940 o         1 C17     -0.553500
      2 C2          1.0510    0.2620   -0.0630 c         1 C17      0.717800
      3 O1          1.5640    0.8510    1.0890 os        1 C17     -0.317200
      4 C9          2.8700    1.2940    1.0810 ca        1 C17      0.181100
      5 C10         3.7160    1.1760   -0.0460 ca        1 C17     -0.171800
      6 C4          3.1760    0.5700   -1.2410 cc        1 C17     -0.046400
      7 C4C         3.9790    0.4160   -2.4800 c         1 C17      0.569100
      8 O4C         5.1950    0.2370   -2.5060 o         1 C17     -0.500100
      9 C3          1.8920    0.1390   -1.2460 cd        1 C17     -0.223200
     10 C8          3.3070    1.8730    2.2800 ca        1 C17     -0.187000
     11 C7          4.6270    2.3420    2.3460 ca        1 C17      0.180100
     12 C6          5.4900    2.2320    1.2400 ca        1 C17     -0.232000
     13 C5          5.0320    1.6550    0.0650 ca        1 C17     -0.028000
     14 O7C         4.9720    2.9030    3.5540 os        1 C17     -0.317900
     15 C7B         6.3380    3.3320    3.6800 c3        1 C17      0.174700
     16 C1B         6.5160    3.8670    5.0630 ca        1 C17     -0.089300
     17 C6B         7.7630    3.7360    5.6860 ca        1 C17     -0.122000
     18 C5B         7.9640    4.2640    6.9590 ca        1 C17     -0.121000
     19 C4B         6.9280    4.9180    7.6250 ca        1 C17     -0.117000
     20 C3B         5.6820    5.0400    7.0010 ca        1 C17      0.015400
     21 Cl3         4.4110    5.8310    7.8060 cl        1 C17     -0.088400
     22 C2B         5.4700    4.5190    5.7210 ca        1 C17     -0.096000
     23 H3          1.4140   -0.3270   -2.1220 ha        1 C17      0.171000
     24 H8          2.6320    1.9540    3.1440 ha        1 C17      0.178000
     25 H5          5.7180    1.5630   -0.7950 ha        1 C17      0.164000
     26 H6          6.5250    2.5970    1.2930 ha        1 C17      0.147000
     27 H7B1        6.5400    4.1390    2.9250 h1        1 C17      0.054700
     28 H7B2        7.0190    2.4580    3.4960 h1        1 C17      0.054700
     29 H6B         8.5840    3.2150    5.1710 ha        1 C17      0.136000
     30 H2B         4.4860    4.6080    5.2320 ha        1 C17      0.163000
     31 H5B         8.9450    4.1620    7.4460 ha        1 C17      0.140000
     32 H4B         7.0890    5.3310    8.6320 ha        1 C17      0.149000
     33 H4'         3.3760    0.4630   -3.4170 h4        1 C17      0.015200
@<TRIPOS>BOND
     1    1    2 2   
     2    2    3 1   
     3    2    9 1   
     4    3    4 1   
     5    4    5 ar  
     6    4   10 ar  
     7    5    6 1   
     8    5   13 ar  
     9    6    7 1   
    10    6    9 2   
    11    7    8 2   
    12    7   33 1   
    13    9   23 1   
    14   10   11 ar  
    15   10   24 1   
    16   11   12 ar  
    17   11   14 1   
    18   12   13 ar  
    19   12   26 1   
    20   13   25 1   
    21   14   15 1   
    22   15   16 1   
    23   15   27 1   
    24   15   28 1   
    25   16   17 ar  
    26   16   22 ar  
    27   17   18 ar  
    28   17   29 1   
    29   18   19 ar  
    30   18   31 1   
    31   19   20 ar  
    32   19   32 1   
    33   20   21 1   
    34   20   22 ar  
    35   22   30 1   
@<TRIPOS>SUBSTRUCTURE
     1 C17         1 TEMP              0 ****  ****    0 ROOT
