@<TRIPOS>MOLECULE
C17
   33    30     1     0     0
SMALL
bcc


@<TRIPOS>ATOM
      1 O2C        -5.6860    0.5240   -2.6450 o         1 C17     -0.274000
      2 C2         -4.4240    0.4990   -2.6730 c1        1 C17      0.331000
      3 O1         -3.6800    0.5250   -1.4460 o         1 C17     -0.188000
      4 C9         -2.1830    0.5550   -1.4740 c2        1 C17      0.145000
      5 C10        -1.4980    0.4910   -2.6980 c2        1 C17     -0.162000
      6 C4         -2.2670    0.5440   -3.9910 c2        1 C17     -0.052000
      7 C4C        -1.5260    0.4370   -5.3310 c2        1 C17      0.213000
      8 O4C        -1.3310    1.4370   -6.0010 o         1 C17     -0.253000
      9 C3         -3.7180    0.5580   -3.9640 c2        1 C17     -0.180000
     10 C8         -1.4720    0.5040   -0.2690 c1        1 C17     -0.234000
     11 C7         -0.0860    0.3910   -0.2810 c1        1 C17      0.135000
     12 C6          0.6020    0.3260   -1.5040 c1        1 C17     -0.177000
     13 C5         -0.1030    0.3760   -2.7090 c1        1 C17     -0.049000
     14 O7C         0.6470    0.4480    0.9510 os        1 C17     -0.202000
     15 C7B         0.7740   -0.8150    1.6130 c3        1 C17      0.015000
     16 C1B         1.7480   -0.6880    2.7530 c2        1 C17     -0.082000
     17 C6B         3.0780   -1.0550    2.5770 c2        1 C17     -0.101000
     18 C5B         3.9770   -0.9280    3.6320 c1        1 C17     -0.123000
     19 C4B         3.5470   -0.4370    4.8560 c1        1 C17     -0.116000
     20 C3B         2.2150   -0.0700    5.0310 c1        1 C17     -0.062000
     21 CL3         1.6820    0.6290    6.5800 cl        1 C17     -0.011000
     22 C2B         1.3180   -0.1940    3.9850 c2        1 C17     -0.116000
     23 H3         -4.2050    0.6990   -4.7630 ha        1 C17      0.185000
     24 H8         -1.9420    0.5500    0.5670 ha        1 C17      0.167000
     25 H5          0.3720    0.3320   -3.5480 ha        1 C17      0.141000
     26 H6          1.5670    0.2490   -1.5110 ha        1 C17      0.160000
     27 H7B1       -0.1180   -1.0960    1.9670 h1        1 C17      0.097500
     28 H7B2        1.1060   -1.4980    0.9660 h1        1 C17      0.097500
     29 H6B         3.3690   -1.3900    1.7450 ha        1 C17      0.150000
     30 H2B         0.3490    0.0730    4.1150 ha        1 C17      0.149000
     31 H5B         4.9060   -1.1840    3.5100 ha        1 C17      0.141000
     32 H4B         4.1950   -0.3460    5.6150 ha        1 C17      0.150000
     33 H4'        -1.2140   -0.4440   -5.6540 h4        1 C17      0.109000
@<TRIPOS>BOND
     1    1    2 1   
     2    2    9 1   
     3    3    4 1   
     4    4    5 1   
     5    4   10 1   
     6    5    6 1   
     7    5   13 1   
     8    6    7 1   
     9    6    9 1   
    10    7    8 1   
    11    7   33 1   
    12    9   23 1   
    13   10   24 1   
    14   11   12 1   
    15   11   14 1   
    16   12   26 1   
    17   13   25 1   
    18   14   15 1   
    19   15   16 1   
    20   15   27 1   
    21   15   28 1   
    22   16   17 1   
    23   16   22 1   
    24   17   18 1   
    25   17   29 1   
    26   18   31 1   
    27   19   20 1   
    28   19   32 1   
    29   20   22 1   
    30   22   30 1   
@<TRIPOS>SUBSTRUCTURE
     1 C17         1 TEMP              0 ****  ****    0 ROOT
