@<TRIPOS>MOLECULE
C18
   39    41     1     0     0
SMALL
bcc


@<TRIPOS>ATOM
      1 O2C         4.8820   -3.1880   -1.2530 o         1 C18     -0.560500
      2 C2          4.4070   -2.1420   -0.8130 c         1 C18      0.720800
      3 O1          3.0190   -2.1230   -0.9690 os        1 C18     -0.324200
      4 C9          2.3190   -1.0260   -0.5190 ca        1 C18      0.184100
      5 C10         2.9430    0.0840    0.0960 ca        1 C18     -0.178800
      6 C4          4.3830    0.0640    0.2430 cc        1 C18      0.040600
      7 N4C         5.2150    2.3720    0.0280 n3        1 C18     -0.820200
      8 C4C         5.0890    1.2180    0.8970 c3        1 C18      0.191000
      9 C4N         5.6350    3.5630    0.7150 c3        1 C18      0.149100
     10 C3          5.0780   -1.0090   -0.1980 cd        1 C18     -0.243200
     11 C8          0.9310   -1.0840   -0.7100 ca        1 C18     -0.183000
     12 C7          0.1560   -0.0040   -0.2690 ca        1 C18      0.174100
     13 C6          0.7520    1.1090    0.3540 ca        1 C18     -0.230000
     14 C5          2.1270    1.1410    0.5300 ca        1 C18     -0.045000
     15 O7C        -1.1950   -0.1390   -0.5010 os        1 C18     -0.318900
     16 C7B        -2.0240    0.9350   -0.0280 c3        1 C18      0.174700
     17 C1B        -3.4390    0.5940   -0.3600 ca        1 C18     -0.089300
     18 C6B        -3.7580   -0.2000   -1.4650 ca        1 C18     -0.100000
     19 C5B        -5.0920   -0.4740   -1.7660 ca        1 C18     -0.122000
     20 C4B        -6.1150    0.0430   -0.9730 ca        1 C18     -0.117000
     21 C3B        -5.7910    0.8370    0.1330 ca        1 C18      0.016400
     22 CL3        -7.0310    1.4720    1.1080 cl        1 C18     -0.091400
     23 C2B        -4.4580    1.1120    0.4480 ca        1 C18     -0.119000
     24 H3          6.1740   -1.0830   -0.1290 ha        1 C18      0.174000
     25 H4C1        4.5480    1.4560    1.8630 h1        1 C18      0.047200
     26 H4C2        6.1370    0.9030    1.1780 h1        1 C18      0.047200
     27 H4C         4.3630    2.5300   -0.4790 hn        1 C18      0.364800
     28 H4N1        4.9260    3.8950    1.5240 h1        1 C18      0.033367
     29 H4N2        6.6380    3.3830    1.1840 h1        1 C18      0.033367
     30 H4N3        5.7320    4.3900   -0.0360 h1        1 C18      0.033367
     31 H5          2.5810    2.0130    1.0260 ha        1 C18      0.137000
     32 H6          0.1420    1.9540    0.7040 ha        1 C18      0.144000
     33 H8          0.4670   -1.9570   -1.1910 ha        1 C18      0.177000
     34 H7B1       -1.8870    1.0470    1.0810 h1        1 C18      0.053700
     35 H7B2       -1.7260    1.8860   -0.5470 h1        1 C18      0.053700
     36 H2B        -4.2110    1.7300    1.3240 ha        1 C18      0.146000
     37 H6B        -2.9510   -0.6140   -2.0890 ha        1 C18      0.154000
     38 H5B        -5.3400   -1.1020   -2.6340 ha        1 C18      0.142000
     39 H4B        -7.1670   -0.1720   -1.2140 ha        1 C18      0.150000
@<TRIPOS>BOND
     1    1    2 2   
     2    2    3 1   
     3    2   10 1   
     4    3    4 1   
     5    4    5 ar  
     6    4   11 ar  
     7    5    6 1   
     8    5   14 ar  
     9    6    8 1   
    10    6   10 2   
    11    7    8 1   
    12    7    9 1   
    13    7   27 1   
    14    8   25 1   
    15    8   26 1   
    16    9   28 1   
    17    9   29 1   
    18    9   30 1   
    19   10   24 1   
    20   11   12 ar  
    21   11   33 1   
    22   12   13 ar  
    23   12   15 1   
    24   13   14 ar  
    25   13   32 1   
    26   14   31 1   
    27   15   16 1   
    28   16   17 1   
    29   16   34 1   
    30   16   35 1   
    31   17   18 ar  
    32   17   23 ar  
    33   18   19 ar  
    34   18   37 1   
    35   19   20 ar  
    36   19   38 1   
    37   20   21 ar  
    38   20   39 1   
    39   21   22 1   
    40   21   23 ar  
    41   23   36 1   
@<TRIPOS>SUBSTRUCTURE
     1 C18         1 TEMP              0 ****  ****    0 ROOT
