@<TRIPOS>MOLECULE
C18
   40    42     1     0     0
SMALL
bcc


@<TRIPOS>ATOM
      1 O2C        -0.0220    0.4770    0.4070 o         1 C18     -0.500500
      2 C2          1.1720    0.3730    0.1570 c         1 C18      0.708800
      3 O1          1.9540    0.4400    1.3060 os        1 C18     -0.300200
      4 C9          3.3190    0.2900    1.1960 ca        1 C18      0.202100
      5 C10         3.9750    0.1180   -0.0470 ca        1 C18     -0.220800
      6 C4          3.1630    0.1100   -1.2390 cc        1 C18     -0.045400
      7 N4C         4.5370    1.2250   -2.9570 n4        1 C18     -0.761000
      8 C4C         3.8120   -0.0340   -2.5800 c3        1 C18      0.150000
      9 C4N         5.2360    1.0990   -4.2550 c3        1 C18      0.076100
     10 C3          1.8190    0.2230   -1.1470 cd        1 C18     -0.189200
     11 C8          4.0190    0.3160    2.4090 ca        1 C18     -0.173000
     12 C7          5.4120    0.1490    2.3790 ca        1 C18      0.207100
     13 C6          6.0860   -0.0500    1.1520 ca        1 C18     -0.212000
     14 C5          5.3700   -0.0690   -0.0300 ca        1 C18     -0.074000
     15 O7C         6.0200    0.2010    3.6000 os        1 C18     -0.299900
     16 C7B         7.4360   -0.0860    3.6330 c3        1 C18      0.178700
     17 C1B         7.8450   -0.0740    5.0670 ca        1 C18     -0.107300
     18 C6B         7.4120    0.9410    5.9250 ca        1 C18     -0.099000
     19 C5B         7.8330    0.9560    7.2540 ca        1 C18     -0.118000
     20 C4B         8.6880   -0.0350    7.7340 ca        1 C18     -0.103000
     21 C3B         9.1170   -1.0510    6.8710 ca        1 C18      0.017400
     22 CL3        10.1570   -2.2630    7.4450 cl        1 C18     -0.072400
     23 C2B         8.6940   -1.0800    5.5400 ca        1 C18     -0.110000
     24 H3          1.1360    0.2030   -2.0110 ha        1 C18      0.179000
     25 H4C1        3.0460   -0.2450   -3.3810 hx        1 C18      0.119200
     26 H4C2        4.5580   -0.8820   -2.5670 hx        1 C18      0.119200
     27 H4C         3.8600    1.9970   -3.0020 hn        1 C18      0.460800
     28 H4N1        5.9930    0.2710   -4.1960 hx        1 C18      0.111367
     29 H4N2        5.7550    2.0670   -4.4900 hx        1 C18      0.111367
     30 H4N3        4.4920    0.8660   -5.0630 hx        1 C18      0.111367
     31 H5          5.9120   -0.2680   -0.9670 ha        1 C18      0.109000
     32 H6          7.1750   -0.2020    1.1340 ha        1 C18      0.159000
     33 H8          3.4850    0.4530    3.3630 ha        1 C18      0.198000
     34 H7B1        7.6190   -1.0880    3.1610 h1        1 C18      0.054700
     35 H7B2        7.9750    0.7170    3.0610 h1        1 C18      0.054700
     36 H2B         9.0290   -1.8880    4.8710 ha        1 C18      0.147000
     37 H6B         6.7310    1.7190    5.5490 ha        1 C18      0.144000
     38 H5B         7.4890    1.7530    7.9300 ha        1 C18      0.149000
     39 H4B         9.0220   -0.0190    8.7830 ha        1 C18      0.159000
     40 H4C3        5.2140    1.4470   -2.2120 hn        1 C18      0.460800
@<TRIPOS>BOND
     1    1    2 2   
     2    2    3 1   
     3    2   10 1   
     4    3    4 1   
     5    4    5 ar  
     6    4   11 ar  
     7    5    6 1   
     8    5   14 ar  
     9    6    8 1   
    10    6   10 2   
    11    7    8 1   
    12    7    9 1   
    13    7   27 1   
    14    7   40 1   
    15    8   25 1   
    16    8   26 1   
    17    9   28 1   
    18    9   29 1   
    19    9   30 1   
    20   10   24 1   
    21   11   12 ar  
    22   11   33 1   
    23   12   13 ar  
    24   12   15 1   
    25   13   14 ar  
    26   13   32 1   
    27   14   31 1   
    28   15   16 1   
    29   16   17 1   
    30   16   34 1   
    31   16   35 1   
    32   17   18 ar  
    33   17   23 ar  
    34   18   19 ar  
    35   18   37 1   
    36   19   20 ar  
    37   19   38 1   
    38   20   21 ar  
    39   20   39 1   
    40   21   22 1   
    41   21   23 ar  
    42   23   36 1   
@<TRIPOS>SUBSTRUCTURE
     1 C18         1 TEMP              0 ****  ****    0 ROOT
