@<TRIPOS>MOLECULE
C18
   40    42     1     0     0
SMALL
bcc


@<TRIPOS>ATOM
      1 O2C        -0.0280    0.4430    0.4290 o         1 C18     -0.500500
      2 C2          1.1660    0.3480    0.1740 c         1 C18      0.708800
      3 O1          1.9520    0.4150    1.3200 os        1 C18     -0.300200
      4 C9          3.3170    0.2750    1.2050 ca        1 C18      0.202100
      5 C10         3.9700    0.1150   -0.0420 ca        1 C18     -0.220800
      6 C4          3.1530    0.1060   -1.2310 cc        1 C18     -0.045400
      7 N4C         4.5130    1.2400   -2.9480 ny        1 C18     -0.761000
      8 C4C         3.7990   -0.0260   -2.5740 c3        1 C18      0.150000
      9 C4N         5.2080    1.1250   -4.2490 c3        1 C18      0.076100
     10 C3          1.8090    0.2090   -1.1330 cd        1 C18     -0.189200
     11 C8          4.0220    0.3000    2.4150 ca        1 C18     -0.173000
     12 C7          5.4160    0.1430    2.3790 ca        1 C18      0.207100
     13 C6          6.0870   -0.0440    1.1480 ca        1 C18     -0.212000
     14 C5          5.3660   -0.0620   -0.0310 ca        1 C18     -0.074000
     15 O7C         6.0280    0.1930    3.5990 os        1 C18     -0.299900
     16 C7B         7.4460   -0.0830    3.6240 c3        1 C18      0.178700
     17 C1B         7.8610   -0.0760    5.0560 ca        1 C18     -0.107300
     18 C6B         7.4240    0.9320    5.9210 ca        1 C18     -0.099000
     19 C5B         7.8500    0.9430    7.2490 ca        1 C18     -0.118000
     20 C4B         8.7140   -0.0440    7.7200 ca        1 C18     -0.103000
     21 C3B         9.1470   -1.0520    6.8510 ca        1 C18      0.017400
     22 Cl3        10.1980   -2.2590    7.4150 cl        1 C18     -0.072400
     23 C2B         8.7190   -1.0770    5.5210 ca        1 C18     -0.110000
     24 H3          1.1230    0.1890   -1.9950 ha        1 C18      0.179000
     25 H4C1        3.0300   -0.2380   -3.3740 hx        1 C18      0.119200
     26 H4C2        4.5510   -0.8690   -2.5690 hx        1 C18      0.119200
     27 H4C         3.8300    2.0080   -2.9860 hn        1 C18      0.460800
     28 H4N1        5.7200    2.0990   -4.4820 hx        1 C18      0.111367
     29 H4N2        4.4620    0.8920   -5.0560 hx        1 C18      0.111367
     30 H4N3        5.9710    0.3020   -4.1980 hx        1 C18      0.111367
     31 H5          5.9070   -0.2530   -0.9710 ha        1 C18      0.109000
     32 H6          7.1770   -0.1890    1.1260 ha        1 C18      0.159000
     33 H8          3.4910    0.4290    3.3720 ha        1 C18      0.198000
     34 H7B1        7.9770    0.7270    3.0540 h1        1 C18      0.054700
     35 H7B2        7.6350   -1.0810    3.1460 h1        1 C18      0.054700
     36 H2B         9.0570   -1.8800    4.8470 ha        1 C18      0.147000
     37 H6B         6.7360    1.7080    5.5520 ha        1 C18      0.144000
     38 H5B         7.5020    1.7350    7.9300 ha        1 C18      0.149000
     39 H4B         9.0520   -0.0310    8.7690 ha        1 C18      0.159000
     40 H4C3        5.1910    1.4630   -2.2040 hn        1 C18      0.460800
@<TRIPOS>BOND
     1    1    2 2   
     2    2    3 1   
     3    2   10 1   
     4    3    4 1   
     5    4    5 ar  
     6    4   11 ar  
     7    5    6 1   
     8    5   14 ar  
     9    6    8 1   
    10    6   10 2   
    11    7    8 1   
    12    7    9 1   
    13    7   27 1   
    14    7   40 1   
    15    8   25 1   
    16    8   26 1   
    17    9   28 1   
    18    9   29 1   
    19    9   30 1   
    20   10   24 1   
    21   11   12 ar  
    22   11   33 1   
    23   12   13 ar  
    24   12   15 1   
    25   13   14 ar  
    26   13   32 1   
    27   14   31 1   
    28   15   16 1   
    29   16   17 1   
    30   16   34 1   
    31   16   35 1   
    32   17   18 ar  
    33   17   23 ar  
    34   18   19 ar  
    35   18   37 1   
    36   19   20 ar  
    37   19   38 1   
    38   20   21 ar  
    39   20   39 1   
    40   21   22 1   
    41   21   23 ar  
    42   23   36 1   
@<TRIPOS>SUBSTRUCTURE
     1 C18         1 TEMP              0 ****  ****    0 ROOT
