@<TRIPOS>MOLECULE
C18
   39    36     1     0     0
SMALL
bcc


@<TRIPOS>ATOM
      1 O2C        -5.2600    0.5390   -1.7500 o         1 C18     -0.289000
      2 C2         -4.0600    0.4760   -1.7380 c1        1 C18      0.336000
      3 O1         -3.3560    0.4510   -0.4860 os        1 C18     -0.193000
      4 C9         -1.8630    0.4950   -0.4650 c2        1 C18      0.146000
      5 C10        -1.1430    0.5590   -1.6740 c2        1 C18     -0.173000
      6 C4         -1.8770    0.4960   -2.9930 c2        1 C18      0.040000
      7 N4C        -1.9270   -0.2000   -5.3090 n3        1 C18     -0.305000
      8 C4C        -1.1010    0.4190   -4.2930 c3        1 C18     -0.050000
      9 C4N        -1.2240   -0.2480   -6.5200 c3        1 C18     -0.124000
     10 C3         -3.3070    0.5000   -3.0110 c1        1 C18     -0.237000
     11 C8         -1.1750    0.4520    0.7590 c1        1 C18     -0.236000
     12 C7          0.2170    0.4720    0.7760 c1        1 C18      0.131000
     13 C6          0.9350    0.5360   -0.4320 c1        1 C18     -0.182000
     14 C5          0.2510    0.5790   -1.6520 c2        1 C18     -0.049000
     15 O7C         0.9130    0.5270    2.0200 os        1 C18     -0.204000
     16 C7B         1.2210   -0.7450    2.5600 c3        1 C18      0.014000
     17 C1B         1.9750   -0.5690    3.8990 c2        1 C18     -0.081000
     18 C6B         3.3590   -0.4660    3.9110 c2        1 C18     -0.101000
     19 C5B         4.0340   -0.3070    5.1220 c1        1 C18     -0.123000
     20 C4B         3.3160   -0.2530    6.3190 c1        1 C18     -0.117000
     21 C3B         1.9340   -0.3560    6.3040 c1        1 C18     -0.062000
     22 CL3         1.0360   -0.3800    7.8150 cl        1 C18     -0.012000
     23 C2B         1.2610   -0.5140    5.0960 c2        1 C18     -0.117000
     24 H3         -3.7880    0.5240   -3.8680 ha        1 C18      0.180000
     25 H4C1       -0.2910   -0.1160   -4.1590 h1        1 C18      0.090500
     26 H4C2       -0.8530    1.3210   -4.5790 h1        1 C18      0.090500
     27 H4C        -2.1430   -1.0520   -5.0480 hn        1 C18      0.161000
     28 H4N1       -1.7800   -0.6750   -7.2030 h1        1 C18      0.073333
     29 H4N2       -0.4030   -0.7630   -6.3990 h1        1 C18      0.073333
     30 H4N3       -1.0010    0.6550   -6.8030 h1        1 C18      0.073333
     31 H5          0.7550    0.6250   -2.4960 ha        1 C18      0.141000
     32 H6          1.8970    0.5500   -0.4190 DU        1 C18      0.157000
     33 H8         -1.6780    0.4080    1.6070 ha        1 C18      0.165000
     34 H7B1        1.7770   -1.2340    1.9360 h1        1 C18      0.097000
     35 H7B2        0.3910   -1.2410    2.7180 h1        1 C18      0.097000
     36 H2B         0.2970   -0.5860    5.0870 ha        1 C18      0.148000
     37 H6B         3.8640   -0.5050    3.0680 ha        1 C18      0.151000
     38 H5B         5.0110   -0.2340    5.1330 ha        1 C18      0.140000
     39 H4B         3.7870   -0.1420    7.1660 ha        1 C18      0.149000
@<TRIPOS>BOND
     1    1    2 1   
     2    2    3 1   
     3    3    4 1   
     4    4    5 1   
     5    4   11 1   
     6    5    6 1   
     7    5   14 1   
     8    6    8 1   
     9    6   10 1   
    10    7    8 1   
    11    7    9 1   
    12    7   27 1   
    13    8   25 1   
    14    8   26 1   
    15    9   28 1   
    16    9   29 1   
    17    9   30 1   
    18   10   24 1   
    19   11   33 1   
    20   12   13 1   
    21   12   15 1   
    22   13   14 1   
    23   14   31 1   
    24   15   16 1   
    25   16   17 1   
    26   16   34 1   
    27   16   35 1   
    28   17   18 1   
    29   17   23 1   
    30   18   19 1   
    31   18   37 1   
    32   19   38 1   
    33   20   21 1   
    34   20   39 1   
    35   21   23 1   
    36   23   36 1   
@<TRIPOS>SUBSTRUCTURE
     1 C18         1 TEMP              0 ****  ****    0 ROOT
