@<TRIPOS>MOLECULE
C18
   40    42     1     0     0
SMALL
bcc


@<TRIPOS>ATOM
      1 O2C        -0.0250    0.4810    0.4180 o         1 C18     -0.500500
      2 C2          1.1690    0.3770    0.1650 c         1 C18      0.708800
      3 O1          1.9540    0.4410    1.3130 os        1 C18     -0.300200
      4 C9          3.3180    0.2900    1.2010 ca        1 C18      0.202100
      5 C10         3.9720    0.1230   -0.0440 ca        1 C18     -0.220800
      6 C4          3.1580    0.1170   -1.2350 cc        1 C18     -0.045400
      7 N4C         4.5290    1.2370   -2.9520 n4        1 C18     -0.761000
      8 C4C         3.8050   -0.0230   -2.5770 c3        1 C18      0.150000
      9 C4N         5.2260    1.1140   -4.2510 c3        1 C18      0.076100
     10 C3          1.8140    0.2310   -1.1400 cd        1 C18     -0.189200
     11 C8          4.0200    0.3130    2.4120 ca        1 C18     -0.173000
     12 C7          5.4130    0.1460    2.3790 ca        1 C18      0.207100
     13 C6          6.0850   -0.0490    1.1500 ca        1 C18     -0.212000
     14 C5          5.3670   -0.0650   -0.0310 ca        1 C18     -0.074000
     15 O7C         6.0240    0.1940    3.6000 os        1 C18     -0.299900
     16 C7B         7.4390   -0.0920    3.6280 c3        1 C18      0.178700
     17 C1B         7.8510   -0.0840    5.0620 ca        1 C18     -0.107300
     18 C6B         7.4180    0.9270    5.9240 ca        1 C18     -0.099000
     19 C5B         7.8410    0.9380    7.2530 ca        1 C18     -0.118000
     20 C4B         8.7000   -0.0520    7.7270 ca        1 C18     -0.103000
     21 C3B         9.1300   -1.0640    6.8600 ca        1 C18      0.017400
     22 CL3        10.1740   -2.2750    7.4270 cl        1 C18     -0.072400
     23 C2B         8.7040   -1.0890    5.5290 ca        1 C18     -0.110000
     24 H3          1.1290    0.2130   -2.0030 ha        1 C18      0.179000
     25 H4C1        3.0370   -0.2310   -3.3780 hx        1 C18      0.119200
     26 H4C2        4.5510   -0.8710   -2.5680 hx        1 C18      0.119200
     27 H4C         3.8520    2.0100   -2.9940 hn        1 C18      0.460800
     28 H4N1        5.7450    2.0840   -4.4860 hx        1 C18      0.111367
     29 H4N2        4.4800    0.8840   -5.0590 hx        1 C18      0.111367
     30 H4N3        5.9830    0.2860   -4.1970 hx        1 C18      0.111367
     31 H5          5.9080   -0.2610   -0.9690 ha        1 C18      0.109000
     32 H6          7.1750   -0.2020    1.1300 ha        1 C18      0.159000
     33 H8          3.4890    0.4470    3.3670 ha        1 C18      0.198000
     34 H7B1        7.9770    0.7130    3.0580 h1        1 C18      0.054700
     35 H7B2        7.6220   -1.0920    3.1530 h1        1 C18      0.054700
     36 H2B         9.0400   -1.8940    4.8570 ha        1 C18      0.147000
     37 H6B         6.7340    1.7050    5.5520 ha        1 C18      0.144000
     38 H5B         7.4960    1.7320    7.9320 ha        1 C18      0.149000
     39 H4B         9.0360   -0.0400    8.7760 ha        1 C18      0.159000
     40 H4C3        5.2070    1.4570   -2.2080 hn        1 C18      0.460800
@<TRIPOS>BOND
     1    1    2 2   
     2    2    3 1   
     3    2   10 1   
     4    3    4 1   
     5    4    5 ar  
     6    4   11 ar  
     7    5    6 1   
     8    5   14 ar  
     9    6    8 1   
    10    6   10 2   
    11    7    8 1   
    12    7    9 1   
    13    7   27 1   
    14    7   40 1   
    15    8   25 1   
    16    8   26 1   
    17    9   28 1   
    18    9   29 1   
    19    9   30 1   
    20   10   24 1   
    21   11   12 ar  
    22   11   33 1   
    23   12   13 ar  
    24   12   15 1   
    25   13   14 ar  
    26   13   32 1   
    27   14   31 1   
    28   15   16 1   
    29   16   17 1   
    30   16   34 1   
    31   16   35 1   
    32   17   18 ar  
    33   17   23 ar  
    34   18   19 ar  
    35   18   37 1   
    36   19   20 ar  
    37   19   38 1   
    38   20   21 ar  
    39   20   39 1   
    40   21   22 1   
    41   21   23 ar  
    42   23   36 1   
@<TRIPOS>SUBSTRUCTURE
     1 C18         1 TEMP              0 ****  ****    0 ROOT
