@<TRIPOS>MOLECULE
C19
   53    57     1     0     0
SMALL
bcc


@<TRIPOS>ATOM
      1 N1          0.0960    0.1450   -0.4070 nb        1 C19     -0.733000
      2 C2          1.3930    0.0600   -0.2040 ca        1 C19      0.491200
      3 C3          2.0040    0.1210    1.0940 ca        1 C19     -0.318600
      4 C4          1.1130    0.2600    2.2020 ca        1 C19      0.465600
      5 N5         -0.2490    0.3490    2.0320 nb        1 C19     -0.761000
      6 C6         -0.7130    0.3150    0.7500 ca        1 C19      0.864900
      7 C8          3.3970    0.0360    1.2920 ca        1 C19     -0.037000
      8 C9          3.9250    0.0940    2.5690 ca        1 C19     -0.064800
      9 C10         3.0430    0.2120    3.6790 ca        1 C19     -0.084000
     10 C11         1.6840    0.2930    3.5150 ca        1 C19     -0.201300
     11 N15        -2.0800    0.5210    0.5300 nv        1 C19     -0.923500
     12 C16         5.3660    0.0190    2.7970 cc        1 C19     -0.150400
     13 C17         6.0790   -1.0790    2.1110 c         1 C19      0.701700
     14 N18         7.4610   -1.2370    2.4060 n         1 C19     -0.259200
     15 C19         8.1020   -0.3360    3.2350 cc        1 C19      0.017600
     16 C20         7.4500    0.7180    3.8130 cd        1 C19     -0.250000
     17 C21         6.0460    0.9000    3.5970 cd        1 C19      0.027800
     18 C22         5.4060    2.0580    4.2650 c3        1 C19     -0.071900
     19 O26         5.5430   -1.8490    1.2920 o         1 C19     -0.627500
     20 C27         8.2100   -2.3390    1.8910 ca        1 C19      0.052600
     21 C28         8.1020   -2.7090    0.5390 ca        1 C19     -0.133000
     22 C29         8.8490   -3.7790    0.0330 ca        1 C19     -0.079000
     23 C30         9.7050   -4.4680    0.8660 ca        1 C19     -0.126300
     24 C31         9.8140   -4.1070    2.2430 ca        1 C19      0.108600
     25 C32         9.0750   -3.0480    2.7610 ca        1 C19     -0.174000
     26 C36        10.6100   -5.6390    0.5790 c3        1 C19     -0.012700
     27 C37        11.2590   -5.9120    1.9820 c3        1 C19      0.159800
     28 N38        10.6690   -4.9870    2.9580 nu        1 C19     -0.690600
     29 C41        11.6710   -5.2860   -0.4430 c3        1 C19     -0.082600
     30 C45         9.8200   -6.8490    0.1210 c3        1 C19     -0.082600
     31 H2          2.0280   -0.0740   -1.1010 h4        1 C19      0.029100
     32 H8          4.0570   -0.1000    0.4200 ha        1 C19      0.151000
     33 H10         3.4760    0.2290    4.6920 ha        1 C19      0.135000
     34 H11         1.0170    0.3820    4.3860 ha        1 C19      0.151000
     35 HN15       -2.4370    0.2180   -0.3460 hn        1 C19      0.424800
     36 HN1A       -2.6780    0.3900    1.3140 hn        1 C19      0.424800
     37 H19         9.1840   -0.5070    3.3950 h4        1 C19      0.158000
     38 H20         7.9950    1.4280    4.4480 ha        1 C19      0.152000
     39 H22         4.4450    2.3400    3.7670 hc        1 C19      0.056367
     40 H22A        5.1900    1.8060    5.3350 hc        1 C19      0.056367
     41 H22B        6.0890    2.9440    4.2460 hc        1 C19      0.056367
     42 H28         7.4040   -2.1780   -0.1280 ha        1 C19      0.161000
     43 H29         8.7490   -4.0610   -1.0260 ha        1 C19      0.141000
     44 H32         9.1460   -2.7870    3.8270 ha        1 C19      0.144000
     45 H37        11.0230   -6.9540    2.3250 h1        1 C19      0.051700
     46 H37A       12.3740   -5.7990    1.9220 h1        1 C19      0.051700
     47 HN38       11.3430   -4.5130    3.5220 hn        1 C19      0.383800
     48 H41        11.1910   -5.0370   -1.4210 hc        1 C19      0.041033
     49 H41A       12.2670   -4.4040   -0.1060 hc        1 C19      0.041033
     50 H41B       12.3620   -6.1500   -0.5940 hc        1 C19      0.041033
     51 H45        10.5030   -7.7200   -0.0270 hc        1 C19      0.041033
     52 H45A        9.3070   -6.6260   -0.8450 hc        1 C19      0.041033
     53 H45B        9.0480   -7.1230    0.8800 hc        1 C19      0.041033
@<TRIPOS>BOND
     1    1    2 ar  
     2    1    6 ar  
     3    2    3 ar  
     4    2   31 1   
     5    3    4 ar  
     6    3    7 ar  
     7    4    5 ar  
     8    4   10 ar  
     9    5    6 ar  
    10    6   11 1   
    11    7    8 ar  
    12    7   32 1   
    13    8    9 ar  
    14    8   12 1   
    15    9   10 ar  
    16    9   33 1   
    17   10   34 1   
    18   11   35 1   
    19   11   36 1   
    20   12   13 1   
    21   12   17 2   
    22   13   14 1   
    23   13   19 2   
    24   14   15 1   
    25   14   20 1   
    26   15   16 2   
    27   15   37 1   
    28   16   17 1   
    29   16   38 1   
    30   17   18 1   
    31   18   39 1   
    32   18   40 1   
    33   18   41 1   
    34   20   21 ar  
    35   20   25 ar  
    36   21   22 ar  
    37   21   42 1   
    38   22   23 ar  
    39   22   43 1   
    40   23   24 ar  
    41   23   26 1   
    42   24   25 ar  
    43   24   28 1   
    44   25   44 1   
    45   26   27 1   
    46   26   29 1   
    47   26   30 1   
    48   27   28 1   
    49   27   45 1   
    50   27   46 1   
    51   28   47 1   
    52   29   48 1   
    53   29   49 1   
    54   29   50 1   
    55   30   51 1   
    56   30   52 1   
    57   30   53 1   
@<TRIPOS>SUBSTRUCTURE
     1 C19         1 TEMP              0 ****  ****    0 ROOT
