@<TRIPOS>MOLECULE
C19
   53    50     1     0     0
SMALL
bcc


@<TRIPOS>ATOM
      1 N1         -6.5460    0.6320   -0.2640 n1        1 C19     -0.207000
      2 C2         -5.2630    0.9620   -0.5070 c1        1 C19      0.026000
      3 C3         -4.2810    0.6720    0.4330 c1        1 C19     -0.188000
      4 C4         -4.6170    0.0560    1.5980 c1        1 C19      0.071000
      5 N5         -5.9190   -0.2770    1.8410 n1        1 C19     -0.235000
      6 C6         -6.8850    0.0100    0.9140 c1        1 C19      0.146000
      7 C8         -2.9330    1.0540    0.1950 c2        1 C19     -0.037000
      8 C9         -1.9560    0.7980    1.1550 c1        1 C19     -0.053000
      9 C10        -2.2970    0.1720    2.3380 c1        1 C19     -0.085000
     10 C11        -3.6220   -0.2040    2.5730 c2        1 C19     -0.136000
     11 N15        -7.9360   -0.7860    1.4180 n3        1 C19     -0.322000
     12 C16        -1.0990    2.1130    1.0840 c2        1 C19     -0.145000
     13 C17        -0.1030    2.0190    0.3410 c2        1 C19      0.338000
     14 N18         0.9110    0.9690    0.7650 n         1 C19     -0.197000
     15 C19         1.3620    1.0590    2.1280 c2        1 C19      0.017000
     16 C20         0.3470    1.7870    3.1560 c1        1 C19     -0.250000
     17 C21        -0.7350    2.5760    2.5340 c1        1 C19      0.034000
     18 C22        -1.7900    3.2480    3.4130 c3        1 C19     -0.194000
     19 O26         0.4670    3.0770    0.1720 o         1 C19     -0.356000
     20 C27         1.7250    0.3280   -0.2120 c2        1 C19      0.063000
     21 C28         2.6470    1.0860   -0.9640 c2        1 C19     -0.177000
     22 C29         3.5450    0.4440   -1.8220 c1        1 C19     -0.079000
     23 C30         3.5310   -0.9460   -1.9350 c1        1 C19     -0.121000
     24 C31         2.6110   -1.7030   -1.1860 c1        1 C19      0.031000
     25 C32         1.7100   -1.0590   -0.3250 c1        1 C19     -0.132000
     26 C36         4.3610   -1.8900   -2.7330 c3        1 C19     -0.020000
     27 C37         3.9110   -3.2400   -2.4430 c3        1 C19     -0.075000
     28 N38         2.8490   -3.1510   -1.4840 n3        1 C19     -0.248000
     29 C41         5.8140   -1.7440   -2.3500 c3        1 C19     -0.201000
     30 C45         4.1880   -1.5950   -4.2310 c3        1 C19     -0.201000
     31 H2         -5.0250    1.4000   -1.3370 ha        1 C19      0.167000
     32 H8         -2.6920    1.4950   -0.6400 ha        1 C19      0.152000
     33 H10        -1.6090   -0.0080    3.0120 ha        1 C19      0.135000
     34 H11        -3.8640   -0.6490    3.4150 ha        1 C19      0.151000
     35 HN15       -8.6320   -1.0120    0.8790 hn        1 C19      0.220000
     36 HN1A       -7.9300   -1.0490    2.2940 hn        1 C19      0.220000
     37 H19         2.0590    0.4670    2.4760 h4        1 C19      0.160000
     38 H20         0.6230    1.9390    4.0830 ha        1 C19      0.152000
     39 H22        -1.3530    3.9070    4.0040 hc        1 C19      0.095667
     40 H22A       -2.2410    2.5690    3.9570 hc        1 C19      0.095667
     41 H22B       -2.4470    3.7020    2.8470 hc        1 C19      0.095667
     42 H28         2.7070    2.0510   -0.8310 ha        1 C19      0.136000
     43 H29         4.1820    0.9680   -2.3410 ha        1 C19      0.137000
     44 H32         1.0730   -1.5830    0.1950 ha        1 C19      0.167000
     45 H37         4.6540   -3.7520   -2.0540 h1        1 C19      0.091000
     46 H37A        3.5700   -3.6490   -3.2630 h1        1 C19      0.091000
     47 HN38        2.0850   -3.5210   -1.8370 hn        1 C19      0.187000
     48 H41         5.9160   -1.9040   -1.3930 hc        1 C19      0.080000
     49 H41A        6.1180   -0.8370   -2.5640 hc        1 C19      0.080000
     50 H41B        6.3520   -2.3980   -2.8510 hc        1 C19      0.080000
     51 H45         3.2340   -1.5340   -4.4440 hc        1 C19      0.080000
     52 H45A        4.6270   -0.7440   -4.4490 hc        1 C19      0.080000
     53 H45B        4.5970   -2.3200   -4.7590 hc        1 C19      0.080000
@<TRIPOS>BOND
     1    1    6 1   
     2    2    3 1   
     3    2   31 1   
     4    3    7 1   
     5    4    5 1   
     6    4   10 1   
     7    6   11 1   
     8    7    8 1   
     9    7   32 1   
    10    8   12 1   
    11    9   10 1   
    12    9   33 1   
    13   10   34 1   
    14   11   35 1   
    15   11   36 1   
    16   12   13 1   
    17   12   17 1   
    18   13   14 1   
    19   13   19 1   
    20   14   15 1   
    21   14   20 1   
    22   15   16 1   
    23   15   37 1   
    24   16   38 1   
    25   17   18 1   
    26   18   39 1   
    27   18   40 1   
    28   18   41 1   
    29   20   21 1   
    30   20   25 1   
    31   21   22 1   
    32   21   42 1   
    33   22   43 1   
    34   23   24 1   
    35   23   26 1   
    36   24   28 1   
    37   25   44 1   
    38   26   27 1   
    39   26   29 1   
    40   26   30 1   
    41   27   28 1   
    42   27   45 1   
    43   27   46 1   
    44   28   47 1   
    45   29   48 1   
    46   29   49 1   
    47   29   50 1   
    48   30   51 1   
    49   30   52 1   
    50   30   53 1   
@<TRIPOS>SUBSTRUCTURE
     1 C19         1 TEMP              0 ****  ****    0 ROOT
