@<TRIPOS>MOLECULE
C19
   53    57     1     0     0
SMALL
bcc


@<TRIPOS>ATOM
      1 N1          5.7260    2.3200   -1.4840 nb        1 C19     -0.733000
      2 C2          4.5550    1.7230   -1.5610 ca        1 C19      0.491200
      3 C3          4.1180    0.7020   -0.6510 ca        1 C19     -0.318600
      4 C4          5.0280    0.3610    0.3960 ca        1 C19      0.464600
      5 N5          6.2590    0.9630    0.5120 nb        1 C19     -0.761000
      6 C6          6.5810    1.8950   -0.4310 ca        1 C19      0.864900
      7 C8          2.8630    0.0680   -0.7530 ca        1 C19     -0.037000
      8 C9          2.4950   -0.9040    0.1590 ca        1 C19     -0.063800
      9 C10         3.3880   -1.2350    1.2150 ca        1 C19     -0.085000
     10 C11         4.6140   -0.6330    1.3400 ca        1 C19     -0.201300
     11 N15         7.8690    2.4420   -0.4140 nh        1 C19     -0.923500
     12 C16         1.2040   -1.5810    0.0650 cc        1 C19     -0.152400
     13 C17         0.0220   -0.7110   -0.1020 c         1 C19      0.700700
     14 N18        -1.2520   -1.3420   -0.0890 n         1 C19     -0.260200
     15 C19        -1.3470   -2.7190   -0.0050 cc        1 C19      0.018600
     16 C20        -0.2440   -3.5220    0.0860 cd        1 C19     -0.251000
     17 C21         1.0650   -2.9440    0.1270 cd        1 C19      0.028800
     18 C22         2.2110   -3.8780    0.2330 c3        1 C19     -0.071900
     19 O26         0.0840    0.5230   -0.2630 o         1 C19     -0.630500
     20 C27        -2.4590   -0.5800   -0.1380 ca        1 C19      0.051600
     21 C28        -2.6110    0.4630   -1.0680 ca        1 C19     -0.131000
     22 C29        -3.8020    1.1980   -1.1240 ca        1 C19     -0.080000
     23 C30        -4.8340    0.8900   -0.2630 ca        1 C19     -0.124300
     24 C31        -4.6890   -0.1680    0.6850 ca        1 C19      0.106600
     25 C32        -3.5070   -0.8980    0.7610 ca        1 C19     -0.172000
     26 C36        -6.1990    1.5130   -0.1170 c3        1 C19     -0.013700
     27 C37        -6.8310    0.6670    1.0440 c3        1 C19      0.159800
     28 N38        -5.8790   -0.3840    1.4290 nh        1 C19     -0.691600
     29 C41        -7.0160    1.3590   -1.3850 c3        1 C19     -0.083100
     30 C45        -6.1050    2.9740    0.2740 c3        1 C19     -0.083100
     31 H2          3.8840    2.0510   -2.3790 h4        1 C19      0.029100
     32 H8          2.1700    0.3730   -1.5550 ha        1 C19      0.151000
     33 H10         3.0710   -1.9920    1.9500 ha        1 C19      0.135000
     34 H11         5.2900   -0.9000    2.1660 ha        1 C19      0.151000
     35 HN15        8.3760    2.3520    0.4360 hn        1 C19      0.424800
     36 HN1A        7.9920    3.2950   -0.9080 hn        1 C19      0.424800
     37 H19        -2.3720   -3.1370   -0.0290 h4        1 C19      0.162000
     38 H20        -0.3550   -4.6130    0.1290 ha        1 C19      0.152000
     39 H22         2.3400   -4.2000    1.2970 hc        1 C19      0.056367
     40 H22A        2.0270   -4.7900   -0.3890 hc        1 C19      0.056367
     41 H22B        3.1630   -3.4010   -0.1110 hc        1 C19      0.056367
     42 H28        -1.7810    0.7310   -1.7410 ha        1 C19      0.160000
     43 H29        -3.9030    2.0160   -1.8530 ha        1 C19      0.141000
     44 H32        -3.3920   -1.6980    1.5060 ha        1 C19      0.144000
     45 H37        -7.0920    1.3310    1.9100 h1        1 C19      0.052200
     46 H37A       -7.7660    0.1560    0.6900 h1        1 C19      0.052200
     47 HN38       -5.7220   -0.4400    2.4150 hn        1 C19      0.384800
     48 H41        -7.1030    0.2830   -1.6670 hc        1 C19      0.041033
     49 H41A       -8.0410    1.7760   -1.2340 hc        1 C19      0.041033
     50 H41B       -6.5250    1.9090   -2.2240 hc        1 C19      0.041033
     51 H45        -5.6010    3.5540   -0.5370 hc        1 C19      0.041033
     52 H45A       -7.1260    3.3950    0.4340 hc        1 C19      0.041033
     53 H45B       -5.5150    3.0930    1.2140 hc        1 C19      0.041033
@<TRIPOS>BOND
     1    1    2 ar  
     2    1    6 ar  
     3    2    3 ar  
     4    2   31 1   
     5    3    4 ar  
     6    3    7 ar  
     7    4    5 ar  
     8    4   10 ar  
     9    5    6 ar  
    10    6   11 1   
    11    7    8 ar  
    12    7   32 1   
    13    8    9 ar  
    14    8   12 1   
    15    9   10 ar  
    16    9   33 1   
    17   10   34 1   
    18   11   35 1   
    19   11   36 1   
    20   12   13 1   
    21   12   17 2   
    22   13   14 1   
    23   13   19 2   
    24   14   15 1   
    25   14   20 1   
    26   15   16 2   
    27   15   37 1   
    28   16   17 1   
    29   16   38 1   
    30   17   18 1   
    31   18   39 1   
    32   18   40 1   
    33   18   41 1   
    34   20   21 ar  
    35   20   25 ar  
    36   21   22 ar  
    37   21   42 1   
    38   22   23 ar  
    39   22   43 1   
    40   23   24 ar  
    41   23   26 1   
    42   24   25 ar  
    43   24   28 1   
    44   25   44 1   
    45   26   27 1   
    46   26   29 1   
    47   26   30 1   
    48   27   28 1   
    49   27   45 1   
    50   27   46 1   
    51   28   47 1   
    52   29   48 1   
    53   29   49 1   
    54   29   50 1   
    55   30   51 1   
    56   30   52 1   
    57   30   53 1   
@<TRIPOS>SUBSTRUCTURE
     1 C19         1 TEMP              0 ****  ****    0 ROOT
