@<TRIPOS>MOLECULE
C19
   54    58     1     0     0
SMALL
bcc


@<TRIPOS>ATOM
      1 N1          0.1410   -0.0690   -0.3960 nb        1 C19     -0.694000
      2 C2          1.4490   -0.0900   -0.1950 ca        1 C19      0.505200
      3 C3          2.0490    0.0630    1.1030 ca        1 C19     -0.231600
      4 C4          1.1560    0.2440    2.2150 ca        1 C19      0.395600
      5 N5         -0.2130    0.2710    2.0260 nb        1 C19     -0.628000
      6 C6         -0.6300    0.1140    0.7610 ca        1 C19      0.661900
      7 C8          3.4380    0.0300    1.3070 ca        1 C19     -0.075000
      8 C9          3.9660    0.1650    2.5870 ca        1 C19      0.045200
      9 C10         3.0800    0.3370    3.6840 ca        1 C19     -0.085000
     10 C11         1.7140    0.3810    3.5180 ca        1 C19     -0.159300
     11 N15        -2.1050    0.1290    0.5310 n4        1 C19     -0.810300
     12 C16         5.4030    0.0910    2.8150 cc        1 C19     -0.229400
     13 C17         6.1080   -1.0020    2.1190 c         1 C19      0.706700
     14 N18         7.4810   -1.1850    2.4280 n         1 C19     -0.238200
     15 C19         8.1270   -0.3050    3.2650 cc        1 C19      0.056600
     16 C20         7.4840    0.7590    3.8500 cd        1 C19     -0.271000
     17 C21         6.0910    0.9620    3.6310 cd        1 C19      0.078800
     18 C22         5.4660    2.1290    4.2980 c3        1 C19     -0.084900
     19 O26         5.5600   -1.7490    1.2840 o         1 C19     -0.638500
     20 C27         8.2180   -2.2950    1.8990 ca        1 C19      0.030600
     21 C28         8.1590   -2.6020    0.5310 ca        1 C19     -0.130000
     22 C29         8.8930   -3.6800    0.0160 ca        1 C19     -0.079000
     23 C30         9.6780   -4.4350    0.8590 ca        1 C19     -0.113300
     24 C31         9.7330   -4.1350    2.2570 ca        1 C19      0.121600
     25 C32         9.0120   -3.0670    2.7830 ca        1 C19     -0.175000
     26 C36        10.5530   -5.6280    0.5680 c3        1 C19     -0.014700
     27 C37        11.1200   -5.9830    1.9880 c3        1 C19      0.161800
     28 N38        10.5080   -5.0800    2.9700 nh        1 C19     -0.695600
     29 C41        11.6770   -5.2740   -0.3850 c3        1 C19     -0.084100
     30 C45         9.7430   -6.7860    0.0200 c3        1 C19     -0.084100
     31 H2          2.0850   -0.2390   -1.0930 h4        1 C19      0.069100
     32 H8          4.1100   -0.1380    0.4460 ha        1 C19      0.182000
     33 H10         3.5070    0.4190    4.7000 ha        1 C19      0.164000
     34 H11         1.0470    0.5100    4.3870 ha        1 C19      0.168000
     35 HN15       -2.6020    0.2780    1.4170 hn        1 C19      0.475467
     36 HN1A       -2.3840   -0.7710    0.1230 hn        1 C19      0.475467
     37 H19         9.2050   -0.4950    3.4370 h4        1 C19      0.175000
     38 H20         8.0420    1.4540    4.4920 ha        1 C19      0.165000
     39 H22         6.1630    3.0050    4.2760 hc        1 C19      0.063033
     40 H22A        5.2530    1.8830    5.3700 hc        1 C19      0.063033
     41 H22B        4.5110    2.4300    3.8020 hc        1 C19      0.063033
     42 H28         7.5160   -2.0180   -0.1450 ha        1 C19      0.153000
     43 H29         8.8380   -3.9120   -1.0590 ha        1 C19      0.146000
     44 H32         9.0440   -2.8460    3.8590 ha        1 C19      0.145000
     45 H37        10.8320   -7.0310    2.2730 h1        1 C19      0.058200
     46 H37A       12.2390   -5.9040    1.9910 h1        1 C19      0.058200
     47 HN38       11.1510   -4.6790    3.6200 hn        1 C19      0.393800
     48 H41        11.2580   -4.9690   -1.3740 hc        1 C19      0.044033
     49 H41A       12.3430   -6.1570   -0.5350 hc        1 C19      0.044033
     50 H41B       12.2860   -4.4300    0.0180 hc        1 C19      0.044033
     51 H45        10.4020   -7.6750   -0.1320 hc        1 C19      0.044033
     52 H45A        9.2890   -6.5050   -0.9600 hc        1 C19      0.044033
     53 H45B        8.9240   -7.0630    0.7270 hc        1 C19      0.044033
     54 H153       -2.3310    0.8850   -0.1260 hn        1 C19      0.475467
@<TRIPOS>BOND
     1    1    2 ar  
     2    1    6 ar  
     3    2    3 ar  
     4    2   31 1   
     5    3    4 ar  
     6    3    7 ar  
     7    4    5 ar  
     8    4   10 ar  
     9    5    6 ar  
    10    6   11 1   
    11    7    8 ar  
    12    7   32 1   
    13    8    9 ar  
    14    8   12 1   
    15    9   10 ar  
    16    9   33 1   
    17   10   34 1   
    18   11   35 1   
    19   11   36 1   
    20   11   54 1   
    21   12   13 1   
    22   12   17 2   
    23   13   14 1   
    24   13   19 2   
    25   14   15 1   
    26   14   20 1   
    27   15   16 2   
    28   15   37 1   
    29   16   17 1   
    30   16   38 1   
    31   17   18 1   
    32   18   39 1   
    33   18   40 1   
    34   18   41 1   
    35   20   21 ar  
    36   20   25 ar  
    37   21   22 ar  
    38   21   42 1   
    39   22   23 ar  
    40   22   43 1   
    41   23   24 ar  
    42   23   26 1   
    43   24   25 ar  
    44   24   28 1   
    45   25   44 1   
    46   26   27 1   
    47   26   29 1   
    48   26   30 1   
    49   27   28 1   
    50   27   45 1   
    51   27   46 1   
    52   28   47 1   
    53   29   48 1   
    54   29   49 1   
    55   29   50 1   
    56   30   51 1   
    57   30   52 1   
    58   30   53 1   
@<TRIPOS>SUBSTRUCTURE
     1 C19         1 TEMP              0 ****  ****    0 ROOT
