@<TRIPOS>MOLECULE
C19
   53    57     1     0     0
SMALL
bcc


@<TRIPOS>ATOM
      1 N1          0.0800    0.1250   -0.4040 nb        1 C19     -0.733000
      2 C2          1.3770    0.0390   -0.2020 ca        1 C19      0.491200
      3 C3          1.9900    0.1090    1.0950 ca        1 C19     -0.318600
      4 C4          1.1010    0.2590    2.2030 ca        1 C19      0.464600
      5 N5         -0.2610    0.3500    2.0340 nb        1 C19     -0.761000
      6 C6         -0.7270    0.3060    0.7520 ca        1 C19      0.864900
      7 C8          3.3830    0.0230    1.2920 ca        1 C19     -0.037000
      8 C9          3.9140    0.0900    2.5670 ca        1 C19     -0.063800
      9 C10         3.0330    0.2190    3.6770 ca        1 C19     -0.085000
     10 C11         1.6740    0.3020    3.5150 ca        1 C19     -0.201300
     11 N15        -2.0940    0.5130    0.5330 nh        1 C19     -0.923500
     12 C16         5.3550    0.0130    2.7930 cc        1 C19     -0.152400
     13 C17         6.0630   -1.0910    2.1140 c         1 C19      0.700700
     14 N18         7.4470   -1.2470    2.4050 n         1 C19     -0.260200
     15 C19         8.0920   -0.3420    3.2260 cc        1 C19      0.018600
     16 C20         7.4420    0.7150    3.8010 cd        1 C19     -0.251000
     17 C21         6.0380    0.8990    3.5860 cd        1 C19      0.028800
     18 C22         5.4020    2.0630    4.2470 c3        1 C19     -0.071900
     19 O26         5.5240   -1.8700    1.3060 o         1 C19     -0.630500
     20 C27         8.1960   -2.3450    1.8820 ca        1 C19      0.051600
     21 C28         8.0970   -2.6990    0.5260 ca        1 C19     -0.131000
     22 C29         8.8460   -3.7650    0.0130 ca        1 C19     -0.080000
     23 C30         9.6900   -4.4680    0.8460 ca        1 C19     -0.124300
     24 C31         9.7990   -4.1150    2.2250 ca        1 C19      0.106600
     25 C32         9.0510   -3.0670    2.7520 ca        1 C19     -0.172000
     26 C36        10.5940   -5.6380    0.5540 c3        1 C19     -0.013700
     27 C37        11.2480   -5.9140    1.9540 c3        1 C19      0.159800
     28 N38        10.7700   -4.8990    2.9030 nh        1 C19     -0.691600
     29 C41        11.6600   -5.2750   -0.4610 c3        1 C19     -0.083100
     30 C45         9.8080   -6.8440    0.0830 c3        1 C19     -0.083100
     31 H2          2.0110   -0.1030   -1.0990 h4        1 C19      0.029100
     32 H8          4.0420   -0.1210    0.4200 ha        1 C19      0.151000
     33 H10         3.4680    0.2440    4.6890 ha        1 C19      0.135000
     34 H11         1.0080    0.4000    4.3860 ha        1 C19      0.151000
     35 HN15       -2.4520    0.2060   -0.3410 hn        1 C19      0.424800
     36 HN1A       -2.6910    0.3910    1.3190 hn        1 C19      0.424800
     37 H19         9.1750   -0.5140    3.3830 h4        1 C19      0.162000
     38 H20         7.9900    1.4280    4.4310 ha        1 C19      0.152000
     39 H22         4.4410    2.3440    3.7480 hc        1 C19      0.056367
     40 H22A        6.0870    2.9470    4.2200 hc        1 C19      0.056367
     41 H22B        5.1870    1.8190    5.3180 hc        1 C19      0.056367
     42 H28         7.4040   -2.1590   -0.1390 ha        1 C19      0.160000
     43 H29         8.7520   -4.0360   -1.0490 ha        1 C19      0.141000
     44 H32         9.1210   -2.8100    3.8190 ha        1 C19      0.144000
     45 H37        11.0040   -6.9540    2.2980 h1        1 C19      0.052200
     46 H37A       12.3640   -5.8110    1.8910 h1        1 C19      0.052200
     47 HN38       10.4350   -5.2820    3.7640 hn        1 C19      0.384800
     48 H41        12.2540   -4.3980   -0.1100 hc        1 C19      0.041033
     49 H41A       12.3510   -6.1380   -0.6180 hc        1 C19      0.041033
     50 H41B       11.1830   -5.0160   -1.4370 hc        1 C19      0.041033
     51 H45         9.3000   -6.6150   -0.8850 hc        1 C19      0.041033
     52 H45A       10.4920   -7.7140   -0.0680 hc        1 C19      0.041033
     53 H45B        9.0300   -7.1260    0.8320 hc        1 C19      0.041033
@<TRIPOS>BOND
     1    1    2 ar  
     2    1    6 ar  
     3    2    3 ar  
     4    2   31 1   
     5    3    4 ar  
     6    3    7 ar  
     7    4    5 ar  
     8    4   10 ar  
     9    5    6 ar  
    10    6   11 1   
    11    7    8 ar  
    12    7   32 1   
    13    8    9 ar  
    14    8   12 1   
    15    9   10 ar  
    16    9   33 1   
    17   10   34 1   
    18   11   35 1   
    19   11   36 1   
    20   12   13 1   
    21   12   17 2   
    22   13   14 1   
    23   13   19 2   
    24   14   15 1   
    25   14   20 1   
    26   15   16 2   
    27   15   37 1   
    28   16   17 1   
    29   16   38 1   
    30   17   18 1   
    31   18   39 1   
    32   18   40 1   
    33   18   41 1   
    34   20   21 ar  
    35   20   25 ar  
    36   21   22 ar  
    37   21   42 1   
    38   22   23 ar  
    39   22   43 1   
    40   23   24 ar  
    41   23   26 1   
    42   24   25 ar  
    43   24   28 1   
    44   25   44 1   
    45   26   27 1   
    46   26   29 1   
    47   26   30 1   
    48   27   28 1   
    49   27   45 1   
    50   27   46 1   
    51   28   47 1   
    52   29   48 1   
    53   29   49 1   
    54   29   50 1   
    55   30   51 1   
    56   30   52 1   
    57   30   53 1   
@<TRIPOS>SUBSTRUCTURE
     1 C19         1 TEMP              0 ****  ****    0 ROOT
