@<TRIPOS>MOLECULE
C1A
   50    48     1     0     0
SMALL
bcc


@<TRIPOS>ATOM
      1 C1         72.5820    3.3490  -40.2230 c3        1 C1A     -0.079800
      2 C2         72.7250    2.4620  -39.0450 ca        1 C1A     -0.029300
      3 C3         73.7580    2.6940  -38.1310 ca        1 C1A     -0.094000
      4 C4         73.9210    1.8930  -36.9920 ca        1 C1A     -0.106300
      5 C5         75.0640    2.1570  -36.0890 c3        1 C1A     -0.001000
      6 S1         74.3950    3.3730  -34.9550 ss        1 C1A      0.187800
      7 C6         75.5490    3.7330  -33.9350 c1        1 C1A      0.523900
      8 N1         76.3440    4.0580  -33.1400 n1        1 C1A     -0.573200
      9 N2        302.3030 -997.0150  776.4560 nh        1 C1A     -0.889800
     10 C7        303.2620 -997.9080  775.9100 c2        1 C1A      0.716100
     11 N3        303.7430 -997.9210  774.7310 n2        1 C1A     -0.692100
     12 N4        303.6440 -998.9600  776.9950 n4        1 C1A     -0.886600
     13 C8         73.0340    0.8260  -36.7550 ca        1 C1A     -0.029300
     14 C9         73.1770   -0.0610  -35.5770 c3        1 C1A     -0.079800
     15 C10        72.0010    0.5930  -37.6690 ca        1 C1A     -0.094000
     16 C11        71.8380    1.3940  -38.8070 ca        1 C1A     -0.106300
     17 C12        70.6960    1.1290  -39.7120 c3        1 C1A     -0.001000
     18 S2         71.3660   -0.0850  -40.8460 ss        1 C1A      0.187800
     19 C13        70.2130   -0.4420  -41.8700 c1        1 C1A      0.523900
     20 N5         69.4200   -0.7640  -42.6670 n1        1 C1A     -0.573200
     21 N6       -507.6800  991.7140 -662.5570 nh        1 C1A     -0.889800
     22 C14      -506.9850  992.9510 -662.5590 c2        1 C1A      0.716100
     23 N7       -505.7580  993.1640 -662.2900 n2        1 C1A     -0.692100
     24 N8       -507.9860  994.0900 -662.9160 n4        1 C1A     -0.886600
     25 H51        75.3910    1.2320  -35.5500 h1        1 C1A      0.119700
     26 H52        75.9420    2.5710  -36.6470 h1        1 C1A      0.119700
     27 HN1        77.0030    4.3450  -32.4630 hn        1 C1A      0.567400
     28 HN2       301.5290 -996.8580  775.8350 hn        1 C1A      0.445300
     29 HN3       304.3680 -998.6210  774.3940 hn        1 C1A      0.471400
     30 HN41      304.2890 -999.6600  776.6270 hn        1 C1A      0.463133
     31 HN42      302.7910 -999.4260  777.3240 hn        1 C1A      0.463133
     32 H91        74.0880   -0.7060  -35.6870 hc        1 C1A      0.068367
     33 H92        73.2750    0.5370  -34.6360 hc        1 C1A      0.068367
     34 H93        72.2910   -0.7360  -35.4640 hc        1 C1A      0.068367
     35 H10        71.2970   -0.2360  -37.4780 ha        1 C1A      0.160000
     36 H121       69.8180    0.7150  -39.1530 h1        1 C1A      0.119700
     37 H122       70.3680    2.0550  -40.2490 h1        1 C1A      0.119700
     38 HN5        68.7620   -1.0500  -43.3450 hn        1 C1A      0.567400
     39 HN6      -507.5630  991.2040 -663.4130 hn        1 C1A      0.445300
     40 HN7      -505.3480  994.0710 -662.2470 hn        1 C1A      0.471400
     41 HN81     -507.5400  995.0070 -662.8720 hn        1 C1A      0.463133
     42 HN82     -508.3530  993.9380 -663.8600 hn        1 C1A      0.463133
     43 H1         72.4830    2.7510  -41.1630 hc        1 C1A      0.068367
     44 H20        73.4680    4.0230  -40.3360 hc        1 C1A      0.068367
     45 H21        71.6710    3.9930  -40.1120 hc        1 C1A      0.068367
     46 H31        74.4620    3.5230  -38.3220 ha        1 C1A      0.160000
     47 H22       302.7140 -996.1590  776.7810 hn        1 C1A      0.445300
     48 H43       304.0790 -998.4860  777.7910 hn        1 C1A      0.463133
     49 H62      -507.4710  991.1570 -661.7470 hn        1 C1A      0.445300
     50 H83      -508.7720  994.0640 -662.2560 hn        1 C1A      0.463133
@<TRIPOS>BOND
     1    1    2 1   
     2    1   43 1   
     3    1   44 1   
     4    1   45 1   
     5    2    3 ar  
     6    2   16 ar  
     7    3    4 ar  
     8    3   46 1   
     9    4    5 1   
    10    4   13 ar  
    11    5    6 1   
    12    5   25 1   
    13    5   26 1   
    14    6    7 1   
    15    7    8 3   
    16    8   27 1   
    17    9   10 1   
    18    9   28 1   
    19    9   47 1   
    20   10   11 2   
    21   10   12 1   
    22   11   29 1   
    23   12   30 1   
    24   12   31 1   
    25   12   48 1   
    26   13   14 1   
    27   13   15 ar  
    28   14   32 1   
    29   14   33 1   
    30   14   34 1   
    31   15   16 ar  
    32   15   35 1   
    33   16   17 1   
    34   17   18 1   
    35   17   36 1   
    36   17   37 1   
    37   18   19 1   
    38   19   20 3   
    39   20   38 1   
    40   21   22 1   
    41   21   39 1   
    42   21   49 1   
    43   22   23 2   
    44   22   24 1   
    45   23   40 1   
    46   24   41 1   
    47   24   42 1   
    48   24   50 1   
@<TRIPOS>SUBSTRUCTURE
     1 C1A         1 TEMP              0 ****  ****    0 ROOT
