@<TRIPOS>MOLECULE
C1A
   46    40     1     0     0
SMALL
bcc


@<TRIPOS>ATOM
      1 C1         -2.5800   -0.6470   -0.0580 c3        1 C1A     -0.189000
      2 C2         -1.0680   -0.6140   -0.0290 c2        1 C1A     -0.048000
      3 C3         -0.3990   -0.5820    1.1850 c1        1 C1A     -0.109000
      4 C4          0.9870   -0.5760    1.2120 c1        1 C1A     -0.064000
      5 C5          1.7170   -0.6220    2.5370 c3        1 C1A     -0.234000
      6 S1          1.0710    0.6310    3.6110 ss        1 C1A      0.106000
      7 C6          1.7880    0.4540    5.2240 c2        1 C1A     -0.012000
      8 N1          2.5550   -0.5700    5.4890 n1        1 C1A     -0.287000
      9 N2          1.5280    1.4250    6.2260 n3        1 C1A     -0.249000
     10 C7          0.9560    1.0320    7.4630 c2        1 C1A      0.180000
     11 N3          1.6070    0.2220    8.2560 n1        1 C1A     -0.328000
     12 N4         -0.3070    1.5440    7.8540 n3        1 C1A     -0.355000
     13 C8          1.7030   -0.6020    0.0260 c1        1 C1A     -0.047000
     14 C9          3.2150   -0.6510    0.0570 c2        1 C1A     -0.189000
     15 C10         1.0340   -0.6350   -1.1880 c2        1 C1A     -0.108000
     16 C11        -0.3520   -0.6400   -1.2150 c2        1 C1A     -0.067000
     17 C12        -1.0810   -0.7790   -2.5340 c3        1 C1A     -0.235000
     18 S2         -0.6820    0.5980   -3.5780 ss        1 C1A      0.122000
     19 C13        -1.4120    0.3590   -5.1770 c2        1 C1A     -0.004000
     20 N5         -1.8590   -0.8190   -5.5210 n1        1 C1A     -0.328000
     21 N6         -1.5100    1.4490   -6.0830 n3        1 C1A     -0.264000
     22 C14        -1.7820    1.2080   -7.4570 c2        1 C1A      0.166000
     23 N7         -1.7710    2.1990   -8.3090 n1        1 C1A     -0.302000
     24 N8         -2.0870   -0.1060   -7.9010 n3        1 C1A     -0.329000
     25 H51         2.6710   -0.4650    2.3890 h1        1 C1A      0.115500
     26 H52         1.5910   -1.5010    2.9480 h1        1 C1A      0.115500
     27 HN1         2.7220   -1.1950    4.8440 DU        1 C1A      0.161750
     28 HN2         1.7440    2.2990    6.0800 hn        1 C1A      0.235000
     29 HN3         1.2380   -0.0310    9.0530 DU        1 C1A      0.161750
     30 HN41       -0.5000    1.6570    8.7410 hn        1 C1A      0.196000
     31 HN42       -0.9230    1.7760    7.2200 hn        1 C1A      0.196000
     32 H91         3.5060   -1.4900    0.4720 ha        1 C1A      0.092333
     33 H92         3.5620   -0.6020   -0.8580 ha        1 C1A      0.092333
     34 H93         3.5560    0.1060    0.5770 ha        1 C1A      0.092333
     35 H10         1.5380   -0.6530   -2.0230 ha        1 C1A      0.141000
     36 H121       -2.0450   -0.7980   -2.3740 h1        1 C1A      0.115000
     37 H122       -0.8070   -1.6100   -2.9720 h1        1 C1A      0.115000
     38 HN5        -1.7960   -1.5200   -4.9380 DU        1 C1A      0.161750
     39 HN6        -1.4160    2.3040   -5.7800 hn        1 C1A      0.241000
     40 HN7        -1.9460    2.0450   -9.1920 DU        1 C1A      0.161750
     41 HN81       -1.8460   -0.8260   -7.3950 hn        1 C1A      0.183500
     42 HN82       -2.4940   -0.2320   -8.7100 hn        1 C1A      0.183500
     43 H1         -2.9100    0.0340   -0.6800 hc        1 C1A      0.091333
     44 H20        -2.9280   -0.4650    0.8400 hc        1 C1A      0.091333
     45 H21        -2.8820   -1.5320   -0.3510 hc        1 C1A      0.091333
     46 H31        -0.9030   -0.5810    2.0200 ha        1 C1A      0.141000
@<TRIPOS>BOND
     1    1    2 1   
     2    1   43 1   
     3    1   44 1   
     4    1   45 1   
     5    2    3 1   
     6    2   16 1   
     7    3   46 1   
     8    4    5 1   
     9    4   13 1   
    10    5    6 1   
    11    5   25 1   
    12    5   26 1   
    13    6    7 1   
    14    7    8 1   
    15    7    9 1   
    16    9   10 1   
    17    9   28 1   
    18   10   11 1   
    19   10   12 1   
    20   12   30 1   
    21   12   31 1   
    22   13   15 1   
    23   14   32 1   
    24   14   33 1   
    25   14   34 1   
    26   15   16 1   
    27   15   35 1   
    28   16   17 1   
    29   17   18 1   
    30   17   36 1   
    31   17   37 1   
    32   18   19 1   
    33   19   20 1   
    34   19   21 1   
    35   21   22 1   
    36   21   39 1   
    37   22   23 1   
    38   22   24 1   
    39   24   41 1   
    40   24   42 1   
@<TRIPOS>SUBSTRUCTURE
     1 C1A         1 TEMP              0 ****  ****    0 ROOT
