@<TRIPOS>MOLECULE
C1A
   50    48     1     0     0
SMALL
bcc


@<TRIPOS>ATOM
      1 C1         87.1770    3.3980  -45.1660 c3        1 C1A     -0.079800
      2 C2         86.6000    2.0580  -45.4250 ca        1 C1A     -0.029300
      3 C3         86.7730    1.0410  -44.4800 ca        1 C1A     -0.094000
      4 C4         86.2290   -0.2360  -44.6720 ca        1 C1A     -0.106300
      5 C5         86.4890   -1.2850  -43.6600 c3        1 C1A     -0.001000
      6 S1         85.1500   -1.0460  -42.4950 ss        1 C1A      0.187800
      7 C6         85.3240   -2.1390  -41.3640 c1        1 C1A      0.523900
      8 N1         85.3770   -2.9120  -40.4870 n1        1 C1A     -0.573200
      9 N2        125.0040 -551.9260  513.2320 nh        1 C1A     -0.889800
     10 C7        125.8190 -552.8020  512.4690 c2        1 C1A      0.716100
     11 N3        126.2740 -552.6270  511.2920 n2        1 C1A     -0.692100
     12 N4        126.0640 -554.1020  513.2900 n4        1 C1A     -0.886600
     13 C8         85.4930   -0.5150  -45.8400 ca        1 C1A     -0.029300
     14 C9         84.9160   -1.8550  -46.0980 c3        1 C1A     -0.079800
     15 C10        85.3190    0.5030  -46.7850 ca        1 C1A     -0.094000
     16 C11        85.8630    1.7800  -46.5930 ca        1 C1A     -0.106300
     17 C12        85.6030    2.8290  -47.6040 c3        1 C1A     -0.001000
     18 S2         86.9370    2.5840  -48.7750 ss        1 C1A      0.187800
     19 C13        86.7550    3.6700  -49.9110 c1        1 C1A      0.523900
     20 N5         86.6950    4.4380  -50.7920 n1        1 C1A     -0.573200
     21 N6       -368.6070  549.9570 -374.9980 nh        1 C1A     -0.889800
     22 C14      -369.6150  550.7240 -375.6370 c2        1 C1A      0.716100
     23 N7       -370.7240  551.1230 -375.1550 n2        1 C1A     -0.692100
     24 N8       -369.1430  551.0710 -377.0810 n4        1 C1A     -0.886600
     25 H51        87.4820   -1.1390  -43.1640 h1        1 C1A      0.119700
     26 H52        86.4640   -2.3110  -44.1090 h1        1 C1A      0.119700
     27 HN1        85.4080   -3.5560  -39.7390 hn        1 C1A      0.567400
     28 HN2       125.5360 -551.2240  513.7120 hn        1 C1A      0.445300
     29 HN3       126.7880 -553.3150  510.7880 hn        1 C1A      0.471400
     30 HN41      126.6040 -554.7850  512.7570 hn        1 C1A      0.463133
     31 HN42      125.1600 -554.5120  513.5470 hn        1 C1A      0.463133
     32 H91        85.7330   -2.5940  -46.3040 hc        1 C1A      0.068367
     33 H92        84.2340   -1.8410  -46.9850 hc        1 C1A      0.068367
     34 H93        84.3260   -2.2110  -45.2170 hc        1 C1A      0.068367
     35 H10        84.7320    0.2900  -47.6950 ha        1 C1A      0.160000
     36 H121       85.6330    3.8540  -47.1570 h1        1 C1A      0.119700
     37 H122       84.6070    2.6860  -48.0960 h1        1 C1A      0.119700
     38 HN5        86.6590    5.0770  -51.5430 hn        1 C1A      0.567400
     39 HN6      -368.4050  550.2850 -374.0700 hn        1 C1A      0.445300
     40 HN7      -371.3600  551.7170 -375.6410 hn        1 C1A      0.471400
     41 HN81     -368.2380  551.5520 -377.0310 hn        1 C1A      0.463133
     42 HN82     -369.8160  551.6680 -377.5620 hn        1 C1A      0.463133
     43 H1         87.8610    3.3840  -44.2810 hc        1 C1A      0.068367
     44 H20        87.7640    3.7560  -46.0480 hc        1 C1A      0.068367
     45 H21        86.3600    4.1360  -44.9570 hc        1 C1A      0.068367
     46 H31        87.3600    1.2540  -43.5690 ha        1 C1A      0.160000
     47 H22       124.2510 -551.5340  512.6930 hn        1 C1A      0.445300
     48 H43       126.5700 -553.8720  514.1510 hn        1 C1A      0.463133
     49 H62      -368.7980  548.9720 -375.0220 hn        1 C1A      0.445300
     50 H83      -369.0180  550.2060 -377.6160 hn        1 C1A      0.463133
@<TRIPOS>BOND
     1    1    2 1   
     2    1   43 1   
     3    1   44 1   
     4    1   45 1   
     5    2    3 ar  
     6    2   16 ar  
     7    3    4 ar  
     8    3   46 1   
     9    4    5 1   
    10    4   13 ar  
    11    5    6 1   
    12    5   25 1   
    13    5   26 1   
    14    6    7 1   
    15    7    8 3   
    16    8   27 1   
    17    9   10 1   
    18    9   28 1   
    19    9   47 1   
    20   10   11 2   
    21   10   12 1   
    22   11   29 1   
    23   12   30 1   
    24   12   31 1   
    25   12   48 1   
    26   13   14 1   
    27   13   15 ar  
    28   14   32 1   
    29   14   33 1   
    30   14   34 1   
    31   15   16 ar  
    32   15   35 1   
    33   16   17 1   
    34   17   18 1   
    35   17   36 1   
    36   17   37 1   
    37   18   19 1   
    38   19   20 3   
    39   20   38 1   
    40   21   22 1   
    41   21   39 1   
    42   21   49 1   
    43   22   23 2   
    44   22   24 1   
    45   23   40 1   
    46   24   41 1   
    47   24   42 1   
    48   24   50 1   
@<TRIPOS>SUBSTRUCTURE
     1 C1A         1 TEMP              0 ****  ****    0 ROOT
