@<TRIPOS>MOLECULE
C1A
   50    49     1     0     0
SMALL
bcc


@<TRIPOS>ATOM
      1 C1         57.2710   -0.6730  -30.8160 c3        1 C1A     -0.205000
      2 C2         57.3400    0.7240  -30.3290 ca        1 C1A     -0.022000
      3 C3         57.1680    1.7770  -31.2350 ca        1 C1A     -0.094000
      4 C4         57.2040    3.1140  -30.8170 ca        1 C1A     -0.099000
      5 C5         57.0650    4.1850  -31.8300 c3        1 C1A     -0.269000
      6 S1         55.2900    4.4000  -31.9310 ss        1 C1A      0.595000
      7 C6         55.0260    5.5500  -32.9850 c1        1 C1A     -0.027000
      8 N1         54.7400    6.3890  -33.7490 n2        1 C1A     -0.084000
      9 N2        383.5090-1062.0400  883.6090 n8        1 C1A     -0.328000
     10 C7        384.7370-1062.7460  883.5330 c2        1 C1A      0.124000
     11 N3        385.7180-1062.5360  882.7470 n2        1 C1A     -0.160000
     12 N4        384.7130-1063.9080  884.5700 nz        1 C1A     -0.120000
     13 C8         57.4220    3.4170  -29.4590 ca        1 C1A     -0.022000
     14 C9         57.4900    4.8150  -28.9720 c3        1 C1A     -0.205000
     15 C10        57.5940    2.3650  -28.5530 ca        1 C1A     -0.094000
     16 C11        57.5570    1.0280  -28.9710 ca        1 C1A     -0.099000
     17 C12        57.6970   -0.0430  -27.9580 c3        1 C1A     -0.269000
     18 S2         59.4720   -0.2570  -27.8570 ss        1 C1A      0.595000
     19 C13        59.7370   -1.4070  -26.8030 c1        1 C1A     -0.027000
     20 N5         60.0230   -2.2450  -26.0380 n2        1 C1A     -0.084000
     21 N6       -542.4080    0.1280 -792.9440 n8        1 C1A     -0.328000
     22 C14      -541.8760    0.4490 -794.2200 c3        1 C1A      0.124000
     23 N7       -540.8830    0.9170 -794.8150 n2        1 C1A     -0.160000
     24 N8       -542.6860    0.6380 -794.8170 nz        1 C1A     -0.120000
     25 H51        57.4870    3.8710  -32.8190 h1        1 C1A      0.159000
     26 H52        57.5760    5.1280  -31.5110 h1        1 C1A      0.159000
     27 HN1        54.4810    7.0930  -34.3910 hn        1 C1A      0.404000
     28 HN2       383.5760-1061.2070  884.1650 hn        1 C1A      0.240500
     29 HN3       386.5280-1063.1150  882.7030 hn        1 C1A      0.227000
     30 HN41      383.8900-1064.4960  884.3960 hn        1 C1A      0.258333
     31 HN42      384.6390-1063.5210  885.5150 hn        1 C1A      0.258333
     32 H91        58.4230    5.3100  -29.3480 hc        1 C1A      0.107667
     33 H92        57.5060    4.8570  -27.8540 hc        1 C1A      0.107667
     34 H93        56.6070    5.4040  -29.3250 hc        1 C1A      0.107667
     35 H10        57.7530    2.6010  -27.4870 ha        1 C1A      0.160000
     36 H121       57.1860   -0.9870  -28.2770 h1        1 C1A      0.159000
     37 H122       57.2750    0.2710  -26.9700 h1        1 C1A      0.159000
     38 HN5        60.2830   -2.9480  -25.3960 hn        1 C1A      0.404000
     39 HN6      -543.0420    0.3510 -792.9750 hn        1 C1A      0.240500
     40 HN7      -540.5210    0.2370 -795.6860 hn        1 C1A      0.227000
     41 HN81     -543.6610    0.3530 -794.9520 hn        1 C1A      0.257500
     42 HN82     -542.2990    0.9440 -795.7110 hn        1 C1A      0.257500
     43 H1         57.2550   -0.7160  -31.9340 hc        1 C1A      0.107667
     44 H20        58.1550   -1.2620  -30.4640 hc        1 C1A      0.107667
     45 H21        56.3390   -1.1690  -30.4390 hc        1 C1A      0.107667
     46 H31        57.0090    1.5410  -32.3020 ha        1 C1A      0.160000
     47 H22       383.1100-1061.8640  882.7030 hn        1 C1A      0.240500
     48 H43       385.5550-1064.4820  884.5080 hn        1 C1A      0.258333
     49 H62      -541.6930    0.0120 -792.2470 hn        1 C1A      0.240500
     50 H83      -542.6680    0.4220 -794.1550 DU        1 C1A      0.260000
@<TRIPOS>BOND
     1    1    2 1   
     2    1   43 1   
     3    1   44 1   
     4    1   45 1   
     5    2    3 1   
     6    2   16 1   
     7    3    4 1   
     8    3   46 1   
     9    4    5 1   
    10    4   13 1   
    11    5    6 1   
    12    5   25 1   
    13    5   26 1   
    14    6    7 1   
    15    7    8 1   
    16    8   27 1   
    17    9   10 1   
    18    9   28 1   
    19    9   47 1   
    20   10   11 1   
    21   10   12 1   
    22   11   29 1   
    23   12   30 1   
    24   12   31 1   
    25   12   48 1   
    26   13   14 1   
    27   13   15 1   
    28   14   32 1   
    29   14   33 1   
    30   14   34 1   
    31   15   16 1   
    32   15   35 1   
    33   16   17 1   
    34   17   18 1   
    35   17   36 1   
    36   17   37 1   
    37   18   19 1   
    38   19   20 1   
    39   20   38 1   
    40   21   22 1   
    41   21   39 1   
    42   21   49 1   
    43   22   23 1   
    44   22   24 1   
    45   22   50 1   
    46   23   40 1   
    47   24   41 1   
    48   24   42 1   
    49   24   50 1   
@<TRIPOS>SUBSTRUCTURE
     1 C1A         1 TEMP              0 ****  ****    0 ROOT
