@<TRIPOS>MOLECULE
C1A
   46    46     1     0     0
SMALL
bcc


@<TRIPOS>ATOM
      1 C1         -1.1900   -1.3680    2.3950 c3        1 C1A     -0.062300
      2 C2         -0.5930   -0.6840    1.2230 ca        1 C1A     -0.059800
      3 C3          0.5930    0.0400    1.3740 ca        1 C1A     -0.113000
      4 C4          1.1920    0.6930    0.2910 ca        1 C1A     -0.080300
      5 C5          2.4350    1.4640    0.5130 c3        1 C1A      0.052000
      6 S1          3.7760    0.3270    0.2130 ss        1 C1A     -0.247800
      7 C6          5.2410    1.2650    0.4780 c2        1 C1A      0.646600
      8 N1          5.1350    2.5100    0.8120 n2        1 C1A     -0.845100
      9 N2          6.4370    0.5080    0.3740 nh        1 C1A     -0.801700
     10 C7          6.4210   -0.7070   -0.4200 c2        1 C1A      0.759600
     11 N3          7.0790   -0.7160   -1.5490 n2        1 C1A     -0.849600
     12 N4          5.7950   -1.8350    0.1920 nh        1 C1A     -0.911800
     13 C8          0.5900    0.6250   -0.9780 ca        1 C1A     -0.059800
     14 C9          1.1870    1.3090   -2.1490 c3        1 C1A     -0.062300
     15 C10        -0.5960   -0.0990   -1.1290 ca        1 C1A     -0.113000
     16 C11        -1.1960   -0.7530   -0.0460 ca        1 C1A     -0.080300
     17 C12        -2.4390   -1.5230   -0.2690 c3        1 C1A      0.052000
     18 S2         -3.7780   -0.3700   -0.0240 ss        1 C1A     -0.247800
     19 C13        -5.2440   -1.3070   -0.2810 c2        1 C1A      0.646600
     20 N5         -5.1410   -2.5670   -0.5560 n2        1 C1A     -0.845100
     21 N6         -6.4400   -0.5720   -0.0700 nh        1 C1A     -0.801700
     22 C14        -6.4100    0.8660   -0.2600 c2        1 C1A      0.759600
     23 N7         -7.0360    1.3670   -1.2920 n2        1 C1A     -0.849600
     24 N8         -5.8090    1.6150    0.7970 nh        1 C1A     -0.911800
     25 H51         2.5080    2.3390   -0.1800 h1        1 C1A      0.090950
     26 H52         2.4940    1.8550    1.5600 h1        1 C1A      0.090950
     27 HN1         5.9710    3.0340    0.9540 hn        1 C1A      0.401400
     28 HN2         7.2660    1.0530    0.2260 hn        1 C1A      0.428300
     29 HN3         7.1180   -1.5890   -2.0270 hn        1 C1A      0.404400
     30 HN41        5.2770   -1.6370    1.0220 hn        1 C1A      0.401300
     31 HN42        5.2810   -2.3980   -0.4510 hn        1 C1A      0.401300
     32 H91         2.2730    1.0530   -2.2380 hc        1 C1A      0.051533
     33 H92         0.6750    1.0110   -3.0970 hc        1 C1A      0.051533
     34 H93         1.0960    2.4190   -2.0350 hc        1 C1A      0.051533
     35 H10        -1.0700   -0.1570   -2.1220 ha        1 C1A      0.140500
     36 H121       -2.4820   -1.9380   -1.3060 h1        1 C1A      0.090950
     37 H122       -2.5300   -2.3800    0.4440 h1        1 C1A      0.090950
     38 HN5        -5.9770   -3.0870   -0.7070 hn        1 C1A      0.401400
     39 HN6        -7.2630   -0.9940   -0.4600 hn        1 C1A      0.428300
     40 HN7        -7.0670    2.3610   -1.3470 hn        1 C1A      0.404400
     41 HN81       -5.3170    1.0750    1.4780 hn        1 C1A      0.401300
     42 HN82       -5.2750    2.3930    0.4730 hn        1 C1A      0.401300
     43 H1         -2.2740   -1.1080    2.4890 hc        1 C1A      0.051533
     44 H20        -1.1040   -2.4780    2.2780 hc        1 C1A      0.051533
     45 H21        -0.6730   -1.0750    3.3410 hc        1 C1A      0.051533
     46 H31         1.0660    0.0980    2.3670 ha        1 C1A      0.140500
@<TRIPOS>BOND
     1    1    2 1   
     2    1   43 1   
     3    1   44 1   
     4    1   45 1   
     5    2    3 ar  
     6    2   16 ar  
     7    3    4 ar  
     8    3   46 1   
     9    4    5 1   
    10    4   13 ar  
    11    5    6 1   
    12    5   25 1   
    13    5   26 1   
    14    6    7 1   
    15    7    8 2   
    16    7    9 1   
    17    8   27 1   
    18    9   10 1   
    19    9   28 1   
    20   10   11 2   
    21   10   12 1   
    22   11   29 1   
    23   12   30 1   
    24   12   31 1   
    25   13   14 1   
    26   13   15 ar  
    27   14   32 1   
    28   14   33 1   
    29   14   34 1   
    30   15   16 ar  
    31   15   35 1   
    32   16   17 1   
    33   17   18 1   
    34   17   36 1   
    35   17   37 1   
    36   18   19 1   
    37   19   20 2   
    38   19   21 1   
    39   20   38 1   
    40   21   22 1   
    41   21   39 1   
    42   22   23 2   
    43   22   24 1   
    44   23   40 1   
    45   24   41 1   
    46   24   42 1   
@<TRIPOS>SUBSTRUCTURE
     1 C1A         1 TEMP              0 ****  ****    0 ROOT
