@<TRIPOS>MOLECULE
C1B
   61    64     1     0     0
SMALL
bcc


@<TRIPOS>ATOM
      1 C1         -0.4340   -0.7850    0.0530 ca        1 C1B     -0.229900
      2 C2          0.9090   -0.5970   -0.3340 ca        1 C1B     -0.139000
      3 C3          1.8890   -0.2570    0.5830 ca        1 C1B     -0.106000
      4 C4          1.5270   -0.0860    1.9270 ca        1 C1B      0.084400
      5 C5          0.1310   -0.2840    2.3170 ca        1 C1B     -0.082200
      6 C6         -0.8410   -0.6390    1.3760 ca        1 C1B     -0.090000
      7 C7         -1.4540   -1.1570   -0.9750 ce        1 C1B      0.647800
      8 N1         -2.2470   -2.1860   -0.8920 n2        1 C1B     -0.861100
      9 N2         -1.4680   -0.3150   -2.1150 nh        1 C1B     -0.894800
     10 N3          2.2780    0.2680    3.0530 nc        1 C1B     -0.650100
     11 N4          0.0740   -0.0550    3.6860 na        1 C1B     -0.231300
     12 C8          1.3870    0.2860    4.0860 cd        1 C1B      0.518400
     13 C1'         1.6310    0.5770    5.4980 ca        1 C1B     -0.241900
     14 C2'         0.5610    1.1780    6.1820 ca        1 C1B     -0.054000
     15 C3'         0.4540    1.0680    7.5670 ca        1 C1B     -0.050300
     16 CVX        -0.7880    1.5250    8.2600 c3        1 C1B     -0.099400
     17 CWX        -0.5090    1.8060    9.7490 c         1 C1B      0.903600
     18 OXX        -1.3290    1.4700   10.6500 o         1 C1B     -0.872300
     19 OYX         0.5810    2.3930   10.0750 o         1 C1B     -0.872300
     20 C6X        -1.9200    0.5270    8.0370 c3        1 C1B     -0.151400
     21 C7X        -2.0100   -0.0660    6.6300 c         1 C1B      0.894600
     22 O8X        -2.0840    0.6830    5.5920 o         1 C1B     -0.878300
     23 O9X        -2.0300   -1.3230    6.4930 o         1 C1B     -0.878300
     24 C4'         1.5140    0.4990    8.2650 ca        1 C1B     -0.032000
     25 C5'         2.7350    0.1850    7.6320 cp        1 C1B     -0.126000
     26 C6'         2.7700    0.1650    6.2250 ca        1 C1B      0.161100
     27 O6'         3.9350   -0.2670    5.6320 oh        1 C1B     -0.535100
     28 C1B         3.8440    0.0550    8.5780 cp        1 C1B     -0.074000
     29 C2B         4.8030   -0.9670    8.6540 ca        1 C1B      0.145100
     30 C3B         5.6610   -1.0540    9.7690 ca        1 C1B     -0.185000
     31 C4B         5.5230   -0.1650   10.8290 ca        1 C1B     -0.102000
     32 C5B         4.5780    0.8670   10.7710 ca        1 C1B     -0.159300
     33 C51         4.3500    1.7820   11.9440 c3        1 C1B      0.134300
     34 N52         2.9990    2.2400   12.1560 n         1 C1B     -0.533900
     35 C53         2.1540    1.4730   13.0050 c         1 C1B      0.731100
     36 O54         2.6550    0.7570   13.9210 o         1 C1B     -0.720100
     37 N55         0.7770    1.6450   12.9250 n         1 C1B     -0.634000
     38 C6B         3.8100    1.0060    9.6200 ca        1 C1B     -0.087000
     39 O2B         4.9630   -1.9480    7.7060 oh        1 C1B     -0.521100
     40 H2          1.1810   -0.7340   -1.3910 ha        1 C1B      0.123000
     41 H3          2.9330   -0.1200    0.2700 ha        1 C1B      0.129000
     42 H6         -1.8870   -0.7890    1.6810 ha        1 C1B      0.152000
     43 HN1        -2.0900   -2.7470   -0.0820 hn        1 C1B      0.398400
     44 HN21       -2.2990   -0.3650   -2.6630 hn        1 C1B      0.385300
     45 HN22       -1.2080    0.6210   -1.8930 hn        1 C1B      0.385300
     46 HN4        -0.7470   -0.0560    4.2910 hn        1 C1B      0.397700
     47 H2'        -0.2530    1.6850    5.6290 ha        1 C1B      0.188000
     48 H31'       -1.0940    2.5100    7.8050 hc        1 C1B      0.052700
     49 H421       -2.8880    1.0420    8.2630 hc        1 C1B      0.045700
     50 H422       -1.8080   -0.3140    8.7690 hc        1 C1B      0.045700
     51 H4'         1.4170    0.3540    9.3570 ha        1 C1B      0.171000
     52 H6'         3.8470   -0.1870    4.6720 ho        1 C1B      0.444000
     53 H3B         6.4060   -1.8590    9.8010 ha        1 C1B      0.125000
     54 H4B         6.1480   -0.2860   11.7250 ha        1 C1B      0.116000
     55 H511        4.9780    2.7090   11.7870 h1        1 C1B      0.051700
     56 H512        4.7070    1.2690   12.8840 h1        1 C1B      0.051700
     57 H52         2.5410    2.5930   11.3340 hn        1 C1B      0.325500
     58 H551        0.2510    0.9580   13.4110 hn        1 C1B      0.331000
     59 H552        0.3640    1.9770   12.0640 hn        1 C1B      0.331000
     60 H6B         3.0990    1.8500    9.5220 ha        1 C1B      0.174000
     61 H2B         4.3050   -1.8000    7.0080 ho        1 C1B      0.446000
@<TRIPOS>BOND
     1    1    2 ar  
     2    1    6 ar  
     3    1    7 1   
     4    2    3 ar  
     5    2   40 1   
     6    3    4 ar  
     7    3   41 1   
     8    4    5 ar  
     9    4   10 1   
    10    5    6 ar  
    11    5   11 1   
    12    6   42 1   
    13    7    8 2   
    14    7    9 1   
    15    8   43 1   
    16    9   44 1   
    17    9   45 1   
    18   10   12 2   
    19   11   12 1   
    20   11   46 1   
    21   12   13 1   
    22   13   14 ar  
    23   13   26 ar  
    24   14   15 ar  
    25   14   47 1   
    26   15   16 1   
    27   15   24 ar  
    28   16   17 1   
    29   16   20 1   
    30   16   48 1   
    31   17   18 1   
    32   17   19 1   
    33   20   21 1   
    34   20   49 1   
    35   20   50 1   
    36   21   22 1   
    37   21   23 1   
    38   24   25 ar  
    39   24   51 1   
    40   25   26 ar  
    41   25   28 1   
    42   26   27 1   
    43   27   52 1   
    44   28   29 ar  
    45   28   38 ar  
    46   29   30 ar  
    47   29   39 1   
    48   30   31 ar  
    49   30   53 1   
    50   31   32 ar  
    51   31   54 1   
    52   32   33 1   
    53   32   38 ar  
    54   33   34 1   
    55   33   55 1   
    56   33   56 1   
    57   34   35 1   
    58   34   57 1   
    59   35   36 2   
    60   35   37 1   
    61   37   58 1   
    62   37   59 1   
    63   38   60 1   
    64   39   61 1   
@<TRIPOS>SUBSTRUCTURE
     1 C1B         1 TEMP              0 ****  ****    0 ROOT
