@<TRIPOS>MOLECULE
C1B
   61    64     1     0     0
SMALL
bcc


@<TRIPOS>ATOM
      1 C1         -7.6620    6.0960   12.5830 ca        1 C1B     -0.168900
      2 C2         -7.2670    4.7410   12.5890 ca        1 C1B     -0.162000
      3 C3         -8.1280    3.7330   12.1910 ca        1 C1B     -0.099000
      4 C4         -9.4260    4.0780   11.7860 ca        1 C1B      0.079400
      5 C5         -9.8220    5.4850   11.7820 ca        1 C1B     -0.084200
      6 C6         -8.9290    6.4920   12.1750 ca        1 C1B     -0.056000
      7 C7         -6.6750    7.1200   13.0490 ce        1 C1B      0.660800
      8 N1         -6.3140    8.0770   12.2480 n2        1 C1B     -0.828100
      9 N2         -6.2760    6.9530   14.3990 nh        1 C1B     -0.957800
     10 N3        -10.5010    3.2910   11.3610 nc        1 C1B     -0.649100
     11 N4        -11.1380    5.5150   11.3400 na        1 C1B     -0.231300
     12 C8        -11.5110    4.1720   11.1070 cd        1 C1B      0.512400
     13 C1'       -12.8620    3.8860   10.6220 ca        1 C1B     -0.234900
     14 C2'       -13.8790    4.7310   11.0950 ca        1 C1B     -0.043000
     15 C3'       -15.1020    4.8170   10.4280 ca        1 C1B     -0.048300
     16 CVX       -16.1390    5.8060   10.8570 c3        1 C1B     -0.104400
     17 CWX       -17.4950    5.4960   10.1970 c         1 C1B      0.904600
     18 OXX       -18.1580    6.3820    9.5870 o         1 C1B     -0.873800
     19 OYX       -17.9510    4.3010   10.2630 o         1 C1B     -0.873800
     20 C6X       -15.6410    7.2250   10.6050 c3        1 C1B     -0.155400
     21 C7X       -14.3700    7.5310   11.3990 c         1 C1B      0.894600
     22 O8X       -13.2390    7.5420   10.8010 o         1 C1B     -0.878800
     23 O9X       -14.4400    7.7500   12.6440 o         1 C1B     -0.878800
     24 C4'       -15.3150    3.9740    9.3420 ca        1 C1B     -0.045000
     25 C5'       -14.4230    2.9320    9.0160 cp        1 C1B     -0.123000
     26 C6'       -13.1620    2.9160    9.6410 ca        1 C1B      0.156100
     27 O6'       -12.2780    1.9400    9.2380 oh        1 C1B     -0.536100
     28 C1B       -15.0200    1.9300    8.1310 cp        1 C1B     -0.074000
     29 C2B       -14.4740    1.3790    6.9610 ca        1 C1B      0.144100
     30 C3B       -15.2790    0.6120    6.0950 ca        1 C1B     -0.185000
     31 C4B       -16.6340    0.4490    6.3580 ca        1 C1B     -0.100000
     32 C5B       -17.1970    0.9850    7.5230 ca        1 C1B     -0.159300
     33 C51       -18.6790    0.9170    7.7800 c3        1 C1B      0.134300
     34 N52       -19.2760    2.0720    8.4040 n         1 C1B     -0.533900
     35 C53       -19.7600    3.1130    7.5650 c         1 C1B      0.731100
     36 O54       -20.1360    2.8540    6.3840 o         1 C1B     -0.722100
     37 N55       -19.9670    4.3770    8.1020 n         1 C1B     -0.634000
     38 C6B       -16.3680    1.6430    8.4270 ca        1 C1B     -0.086000
     39 O2B       -13.1740    1.5580    6.5530 oh        1 C1B     -0.522100
     40 H2         -6.2450    4.4830   12.9020 ha        1 C1B      0.104000
     41 H3         -7.8100    2.6820   12.1920 ha        1 C1B      0.128000
     42 H6         -9.2270    7.5500   12.1610 ha        1 C1B      0.162000
     43 HN1        -5.6580    8.7330   12.6190 hn        1 C1B      0.362400
     44 HN21       -5.3620    7.2660   14.6320 hn        1 C1B      0.386300
     45 HN22       -6.5160    6.0760   14.7990 hn        1 C1B      0.386300
     46 HN4       -11.7530    6.3190   11.2440 hn        1 C1B      0.396700
     47 H2'       -13.7070    5.3790   11.9750 ha        1 C1B      0.180000
     48 H31'      -16.2940    5.6880   11.9690 hc        1 C1B      0.066700
     49 H421      -16.4480    7.9380   10.9080 hc        1 C1B      0.044700
     50 H422      -15.4460    7.3660    9.5140 hc        1 C1B      0.044700
     51 H4'       -16.2440    4.0890    8.7510 ha        1 C1B      0.173000
     52 H6'       -11.4920    1.9760    9.8010 ho        1 C1B      0.445000
     53 H3B       -14.8250    0.1860    5.1900 ha        1 C1B      0.125000
     54 H4B       -17.2690   -0.0850    5.6380 ha        1 C1B      0.117000
     55 H511      -18.8720    0.0450    8.4730 h1        1 C1B      0.051700
     56 H512      -19.2120    0.7200    6.8060 h1        1 C1B      0.051700
     57 H52       -18.8000    2.3990    9.2290 hn        1 C1B      0.326500
     58 H551      -20.1290    5.0870    7.4290 hn        1 C1B      0.331500
     59 H552      -19.4440    4.6660    8.9190 hn        1 C1B      0.331500
     60 H6B       -16.7780    2.0150    9.3860 ha        1 C1B      0.172000
     61 H2B       -12.7280    2.1180    7.2090 ho        1 C1B      0.445000
@<TRIPOS>BOND
     1    1    2 ar  
     2    1    6 ar  
     3    1    7 1   
     4    2    3 ar  
     5    2   40 1   
     6    3    4 ar  
     7    3   41 1   
     8    4    5 ar  
     9    4   10 1   
    10    5    6 ar  
    11    5   11 1   
    12    6   42 1   
    13    7    8 2   
    14    7    9 1   
    15    8   43 1   
    16    9   44 1   
    17    9   45 1   
    18   10   12 2   
    19   11   12 1   
    20   11   46 1   
    21   12   13 1   
    22   13   14 ar  
    23   13   26 ar  
    24   14   15 ar  
    25   14   47 1   
    26   15   16 1   
    27   15   24 ar  
    28   16   17 1   
    29   16   20 1   
    30   16   48 1   
    31   17   18 1   
    32   17   19 1   
    33   20   21 1   
    34   20   49 1   
    35   20   50 1   
    36   21   22 1   
    37   21   23 1   
    38   24   25 ar  
    39   24   51 1   
    40   25   26 ar  
    41   25   28 1   
    42   26   27 1   
    43   27   52 1   
    44   28   29 ar  
    45   28   38 ar  
    46   29   30 ar  
    47   29   39 1   
    48   30   31 ar  
    49   30   53 1   
    50   31   32 ar  
    51   31   54 1   
    52   32   33 1   
    53   32   38 ar  
    54   33   34 1   
    55   33   55 1   
    56   33   56 1   
    57   34   35 1   
    58   34   57 1   
    59   35   36 2   
    60   35   37 1   
    61   37   58 1   
    62   37   59 1   
    63   38   60 1   
    64   39   61 1   
@<TRIPOS>SUBSTRUCTURE
     1 C1B         1 TEMP              0 ****  ****    0 ROOT
