@<TRIPOS>MOLECULE
C1B
   61    50     1     0     0
SMALL
bcc


@<TRIPOS>ATOM
      1 C1         -0.7550    0.3880   -6.7750 c1        1 C1B     -0.137000
      2 C2         -0.3790   -0.9550   -6.8220 c1        1 C1B     -0.128000
      3 C3         -0.2500   -1.6820   -5.6450 c1        1 C1B     -0.128000
      4 C4         -0.4990   -1.0590   -4.3970 c1        1 C1B     -0.046000
      5 C5         -0.8670    0.2560   -4.3490 c1        1 C1B     -0.046000
      6 C6         -0.9990    0.9990   -5.5520 c1        1 C1B     -0.079000
      7 C7         -1.3310    0.9490   -8.0860 c2        1 C1B      0.133000
      8 N1         -2.5980    0.7710   -8.3740 n1        1 C1B     -0.337000
      9 N2         -0.4840    1.6650   -8.9930 n3        1 C1B     -0.339000
     10 N3         -0.4470   -1.5260   -3.1220 n1        1 C1B     -0.207500
     11 N4         -1.0410    0.5950   -3.0460 n1        1 C1B     -0.207500
     12 C8         -0.7820   -0.5060   -2.2860 c2        1 C1B      0.112000
     13 C1'        -0.9280   -0.6210   -0.8910 c1        1 C1B     -0.167000
     14 C2'        -2.2000   -0.6210   -0.3240 c1        1 C1B     -0.070000
     15 C3'        -2.3460   -0.5990    1.0620 c1        1 C1B     -0.098500
     16 CVX        -3.7430   -0.4820    1.6820 c2        1 C1B     -0.098000
     17 CWX        -3.7870    0.7080    2.6020 c2        1 C1B      0.324000
     18 OXX        -3.7040    1.8690    2.1300 o         1 C1B     -0.610000
     19 OYX        -3.9990    0.5420    3.8370 o         1 C1B     -0.610000
     20 C6X        -4.0540   -1.7350    2.4640 c3        1 C1B     -0.183000
     21 C7X        -5.5590   -1.8880    2.5960 c2        1 C1B      0.315000
     22 O8X        -6.1970   -1.1550    3.3950 o         1 C1B     -0.614000
     23 O9X        -6.1610   -2.7830    1.9440 o         1 C1B     -0.614000
     24 C4'        -1.2220   -0.5770    1.8780 c2        1 C1B     -0.070000
     25 C5'         0.0480   -0.5770    1.3130 c1        1 C1B     -0.063500
     26 C6'         0.1950   -0.5990   -0.0740 c1        1 C1B      0.142000
     27 O6'         1.4850   -0.7020   -0.6450 oh        1 C1B     -0.255000
     28 C1B         1.1850   -0.5750    2.1400 c1        1 C1B     -0.063500
     29 C2B         1.8050   -1.7720    2.4690 c1        1 C1B      0.085000
     30 C3B         2.9510   -1.7690    3.2570 c1        1 C1B     -0.236000
     31 C4B         3.4750   -0.5660    3.7160 c1        1 C1B     -0.070000
     32 C5B         2.8560    0.6300    3.3890 c1        1 C1B     -0.098500
     33 C51         3.4260    1.9530    3.9070 c2        1 C1B      0.011000
     34 N52         4.5340    1.6870    4.7930 n         1 C1B     -0.344000
     35 C53         5.1090    2.7540    5.5680 c2        1 C1B      0.358000
     36 O54         5.0490    3.8950    5.1650 o         1 C1B     -0.484000
     37 N55         5.8180    2.4600    6.7720 n         1 C1B     -0.392000
     38 C6B         1.7090    0.6270    2.5990 c2        1 C1B     -0.070000
     39 O2B         1.2560   -2.9920    2.0330 oh        1 C1B     -0.225000
     40 H2         -0.1420   -1.3690   -7.6810 ha        1 C1B      0.116000
     41 H3          0.0130   -2.6200   -5.6780 ha        1 C1B      0.116000
     42 H6         -1.2090    1.9480   -5.5160 ha        1 C1B      0.155000
     43 HN1        -3.1410    0.3120   -7.7930 DU        1 C1B      0.249500
     44 HN21       -0.8350    2.0370   -9.7480 hn        1 C1B      0.184500
     45 HN22        0.4080    1.7250   -8.8290 hn        1 C1B      0.184500
     46 HN4        -1.3360    1.4030   -2.7360 DU        1 C1B      0.249500
     47 H2'        -2.9860   -0.6140   -0.8960 ha        1 C1B      0.147000
     48 H31'       -4.4020   -0.3690    0.9750 ha        1 C1B      0.106000
     49 H421       -3.6510   -1.6710    3.3590 hc        1 C1B      0.083500
     50 H422       -3.6890   -2.5070    1.9970 hc        1 C1B      0.083500
     51 H4'        -1.3240   -0.5060    2.8460 ha        1 C1B      0.172000
     52 H6'         1.7250    0.0850   -0.9760 ho        1 C1B      0.231000
     53 H3B         3.3620   -2.6090    3.5200 ha        1 C1B      0.109000
     54 H4B         4.2830   -0.5640    4.2720 ha        1 C1B      0.147000
     55 H511        3.7370    2.4960    3.1470 h4        1 C1B      0.091500
     56 H512        2.7250    2.4440    4.3960 h4        1 C1B      0.091500
     57 H52         4.8530    0.8410    4.8790 hn        1 C1B      0.241000
     58 H551        5.8460    1.6010    7.0880 hn        1 C1B      0.246000
     59 H552        6.2840    3.1260    7.2060 hn        1 C1B      0.246000
     60 H6B         1.2860    1.4680    2.3510 ha        1 C1B      0.172000
     61 H2B         1.6270   -3.6620    2.4840 ho        1 C1B      0.191000
@<TRIPOS>BOND
     1    1    6 1   
     2    1    7 1   
     3    2    3 1   
     4    2   40 1   
     5    3   41 1   
     6    4    5 1   
     7    6   42 1   
     8    7    8 1   
     9    7    9 1   
    10    9   44 1   
    11    9   45 1   
    12   10   12 1   
    13   11   12 1   
    14   12   13 1   
    15   13   26 1   
    16   14   15 1   
    17   14   47 1   
    18   15   24 1   
    19   16   17 1   
    20   16   20 1   
    21   16   48 1   
    22   17   18 1   
    23   17   19 1   
    24   20   21 1   
    25   20   49 1   
    26   20   50 1   
    27   21   22 1   
    28   21   23 1   
    29   24   25 1   
    30   24   51 1   
    31   26   27 1   
    32   27   52 1   
    33   28   38 1   
    34   29   30 1   
    35   29   39 1   
    36   30   53 1   
    37   31   32 1   
    38   31   54 1   
    39   32   38 1   
    40   33   34 1   
    41   33   55 1   
    42   33   56 1   
    43   34   35 1   
    44   34   57 1   
    45   35   36 1   
    46   35   37 1   
    47   37   58 1   
    48   37   59 1   
    49   38   60 1   
    50   39   61 1   
@<TRIPOS>SUBSTRUCTURE
     1 C1B         1 TEMP              0 ****  ****    0 ROOT
