@<TRIPOS>MOLECULE
C1C
   38    31     1     0     0
SMALL
bcc


@<TRIPOS>ATOM
      1 C1         -1.5280   -0.7930   -4.1790 c1        1 C1C     -0.146750
      2 C2         -0.1680   -0.5140   -4.1700 c1        1 C1C     -0.146000
      3 C3          0.5080   -0.3420   -2.9470 c1        1 C1C     -0.047000
      4 C4         -0.1790   -0.4500   -1.7620 c2        1 C1C     -0.013000
      5 C5         -1.5580   -0.7330   -1.7710 c1        1 C1C     -0.059000
      6 C6         -2.2240   -0.9030   -2.9790 c1        1 C1C     -0.146750
      7 C7          1.8890   -0.0680   -2.9370 c1        1 C1C     -0.146750
      8 C8          2.5570    0.0920   -1.7300 c1        1 C1C     -0.146750
      9 C9          1.8610   -0.0170   -0.5300 c1        1 C1C     -0.066000
     10 C10         0.4990   -0.2870   -0.5380 c1        1 C1C     -0.001000
     11 C11         0.1020   -0.2260    0.7910 c1        1 C1C     -0.001000
     12 C12        -0.3600    0.8660    1.5510 c1        1 C1C     -0.030000
     13 C13        -0.9220    0.6530    2.7870 c1        1 C1C     -0.030000
     14 C14        -1.0360   -0.6570    3.2920 c1        1 C1C     -0.146750
     15 C15        -0.5810   -1.7320    2.5420 c1        1 C1C     -0.146750
     16 C16        -0.0110   -1.5170    1.2900 c1        1 C1C     -0.066000
     17 C17        -0.2180    2.1770    1.0590 c1        1 C1C     -0.102500
     18 C18        -0.6470    3.2550    1.8220 c1        1 C1C     -0.146750
     19 C19        -1.2170    3.0390    3.0730 c1        1 C1C     -0.146750
     20 C20        -1.3570    1.7470    3.5590 c1        1 C1C     -0.102500
     21 C21         0.3660   -2.9270    0.8890 c2        1 C1C      0.362000
     22 O22        -0.4690   -3.6560    0.2920 o         1 C1C     -0.565000
     23 O23         1.5180   -3.3670    1.1430 o         1 C1C     -0.565000
     24 C24         2.9960    0.2280    0.4400 c2        1 C1C      0.362000
     25 O25         3.6480   -0.7450    0.9060 o         1 C1C     -0.565000
     26 O26         3.2820    1.4020    0.7910 o         1 C1C     -0.565000
     27 H1         -1.9970   -0.9120   -5.0270 ha        1 C1C      0.104250
     28 H2          0.3190   -0.4380   -5.0120 ha        1 C1C      0.096000
     29 H5         -2.0500   -0.7930   -0.9300 ha        1 C1C      0.176000
     30 H6         -3.1800   -1.0990   -2.9850 ha        1 C1C      0.104250
     31 H7          2.3800   -0.0030   -3.7790 ha        1 C1C      0.104250
     32 H8          3.5140    0.2820   -1.7230 ha        1 C1C      0.104250
     33 H14        -1.4360   -0.8080    4.1700 ha        1 C1C      0.104250
     34 H15        -0.6600   -2.6410    2.8920 ha        1 C1C      0.104250
     35 H17         0.1860    2.3280    0.1840 ha        1 C1C      0.136000
     36 H18        -0.5490    4.1640    1.4800 ha        1 C1C      0.104250
     37 H19        -1.5180    3.7980    3.6090 ha        1 C1C      0.104250
     38 H20        -1.7570    1.5960    4.4380 ha        1 C1C      0.136000
@<TRIPOS>BOND
     1    1    6 1   
     2    1   27 1   
     3    2    3 1   
     4    2   28 1   
     5    3    4 1   
     6    4    5 1   
     7    4   10 1   
     8    5   29 1   
     9    6   30 1   
    10    7    8 1   
    11    7   31 1   
    12    8   32 1   
    13    9   10 1   
    14    9   24 1   
    15   11   16 1   
    16   12   13 1   
    17   12   17 1   
    18   13   20 1   
    19   14   15 1   
    20   14   33 1   
    21   15   34 1   
    22   16   21 1   
    23   17   35 1   
    24   18   19 1   
    25   18   36 1   
    26   19   37 1   
    27   20   38 1   
    28   21   22 1   
    29   21   23 1   
    30   24   25 1   
    31   24   26 1   
@<TRIPOS>SUBSTRUCTURE
     1 C1C         1 TEMP              0 ****  ****    0 ROOT
