@<TRIPOS>MOLECULE
C1C
   38    41     1     0     0
SMALL
bcc


@<TRIPOS>ATOM
      1 C1          0.0800   -0.2930   -0.0720 ca        1 C1C     -0.152000
      2 C2          1.4360   -0.0920   -0.0270 ca        1 C1C     -0.146000
      3 C3          2.1180   -0.0140    1.2180 ca        1 C1C     -0.047000
      4 C4          1.3920   -0.1340    2.4330 ca        1 C1C     -0.013000
      5 C5         -0.0070   -0.3890    2.3450 ca        1 C1C     -0.059000
      6 C6         -0.6460   -0.4530    1.1300 ca        1 C1C     -0.171000
      7 C7          3.5220    0.1870    1.2660 ca        1 C1C     -0.171000
      8 C8          4.1480    0.3250    2.4750 ca        1 C1C     -0.093000
      9 C9          3.4280    0.2910    3.7020 ca        1 C1C     -0.086600
     10 C10         2.0670    0.0260    3.6930 cp        1 C1C     -0.001000
     11 C11         1.2630   -0.0490    4.9280 cp        1 C1C     -0.001000
     12 C12         1.0260    1.1670    5.6590 ca        1 C1C     -0.013000
     13 C13         0.2120    1.1490    6.8220 ca        1 C1C     -0.047000
     14 C14        -0.2960   -0.0890    7.2930 ca        1 C1C     -0.171000
     15 C15        -0.0510   -1.2370    6.5910 ca        1 C1C     -0.093000
     16 C16         0.6940   -1.2300    5.3770 ca        1 C1C     -0.086600
     17 C17         1.5640    2.4210    5.2450 ca        1 C1C     -0.059000
     18 C18         1.2530    3.5830    5.9100 ca        1 C1C     -0.171000
     19 C19         0.4100    3.5600    7.0440 ca        1 C1C     -0.152000
     20 C20        -0.0880    2.3640    7.4970 ca        1 C1C     -0.146000
     21 C21         0.6600   -2.5790    4.6580 c         1 C1C      0.913200
     22 O22         1.5720   -3.4220    4.8520 o         1 C1C     -0.830300
     23 O23        -0.3800   -2.8110    3.9690 o         1 C1C     -0.830300
     24 C24         4.2910    0.6790    4.9030 c         1 C1C      0.913200
     25 O25         4.4570    1.9240    5.0850 o         1 C1C     -0.830300
     26 O26         4.8730   -0.2090    5.5770 o         1 C1C     -0.830300
     27 H1         -0.4500   -0.3490   -1.0330 ha        1 C1C      0.090000
     28 H2          2.0220    0.0100   -0.9510 ha        1 C1C      0.096000
     29 H5         -0.5640   -0.5990    3.2770 ha        1 C1C      0.176000
     30 H6         -1.7230   -0.6600    1.0830 ha        1 C1C      0.108000
     31 H7          4.0840    0.2320    0.3240 ha        1 C1C      0.095000
     32 H8          5.2360    0.4880    2.5310 ha        1 C1C      0.124000
     33 H14        -0.8870   -0.1020    8.2200 ha        1 C1C      0.095000
     34 H15        -0.4430   -2.2050    6.9380 ha        1 C1C      0.124000
     35 H17         2.2900    2.4340    4.4120 ha        1 C1C      0.176000
     36 H18         1.6850    4.5380    5.5820 ha        1 C1C      0.108000
     37 H19         0.1760    4.5000    7.5610 ha        1 C1C      0.090000
     38 H20        -0.7250    2.3210    8.3920 ha        1 C1C      0.096000
@<TRIPOS>BOND
     1    1    2 ar  
     2    1    6 ar  
     3    1   27 1   
     4    2    3 ar  
     5    2   28 1   
     6    3    4 ar  
     7    3    7 ar  
     8    4    5 ar  
     9    4   10 ar  
    10    5    6 ar  
    11    5   29 1   
    12    6   30 1   
    13    7    8 ar  
    14    7   31 1   
    15    8    9 ar  
    16    8   32 1   
    17    9   10 ar  
    18    9   24 1   
    19   10   11 1   
    20   11   12 ar  
    21   11   16 ar  
    22   12   13 ar  
    23   12   17 ar  
    24   13   14 ar  
    25   13   20 ar  
    26   14   15 ar  
    27   14   33 1   
    28   15   16 ar  
    29   15   34 1   
    30   16   21 1   
    31   17   18 ar  
    32   17   35 1   
    33   18   19 ar  
    34   18   36 1   
    35   19   20 ar  
    36   19   37 1   
    37   20   38 1   
    38   21   22 1   
    39   21   23 1   
    40   24   25 1   
    41   24   26 1   
@<TRIPOS>SUBSTRUCTURE
     1 C1C         1 TEMP              0 ****  ****    0 ROOT
