@<TRIPOS>MOLECULE
C1C
   38    41     1     0     0
SMALL
bcc


@<TRIPOS>ATOM
      1 C1         -3.8490   -2.2110   -1.2490 ca        1 C1C     -0.152000
      2 C2         -4.0280   -1.5060   -0.0860 ca        1 C1C     -0.146000
      3 C3         -2.9830   -0.7020    0.4440 ca        1 C1C     -0.047000
      4 C4         -1.7340   -0.6290   -0.2270 ca        1 C1C     -0.013000
      5 C5         -1.6010   -1.3370   -1.4560 ca        1 C1C     -0.059000
      6 C6         -2.6230   -2.1150   -1.9450 ca        1 C1C     -0.171000
      7 C7         -3.1690    0.0330    1.6440 ca        1 C1C     -0.171000
      8 C8         -2.1290    0.7490    2.1720 ca        1 C1C     -0.093000
      9 C9         -0.8440    0.7680    1.5600 ca        1 C1C     -0.086600
     10 C10        -0.6490    0.1180    0.3510 cp        1 C1C     -0.001000
     11 C11         0.6490    0.1180   -0.3510 cp        1 C1C     -0.001000
     12 C12         1.7340   -0.6260    0.2290 ca        1 C1C     -0.013000
     13 C13         2.9840   -0.6990   -0.4420 ca        1 C1C     -0.047000
     14 C14         3.1690    0.0320   -1.6440 ca        1 C1C     -0.171000
     15 C15         2.1270    0.7440   -2.1750 ca        1 C1C     -0.093000
     16 C16         0.8420    0.7630   -1.5630 ca        1 C1C     -0.086600
     17 C17         1.6030   -1.3290    1.4610 ca        1 C1C     -0.059000
     18 C18         2.6260   -2.1040    1.9530 ca        1 C1C     -0.171000
     19 C19         3.8520   -2.2010    1.2580 ca        1 C1C     -0.152000
     20 C20         4.0300   -1.5000    0.0910 ca        1 C1C     -0.146000
     21 C21        -0.2150    1.4400   -2.4360 c         1 C1C      0.913200
     22 O22        -0.4680    2.6630   -2.2900 o         1 C1C     -0.830300
     23 O23        -0.7120    0.7220   -3.3570 o         1 C1C     -0.830300
     24 C24         0.2130    1.4490    2.4300 c         1 C1C      0.913200
     25 O25         0.7110    0.7360    3.3540 o         1 C1C     -0.830300
     26 O26         0.4640    2.6720    2.2800 o         1 C1C     -0.830300
     27 H1         -4.6530   -2.8370   -1.6590 ha        1 C1C      0.090000
     28 H2         -4.9830   -1.5480    0.4570 ha        1 C1C      0.096000
     29 H5         -0.6770   -1.1990   -2.0470 ha        1 C1C      0.176000
     30 H6         -2.5050   -2.6460   -2.9000 ha        1 C1C      0.108000
     31 H7         -4.1520    0.0110    2.1330 ha        1 C1C      0.095000
     32 H8         -2.2530    1.3190    3.1050 ha        1 C1C      0.124000
     33 H14         4.1520    0.0090   -2.1330 ha        1 C1C      0.095000
     34 H15         2.2510    1.3110   -3.1100 ha        1 C1C      0.124000
     35 H17         0.6780   -1.1900    2.0520 ha        1 C1C      0.176000
     36 H18         2.5090   -2.6310    2.9090 ha        1 C1C      0.108000
     37 H19         4.6570   -2.8240    1.6690 ha        1 C1C      0.090000
     38 H20         4.9850   -1.5420   -0.4520 ha        1 C1C      0.096000
@<TRIPOS>BOND
     1    1    2 ar  
     2    1    6 ar  
     3    1   27 1   
     4    2    3 ar  
     5    2   28 1   
     6    3    4 ar  
     7    3    7 ar  
     8    4    5 ar  
     9    4   10 ar  
    10    5    6 ar  
    11    5   29 1   
    12    6   30 1   
    13    7    8 ar  
    14    7   31 1   
    15    8    9 ar  
    16    8   32 1   
    17    9   10 ar  
    18    9   24 1   
    19   10   11 1   
    20   11   12 ar  
    21   11   16 ar  
    22   12   13 ar  
    23   12   17 ar  
    24   13   14 ar  
    25   13   20 ar  
    26   14   15 ar  
    27   14   33 1   
    28   15   16 ar  
    29   15   34 1   
    30   16   21 1   
    31   17   18 ar  
    32   17   35 1   
    33   18   19 ar  
    34   18   36 1   
    35   19   20 ar  
    36   19   37 1   
    37   20   38 1   
    38   21   22 1   
    39   21   23 1   
    40   24   25 1   
    41   24   26 1   
@<TRIPOS>SUBSTRUCTURE
     1 C1C         1 TEMP              0 ****  ****    0 ROOT
