@<TRIPOS>MOLECULE
C1D
   61    63     1     0     0
SMALL
bcc


@<TRIPOS>ATOM
      1 C1          7.8900   -5.7030   -3.9870 ca        1 C1D      0.397200
      2 N2          6.6460   -5.2010   -4.0510 nb        1 C1D     -0.637000
      3 C3          5.6170   -6.0660   -3.8800 ca        1 C1D      0.334600
      4 C4          5.7990   -7.4410   -3.6440 ca        1 C1D     -0.211300
      5 C5          7.1030   -7.9400   -3.5800 ca        1 C1D     -0.095000
      6 C6          8.1730   -7.0640   -3.7540 ca        1 C1D     -0.228300
      7 C11         4.1900   -5.4850   -3.9460 c3        1 C1D      0.364300
      8 C12         4.0160   -4.5190   -2.7230 c3        1 C1D      0.161800
      9 F13         3.9340   -4.8650   -5.1490 f         1 C1D     -0.230800
     10 F14         3.2320   -6.4840   -3.9480 f         1 C1D     -0.230800
     11 N15         2.6770   -3.9940   -2.6220 nh        1 C1D     -0.785200
     12 C18         2.3340   -3.2290   -1.4980 c2        1 C1D      0.539200
     13 C19         0.8130   -2.8970   -1.4310 c3        1 C1D      0.346000
     14 N20         0.5380   -1.7530   -0.5720 nh        1 C1D     -0.678400
     15 C21         1.4510   -1.4890    0.4530 c2        1 C1D      0.148400
     16 C22         2.7380   -1.9720    0.4000 ce        1 C1D     -0.018400
     17 N23         3.2060   -2.8080   -0.6030 ne        1 C1D     -0.600300
     18 C24        -0.8260   -1.2900   -0.5170 c3        1 C1D      0.209800
     19 C25        -1.7590   -2.1150    0.4010 c3        1 C1D      0.128800
     20 N28        -3.1040   -1.5780    0.4100 n3        1 C1D     -0.821200
     21 C29        -4.0110   -2.3500    1.2370 c3        1 C1D      0.164800
     22 C30        -5.3450   -1.6430    1.5150 c3        1 C1D     -0.063700
     23 C33        -6.0440   -1.2790    0.2150 c3        1 C1D     -0.074400
     24 C34        -7.4020   -0.6670    0.4690 c3        1 C1D     -0.071400
     25 C2         -5.5960   -2.9170    3.6890 c3        1 C1D     -0.095100
     26 C35        -8.2760   -1.6260    1.3170 c3        1 C1D      0.398700
     27 C37        -6.2570   -2.5690    2.3540 c3        1 C1D      0.189500
     28 O42         0.1200   -4.0900   -1.0750 oh        1 C1D     -0.618800
     29 N6         -9.6140   -1.0680    1.4970 n3        1 C1D     -0.901800
     30 CL43        1.0120   -0.4620    1.7490 cl        1 C1D     -0.083400
     31 N29        -7.5680   -1.9640    2.5720 n3        1 C1D     -0.859200
     32 H1          8.7050   -4.9710   -4.1330 h4        1 C1D      0.031100
     33 H4          4.9320   -8.1050   -3.5190 ha        1 C1D      0.160000
     34 H5          7.2770   -9.0110   -3.3970 ha        1 C1D      0.145000
     35 H6          9.2120   -7.4160   -3.7140 ha        1 C1D      0.149000
     36 H121        4.7240   -3.6530   -2.8630 h1        1 C1D      0.085200
     37 H122        4.3220   -5.0960   -1.8040 h1        1 C1D      0.085200
     38 H15         1.9560   -4.6340   -2.8950 hn        1 C1D      0.424800
     39 H119        0.3990   -2.6530   -2.4600 h2        1 C1D      0.115700
     40 H22         3.4910   -1.7140    1.1610 h4        1 C1D      0.180000
     41 H241       -0.8180   -0.2140   -0.1830 h1        1 C1D      0.069700
     42 H242       -1.2330   -1.3250   -1.5690 h1        1 C1D      0.069700
     43 H251       -1.8100   -3.1720    0.0090 h1        1 C1D      0.041700
     44 H252       -1.3080   -2.1600    1.4360 h1        1 C1D      0.041700
     45 H28        -3.0980   -0.6150    0.6940 hn        1 C1D      0.356800
     46 H291       -4.2140   -3.3170    0.6950 h1        1 C1D      0.033200
     47 H292       -3.5350   -2.6120    2.2290 h1        1 C1D      0.033200
     48 H330       -5.1500   -0.7040    2.1040 hc        1 C1D      0.059700
     49 H33        -6.1530   -2.2000   -0.4170 hc        1 C1D      0.050700
     50 H331       -5.4210   -0.5490   -0.3650 hc        1 C1D      0.050700
     51 H34        -7.2870    0.3150    0.9960 hc        1 C1D      0.053700
     52 H341       -7.9210   -0.4780   -0.5060 hc        1 C1D      0.053700
     53 H2C1       -6.3200   -3.4080    4.3850 hc        1 C1D      0.039700
     54 H2C2       -4.7550   -3.6290    3.5160 hc        1 C1D      0.039700
     55 H2C3       -5.2000   -1.9990    4.1840 hc        1 C1D      0.039700
     56 H335       -8.4270   -2.5740    0.7000 h2        1 C1D      0.031700
     57 H337       -6.3650   -3.5370    1.7660 h1        1 C1D      0.014700
     58 H42         0.4420   -4.4040   -0.2210 ho        1 C1D      0.409000
     59 H6N1      -10.1760   -1.6550    2.0820 hn        1 C1D      0.350300
     60 H6N2       -9.5710   -0.1530    1.9020 hn        1 C1D      0.350300
     61 HN1        -8.1240   -2.5810    3.1350 hn        1 C1D      0.354800
@<TRIPOS>BOND
     1    1    2 ar  
     2    1    6 ar  
     3    1   32 1   
     4    2    3 ar  
     5    3    4 ar  
     6    3    7 1   
     7    4    5 ar  
     8    4   33 1   
     9    5    6 ar  
    10    5   34 1   
    11    6   35 1   
    12    7    8 1   
    13    7    9 1   
    14    7   10 1   
    15    8   11 1   
    16    8   36 1   
    17    8   37 1   
    18   11   12 1   
    19   11   38 1   
    20   12   13 1   
    21   12   17 2   
    22   13   14 1   
    23   13   28 1   
    24   13   39 1   
    25   14   15 1   
    26   14   18 1   
    27   15   16 2   
    28   15   30 1   
    29   16   17 1   
    30   16   40 1   
    31   18   19 1   
    32   18   41 1   
    33   18   42 1   
    34   19   20 1   
    35   19   43 1   
    36   19   44 1   
    37   20   21 1   
    38   20   45 1   
    39   21   22 1   
    40   21   46 1   
    41   21   47 1   
    42   22   23 1   
    43   22   27 1   
    44   22   48 1   
    45   23   24 1   
    46   23   49 1   
    47   23   50 1   
    48   24   26 1   
    49   24   51 1   
    50   24   52 1   
    51   25   27 1   
    52   25   53 1   
    53   25   54 1   
    54   25   55 1   
    55   26   29 1   
    56   26   31 1   
    57   26   56 1   
    58   27   31 1   
    59   27   57 1   
    60   28   58 1   
    61   29   59 1   
    62   29   60 1   
    63   31   61 1   
@<TRIPOS>SUBSTRUCTURE
     1 C1D         1 TEMP              0 ****  ****    0 ROOT
