@<TRIPOS>MOLECULE
C1D
   64    66     1     0     0
SMALL
bcc


@<TRIPOS>ATOM
      1 C1          1.9410    0.2270   -1.0670 ca        1 C1D      0.412200
      2 N2          2.7160   -0.1620   -0.0450 nb        1 C1D     -0.684000
      3 C3          2.2040   -0.0260    1.2070 ca        1 C1D      0.291600
      4 C4          0.9280    0.4910    1.4760 ca        1 C1D     -0.171300
      5 C5          0.1350    0.8890    0.3890 ca        1 C1D     -0.079000
      6 C6          0.6420    0.7620   -0.9000 ca        1 C1D     -0.183300
      7 C11         3.1200   -0.4270    2.3630 c3        1 C1D      0.381300
      8 C12         3.7080   -1.8620    2.0590 c3        1 C1D      0.047800
      9 F13         4.1600    0.4600    2.5720 f         1 C1D     -0.222800
     10 F14         2.5000   -0.4240    3.5940 f         1 C1D     -0.222800
     11 N15         4.6090   -2.3220    3.1610 n4        1 C1D     -0.699000
     12 C18         5.5320   -3.3790    2.7100 c2        1 C1D      0.371200
     13 C19         6.9030   -2.8870    2.1970 c3        1 C1D      0.381000
     14 N20         7.8450   -3.9960    1.9820 nh        1 C1D     -0.677400
     15 C21         7.3860   -5.3080    2.0870 c2        1 C1D      0.215400
     16 C22         6.0700   -5.5980    2.4060 ce        1 C1D     -0.020400
     17 N23         5.1590   -4.6320    2.7690 ne        1 C1D     -0.420300
     18 C24         9.2480   -3.6900    1.9510 c3        1 C1D      0.199800
     19 C25         9.9630   -3.8540    3.3230 c3        1 C1D      0.057800
     20 N28        11.4510   -3.8280    3.1950 n4        1 C1D     -0.759000
     21 C29        12.1260   -4.0330    4.5190 c3        1 C1D      0.109800
     22 C30        13.6450   -4.1960    4.4170 c3        1 C1D     -0.140700
     23 C33        14.3090   -2.8920    3.9930 c3        1 C1D     -0.091400
     24 C34        15.8260   -2.9560    4.0540 c3        1 C1D     -0.134400
     25 C2         13.6230   -6.0310    6.1790 c3        1 C1D     -0.118100
     26 C35        16.2320   -3.4010    5.4760 c3        1 C1D      0.366700
     27 C37        14.1870   -4.6600    5.8070 c3        1 C1D      0.197500
     28 O42         7.4040   -1.9750    3.1690 oh        1 C1D     -0.624800
     29 N6         17.7440   -3.3970    5.6450 n4        1 C1D     -0.847600
     30 CL43        8.4450   -6.5980    1.7730 cl        1 C1D      0.005600
     31 N29        15.6460   -4.6830    5.8580 n3        1 C1D     -0.815200
     32 H1          2.3790    0.1110   -2.0760 h4        1 C1D      0.048100
     33 H4          0.5590    0.5910    2.5080 ha        1 C1D      0.173000
     34 H5         -0.8720    1.3020    0.5640 ha        1 C1D      0.178000
     35 H6          0.0550    1.0690   -1.7800 ha        1 C1D      0.180000
     36 H121        4.2950   -1.8160    1.0990 hx        1 C1D      0.146200
     37 H122        2.8560   -2.5910    1.9480 hx        1 C1D      0.146200
     38 H15         4.0290   -2.6590    3.9480 hn        1 C1D      0.481300
     39 H119        6.7650   -2.3730    1.1940 h2        1 C1D      0.104700
     40 H22         5.6700   -6.6330    2.3990 h4        1 C1D      0.242000
     41 H241        9.7370   -4.3600    1.1820 h1        1 C1D      0.091700
     42 H242        9.3650   -2.6210    1.6100 h1        1 C1D      0.091700
     43 H251        9.6450   -3.0180    4.0130 hx        1 C1D      0.124700
     44 H252        9.6750   -4.8380    3.7960 hx        1 C1D      0.124700
     45 H28        11.7470   -2.9290    2.7980 hn        1 C1D      0.455300
     46 H291       11.6780   -4.9650    4.9770 hx        1 C1D      0.120700
     47 H292       11.8720   -3.1500    5.1730 hx        1 C1D      0.120700
     48 H330       13.8910   -5.0000    3.6660 hc        1 C1D      0.083700
     49 H33        13.9510   -2.0570    4.6550 hc        1 C1D      0.066700
     50 H331       14.0230   -2.6360    2.9380 hc        1 C1D      0.066700
     51 H34        16.2440   -1.9400    3.8220 hc        1 C1D      0.092200
     52 H341       16.2160   -3.6720    3.2840 hc        1 C1D      0.092200
     53 H2C1       14.1980   -6.4820    7.0290 hc        1 C1D      0.073700
     54 H2C2       12.5660   -5.9240    6.5220 hc        1 C1D      0.073700
     55 H2C3       13.6660   -6.7360    5.3150 hc        1 C1D      0.073700
     56 H335       15.8530   -2.6290    6.2270 hx        1 C1D      0.128700
     57 H337       13.8460   -3.9060    6.5790 h1        1 C1D      0.088700
     58 H42         7.7660   -1.2040    2.7080 ho        1 C1D      0.445000
     59 H6N1       18.1960   -4.0260    4.9730 hn        1 C1D      0.476800
     60 H6N2       17.9920   -3.6980    6.5980 hn        1 C1D      0.476800
     61 HN1        16.0090   -5.4490    5.3160 hn        1 C1D      0.394800
     62 H152        5.1780   -1.5270    3.4980 hn        1 C1D      0.481300
     63 H282       11.7480   -4.5700    2.5470 hn        1 C1D      0.455300
     64 H63        18.0880   -2.4420    5.4920 hn        1 C1D      0.476800
@<TRIPOS>BOND
     1    1    2 ar  
     2    1    6 ar  
     3    1   32 1   
     4    2    3 ar  
     5    3    4 ar  
     6    3    7 1   
     7    4    5 ar  
     8    4   33 1   
     9    5    6 ar  
    10    5   34 1   
    11    6   35 1   
    12    7    8 1   
    13    7    9 1   
    14    7   10 1   
    15    8   11 1   
    16    8   36 1   
    17    8   37 1   
    18   11   12 1   
    19   11   38 1   
    20   11   62 1   
    21   12   13 1   
    22   12   17 2   
    23   13   14 1   
    24   13   28 1   
    25   13   39 1   
    26   14   15 1   
    27   14   18 1   
    28   15   16 2   
    29   15   30 1   
    30   16   17 1   
    31   16   40 1   
    32   18   19 1   
    33   18   41 1   
    34   18   42 1   
    35   19   20 1   
    36   19   43 1   
    37   19   44 1   
    38   20   21 1   
    39   20   45 1   
    40   20   63 1   
    41   21   22 1   
    42   21   46 1   
    43   21   47 1   
    44   22   23 1   
    45   22   27 1   
    46   22   48 1   
    47   23   24 1   
    48   23   49 1   
    49   23   50 1   
    50   24   26 1   
    51   24   51 1   
    52   24   52 1   
    53   25   27 1   
    54   25   53 1   
    55   25   54 1   
    56   25   55 1   
    57   26   29 1   
    58   26   31 1   
    59   26   56 1   
    60   27   31 1   
    61   27   57 1   
    62   28   58 1   
    63   29   59 1   
    64   29   60 1   
    65   29   64 1   
    66   31   61 1   
@<TRIPOS>SUBSTRUCTURE
     1 C1D         1 TEMP              0 ****  ****    0 ROOT
