@<TRIPOS>MOLECULE
C1D
   64    66     1     0     0
SMALL
bcc


@<TRIPOS>ATOM
      1 C1          1.9330    0.3800   -0.9530 ca        1 C1D      0.412200
      2 N2          2.7040   -0.0600    0.0500 nb        1 C1D     -0.684000
      3 C3          2.1740   -0.0200    1.3020 ca        1 C1D      0.291600
      4 C4          0.8840    0.4510    1.5870 ca        1 C1D     -0.171300
      5 C5          0.0960    0.9040    0.5180 ca        1 C1D     -0.079000
      6 C6          0.6210    0.8750   -0.7700 ca        1 C1D     -0.183300
      7 C11         3.0840   -0.4770    2.4410 c3        1 C1D      0.381300
      8 C12         3.7090   -1.8750    2.0490 c3        1 C1D      0.047800
      9 F13         4.1000    0.4160    2.7240 f         1 C1D     -0.222800
     10 F14         2.4490   -0.5720    3.6610 f         1 C1D     -0.222800
     11 N15         4.6060   -2.3890    3.1310 n4        1 C1D     -0.699000
     12 C18         5.5540   -3.3980    2.6240 c2        1 C1D      0.371200
     13 C19         6.9230   -2.8490    2.1660 c3        1 C1D      0.381000
     14 N20         7.8870   -3.9260    1.8920 nh        1 C1D     -0.677400
     15 C21         7.4500   -5.2490    1.9040 c2        1 C1D      0.215400
     16 C22         6.1360   -5.5830    2.1830 ce        1 C1D     -0.020400
     17 N23         5.2020   -4.6580    2.5960 ne        1 C1D     -0.420300
     18 C24         9.2850   -3.5950    1.9030 c3        1 C1D      0.199800
     19 C25         9.9830   -3.8370    3.2720 c3        1 C1D      0.057800
     20 N28        11.4730   -3.7800    3.1690 n4        1 C1D     -0.759000
     21 C29        12.1310   -4.0590    4.4860 c3        1 C1D      0.109800
     22 C30        13.6550   -4.1930    4.3970 c3        1 C1D     -0.140700
     23 C33        14.3040   -2.8550    4.0670 c3        1 C1D     -0.091400
     24 C34        15.8200   -2.8990    4.1460 c3        1 C1D     -0.134400
     25 C2         13.6370   -6.1360    6.0390 c3        1 C1D     -0.118100
     26 C35        16.2130   -3.4270    5.5430 c3        1 C1D      0.366700
     27 C37        14.1840   -4.7350    5.7630 c3        1 C1D      0.197500
     28 O42         7.3940   -1.9950    3.2020 oh        1 C1D     -0.624800
     29 N6         17.7230   -3.4110    5.7350 n4        1 C1D     -0.847600
     30 CL43        8.5360   -6.4980    1.5210 cl        1 C1D      0.005600
     31 N29        15.6420   -4.7400    5.8350 n3        1 C1D     -0.815200
     32 H1          2.3870    0.3410   -1.9620 h4        1 C1D      0.048100
     33 H4          0.5000    0.4730    2.6180 ha        1 C1D      0.173000
     34 H5         -0.9230    1.2820    0.7070 ha        1 C1D      0.178000
     35 H6          0.0380    1.2280   -1.6350 ha        1 C1D      0.180000
     36 H121        2.8760   -2.6140    1.8770 hx        1 C1D      0.146200
     37 H122        4.3070   -1.7520    1.1030 hx        1 C1D      0.146200
     38 H15         5.1560   -1.6070    3.5250 hn        1 C1D      0.481300
     39 H119        6.7890   -2.2730    1.1960 h2        1 C1D      0.104700
     40 H22         5.7540   -6.6210    2.1020 h4        1 C1D      0.242000
     41 H241        9.7970   -4.2040    1.0990 h1        1 C1D      0.091700
     42 H242        9.3880   -2.5040    1.6350 h1        1 C1D      0.091700
     43 H251        9.7050   -4.8550    3.6750 hx        1 C1D      0.124700
     44 H252        9.6420   -3.0530    4.0100 hx        1 C1D      0.124700
     45 H28        11.7900   -4.4740    2.4790 hn        1 C1D      0.455300
     46 H291       11.6920   -5.0250    4.8770 hx        1 C1D      0.120700
     47 H292       11.8540   -3.2240    5.1920 hx        1 C1D      0.120700
     48 H330       13.9240   -4.9430    3.6010 hc        1 C1D      0.083700
     49 H33        13.9230   -2.0690    4.7740 hc        1 C1D      0.066700
     50 H331       14.0290   -2.5370    3.0260 hc        1 C1D      0.066700
     51 H34        16.2250   -1.8640    3.9860 hc        1 C1D      0.092200
     52 H341       16.2330   -3.5590    3.3380 hc        1 C1D      0.092200
     53 H2C1       13.7040   -6.7840    5.1330 hc        1 C1D      0.073700
     54 H2C2       12.5730   -6.0660    6.3720 hc        1 C1D      0.073700
     55 H2C3       14.2060   -6.6310    6.8680 hc        1 C1D      0.073700
     56 H335       15.8120   -2.7110    6.3360 hx        1 C1D      0.128700
     57 H337       13.8200   -4.0370    6.5760 h1        1 C1D      0.088700
     58 H42         7.7500   -1.1900    2.7980 ho        1 C1D      0.445000
     59 H6N1       18.0540   -2.4440    5.6480 hn        1 C1D      0.476800
     60 H6N2       18.1940   -3.9900    5.0320 hn        1 C1D      0.476800
     61 HN1        16.0250   -5.4640    5.2510 hn        1 C1D      0.394800
     62 H152        4.0240   -2.7850    3.8880 hn        1 C1D      0.481300
     63 H282       11.7590   -2.8520    2.8340 hn        1 C1D      0.455300
     64 H63        17.9620   -3.7690    6.6710 hn        1 C1D      0.476800
@<TRIPOS>BOND
     1    1    2 ar  
     2    1    6 ar  
     3    1   32 1   
     4    2    3 ar  
     5    3    4 ar  
     6    3    7 1   
     7    4    5 ar  
     8    4   33 1   
     9    5    6 ar  
    10    5   34 1   
    11    6   35 1   
    12    7    8 1   
    13    7    9 1   
    14    7   10 1   
    15    8   11 1   
    16    8   36 1   
    17    8   37 1   
    18   11   12 1   
    19   11   38 1   
    20   11   62 1   
    21   12   13 1   
    22   12   17 2   
    23   13   14 1   
    24   13   28 1   
    25   13   39 1   
    26   14   15 1   
    27   14   18 1   
    28   15   16 2   
    29   15   30 1   
    30   16   17 1   
    31   16   40 1   
    32   18   19 1   
    33   18   41 1   
    34   18   42 1   
    35   19   20 1   
    36   19   43 1   
    37   19   44 1   
    38   20   21 1   
    39   20   45 1   
    40   20   63 1   
    41   21   22 1   
    42   21   46 1   
    43   21   47 1   
    44   22   23 1   
    45   22   27 1   
    46   22   48 1   
    47   23   24 1   
    48   23   49 1   
    49   23   50 1   
    50   24   26 1   
    51   24   51 1   
    52   24   52 1   
    53   25   27 1   
    54   25   53 1   
    55   25   54 1   
    56   25   55 1   
    57   26   29 1   
    58   26   31 1   
    59   26   56 1   
    60   27   31 1   
    61   27   57 1   
    62   28   58 1   
    63   29   59 1   
    64   29   60 1   
    65   29   64 1   
    66   31   61 1   
@<TRIPOS>SUBSTRUCTURE
     1 C1D         1 TEMP              0 ****  ****    0 ROOT
