@<TRIPOS>MOLECULE
C1D
   64    66     1     0     0
SMALL
bcc


@<TRIPOS>ATOM
      1 C1          1.9840    0.2170   -1.1360 ca        1 C1D      0.412200
      2 N2          2.7430   -0.1710   -0.1020 nb        1 C1D     -0.684000
      3 C3          2.2090   -0.0370    1.1420 ca        1 C1D      0.291600
      4 C4          0.9270    0.4750    1.3890 ca        1 C1D     -0.171300
      5 C5          0.1520    0.8710    0.2890 ca        1 C1D     -0.079000
      6 C6          0.6810    0.7470   -0.9920 ca        1 C1D     -0.183300
      7 C11         3.1070   -0.4360    2.3130 c3        1 C1D      0.381300
      8 C12         3.7040   -1.8690    2.0180 c3        1 C1D      0.047800
      9 F13         4.1400    0.4540    2.5400 f         1 C1D     -0.222800
     10 F14         2.4660   -0.4360    3.5340 f         1 C1D     -0.222800
     11 N15         4.5880   -2.3270    3.1360 ny        1 C1D     -0.699000
     12 C18         5.5240   -3.3790    2.6990 c2        1 C1D      0.370200
     13 C19         6.9000   -2.8800    2.2090 c3        1 C1D      0.381000
     14 N20         7.8510   -3.9840    2.0080 nh        1 C1D     -0.676400
     15 C21         7.3970   -5.2990    2.1070 c2        1 C1D      0.215400
     16 C22         6.0770   -5.5960    2.4050 ce        1 C1D     -0.020400
     17 N23         5.1550   -4.6340    2.7530 ne        1 C1D     -0.420300
     18 C24         9.2520   -3.6720    1.9980 c3        1 C1D      0.199800
     19 C25         9.9470   -3.8290    3.3810 c3        1 C1D      0.057800
     20 N28        11.4360   -3.7860    3.2770 ny        1 C1D     -0.758000
     21 C29        12.0910   -3.9830    4.6110 c3        1 C1D      0.104800
     22 C30        13.6180   -4.1070    4.5310 c3        1 C1D     -0.104700
     23 C33        14.2620   -2.7740    4.1840 c3        1 C1D     -0.090400
     24 C34        15.7690   -2.9020    4.1420 c3        1 C1D     -0.104400
     25 C2         13.6060   -5.9710    6.2550 c3        1 C1D     -0.116100
     26 C35        16.3130   -3.4240    5.4930 c3        1 C1D      0.404700
     27 C37        14.1480   -4.5800    5.9110 c3        1 C1D      0.219500
     28 O42         7.3820   -1.9670    3.1890 oh        1 C1D     -0.624800
     29 N6         17.8090   -3.7500    5.3180 nz        1 C1D     -0.863600
     30 Cl43        8.4670   -6.5840    1.8100 cl        1 C1D      0.006600
     31 N29        15.6080   -4.5970    5.9680 n7        1 C1D     -0.869200
     32 H1          2.4410    0.1020   -2.1380 h4        1 C1D      0.047100
     33 H4          0.5410    0.5730    2.4150 ha        1 C1D      0.173000
     34 H5         -0.8600    1.2800    0.4470 ha        1 C1D      0.178000
     35 H6          0.1080    1.0530   -1.8810 ha        1 C1D      0.180000
     36 H121        4.3070   -1.8210    1.0680 hx        1 C1D      0.146200
     37 H122        2.8570   -2.6010    1.8920 hx        1 C1D      0.146200
     38 H15         3.9960   -2.6670    3.9120 hn        1 C1D      0.481300
     39 H119        6.7750   -2.3660    1.2030 h2        1 C1D      0.104700
     40 H22         5.6830   -6.6330    2.3920 h4        1 C1D      0.242000
     41 H241        9.7570   -4.3400    1.2380 h1        1 C1D      0.092200
     42 H242        9.3690   -2.6020    1.6570 h1        1 C1D      0.092200
     43 H251        9.6080   -2.9980    4.0670 hx        1 C1D      0.124700
     44 H252        9.6630   -4.8180    3.8470 hx        1 C1D      0.124700
     45 H28        11.7270   -2.8830    2.8840 hn        1 C1D      0.455300
     46 H291       11.6560   -4.9260    5.0550 hx        1 C1D      0.120700
     47 H292       11.8060   -3.1090    5.2660 hx        1 C1D      0.120700
     48 H330       13.9000   -4.8800    3.7610 hc        1 C1D      0.093700
     49 H33        13.9670   -1.9980    4.9410 hc        1 C1D      0.068200
     50 H331       13.9180   -2.4140    3.1790 hc        1 C1D      0.068200
     51 H34        16.2200   -1.8940    3.9320 hc        1 C1D      0.091200
     52 H341       16.0580   -3.5960    3.3070 hc        1 C1D      0.091200
     53 H2C1       13.6880   -6.6620    5.3830 hc        1 C1D      0.070700
     54 H2C2       12.5400   -5.8900    6.5750 hc        1 C1D      0.070700
     55 H2C3       14.1670   -6.4300    7.1100 hc        1 C1D      0.070700
     56 H335       16.3120   -2.5720    6.2520 hx        1 C1D      0.096700
     57 H337       13.7500   -3.8450    6.6810 h1        1 C1D      0.049700
     58 H42         7.7470   -1.1940    2.7340 ho        1 C1D      0.445000
     59 H6N1       18.2750   -2.9320    4.9140 hn        1 C1D      0.471133
     60 H6N2       17.9360   -4.5540    4.6930 hn        1 C1D      0.471133
     61 HN1        15.9040   -4.8760    6.8880 hn        1 C1D      0.421800
     62 H152        5.1480   -1.5300    3.4830 hn        1 C1D      0.481300
     63 H282       11.7520   -4.5240    2.6340 hn        1 C1D      0.455300
     64 H63        18.2380   -3.9690    6.2230 hn        1 C1D      0.471133
@<TRIPOS>BOND
     1    1    2 ar  
     2    1    6 ar  
     3    1   32 1   
     4    2    3 ar  
     5    3    4 ar  
     6    3    7 1   
     7    4    5 ar  
     8    4   33 1   
     9    5    6 ar  
    10    5   34 1   
    11    6   35 1   
    12    7    8 1   
    13    7    9 1   
    14    7   10 1   
    15    8   11 1   
    16    8   36 1   
    17    8   37 1   
    18   11   12 1   
    19   11   38 1   
    20   11   62 1   
    21   12   13 1   
    22   12   17 2   
    23   13   14 1   
    24   13   28 1   
    25   13   39 1   
    26   14   15 1   
    27   14   18 1   
    28   15   16 2   
    29   15   30 1   
    30   16   17 1   
    31   16   40 1   
    32   18   19 1   
    33   18   41 1   
    34   18   42 1   
    35   19   20 1   
    36   19   43 1   
    37   19   44 1   
    38   20   21 1   
    39   20   45 1   
    40   20   63 1   
    41   21   22 1   
    42   21   46 1   
    43   21   47 1   
    44   22   23 1   
    45   22   27 1   
    46   22   48 1   
    47   23   24 1   
    48   23   49 1   
    49   23   50 1   
    50   24   26 1   
    51   24   51 1   
    52   24   52 1   
    53   25   27 1   
    54   25   53 1   
    55   25   54 1   
    56   25   55 1   
    57   26   29 1   
    58   26   31 1   
    59   26   56 1   
    60   27   31 1   
    61   27   57 1   
    62   28   58 1   
    63   29   59 1   
    64   29   60 1   
    65   29   64 1   
    66   31   61 1   
@<TRIPOS>SUBSTRUCTURE
     1 C1D         1 TEMP              0 ****  ****    0 ROOT
