@<TRIPOS>MOLECULE
C1D
   61    59     1     0     0
SMALL
bcc


@<TRIPOS>ATOM
      1 C1         -7.4570    6.1450    0.9860 c1        1 C1D     -0.119250
      2 N2         -6.4050    5.3090    1.1560 n1        1 C1D     -0.112000
      3 C3         -6.2610    4.6180    2.3290 c1        1 C1D     -0.086000
      4 C4         -7.1930    4.7740    3.3450 c1        1 C1D     -0.119250
      5 C5         -8.2490    5.6110    3.1760 c1        1 C1D     -0.119250
      6 C6         -8.3920    6.3020    2.0030 c1        1 C1D     -0.119250
      7 C11        -4.9940    3.8020    2.5800 c3        1 C1D      0.283000
      8 C12        -4.5730    3.1010    1.2940 c3        1 C1D     -0.076000
      9 F13        -4.0090    4.6200    2.9850 f         1 C1D     -0.162000
     10 F14        -5.2330    2.8910    3.5260 f         1 C1D     -0.162000
     11 N15        -3.6740    1.9840    1.6150 n3        1 C1D     -0.260000
     12 C18        -2.3300    2.0190    1.1920 c2        1 C1D      0.004000
     13 C19        -1.6770    0.7800    0.6390 c3        1 C1D      0.162000
     14 N20        -0.2550    0.8510    0.6600 n3        1 C1D     -0.300000
     15 C21         0.3420    1.9190    0.0880 c2        1 C1D      0.003000
     16 C22        -0.3400    3.2820    0.2650 c1        1 C1D     -0.167000
     17 N23        -1.6770    3.3070    0.9250 n1        1 C1D     -0.148000
     18 C24         0.5350   -0.3340    1.0110 c3        1 C1D     -0.030000
     19 C25         1.0160   -1.0050   -0.2470 c3        1 C1D     -0.102000
     20 N28         2.2420   -1.7390    0.0310 n3        1 C1D     -0.301000
     21 C29         2.6440   -2.5160   -1.1740 c3        1 C1D     -0.070000
     22 C30         4.1190   -3.0020   -1.0070 c3        1 C1D     -0.100000
     23 C33         4.9670   -2.2740   -1.9750 c3        1 C1D     -0.154000
     24 C34         6.2820   -2.6930   -1.9820 c3        1 C1D     -0.148000
     25 C2          3.5780   -4.9540   -2.3390 c3        1 C1D     -0.250000
     26 C35         6.4530   -4.0810   -2.1260 c3        1 C1D      0.039000
     27 C37         4.1510   -4.5730   -1.1710 c3        1 C1D     -0.022000
     28 O42        -2.1740   -0.4490    1.3220 oh        1 C1D     -0.338000
     29 N6          6.0570   -4.4600   -3.4840 n3        1 C1D     -0.373000
     30 CL43        2.0230    1.8370   -0.3760 cl        1 C1D      0.009000
     31 N29         5.6710   -4.8750   -1.1750 n3        1 C1D     -0.324000
     32 H1         -7.5600    6.6420    0.1400 ha        1 C1D      0.155250
     33 H4         -7.0890    4.2730    4.1940 ha        1 C1D      0.155250
     34 H5         -8.9170    5.7230    3.9030 ha        1 C1D      0.155250
     35 H6         -9.1510    6.9050    1.8800 ha        1 C1D      0.155250
     36 H121       -4.0980    3.7500    0.7020 h1        1 C1D      0.137500
     37 H122       -5.3590    2.7640    0.8380 h1        1 C1D      0.137500
     38 H15        -3.9940    1.2500    2.0600 hn        1 C1D      0.215000
     39 H119       -1.9930    0.6150   -0.2860 h2        1 C1D      0.132000
     40 H22         0.1850    4.1110    0.1820 ha        1 C1D      0.182000
     41 H241        1.2970   -0.0680    1.5480 h1        1 C1D      0.112500
     42 H242       -0.0350   -0.9740    1.5330 h1        1 C1D      0.112500
     43 H251        1.1870   -0.3390   -0.9190 h1        1 C1D      0.075500
     44 H252        0.3320   -1.6240   -0.5670 h1        1 C1D      0.075500
     45 H28         2.0980   -2.3290    0.7480 hn        1 C1D      0.153000
     46 H291        2.0530   -3.2930   -1.2740 h1        1 C1D      0.072500
     47 H292        2.5750   -1.9510   -1.9650 h1        1 C1D      0.072500
     48 H330        4.4170   -2.7800   -0.1090 hc        1 C1D      0.098000
     49 H33         4.9470   -1.3250   -1.7510 hc        1 C1D      0.089000
     50 H331        4.5920   -2.3940   -2.8790 hc        1 C1D      0.089000
     51 H34         6.7580   -2.2350   -2.7440 hc        1 C1D      0.096000
     52 H341        6.7060   -2.4110   -1.1290 hc        1 C1D      0.096000
     53 H2C1        2.6050   -4.9680   -2.2370 hc        1 C1D      0.077000
     54 H2C2        3.8950   -5.8530   -2.5800 hc        1 C1D      0.077000
     55 H2C3        3.8270   -4.3120   -3.0550 hc        1 C1D      0.077000
     56 H335        7.4140   -4.2960   -2.0040 h2        1 C1D      0.109000
     57 H337        3.7110   -5.0130   -0.4060 h1        1 C1D      0.092000
     58 H42        -2.5530   -1.0170    0.6960 ho        1 C1D      0.219000
     59 H6N1        5.7830   -5.3510   -3.4910 hn        1 C1D      0.143500
     60 H6N2        5.3770   -3.9340   -3.7570 hn        1 C1D      0.143500
     61 HN1         5.8040   -5.7640   -1.3410 hn        1 C1D      0.155000
@<TRIPOS>BOND
     1    1    6 1   
     2    1   32 1   
     3    2    3 1   
     4    3    7 1   
     5    4    5 1   
     6    4   33 1   
     7    5   34 1   
     8    6   35 1   
     9    7    8 1   
    10    7    9 1   
    11    7   10 1   
    12    8   11 1   
    13    8   36 1   
    14    8   37 1   
    15   11   12 1   
    16   11   38 1   
    17   12   13 1   
    18   12   17 1   
    19   13   14 1   
    20   13   28 1   
    21   13   39 1   
    22   14   15 1   
    23   14   18 1   
    24   15   16 1   
    25   15   30 1   
    26   16   40 1   
    27   18   19 1   
    28   18   41 1   
    29   18   42 1   
    30   19   20 1   
    31   19   43 1   
    32   19   44 1   
    33   20   21 1   
    34   20   45 1   
    35   21   22 1   
    36   21   46 1   
    37   21   47 1   
    38   22   23 1   
    39   22   27 1   
    40   22   48 1   
    41   23   24 1   
    42   23   49 1   
    43   23   50 1   
    44   24   26 1   
    45   24   51 1   
    46   24   52 1   
    47   25   27 1   
    48   25   53 1   
    49   25   54 1   
    50   25   55 1   
    51   26   29 1   
    52   26   31 1   
    53   26   56 1   
    54   27   31 1   
    55   27   57 1   
    56   28   58 1   
    57   29   59 1   
    58   29   60 1   
    59   31   61 1   
@<TRIPOS>SUBSTRUCTURE
     1 C1D         1 TEMP              0 ****  ****    0 ROOT
