@<TRIPOS>MOLECULE
C1E
   25    19     1     0     0
SMALL
bcc


@<TRIPOS>ATOM
      1 OA4        -1.1020    0.0920   -0.1060 o         1 C1E     -0.317000
      2 CA6         0.1130    0.1150   -0.1120 c1        1 C1E      0.331000
      3 CA5         0.8780   -0.0430    1.1840 c1        1 C1E     -0.144000
      4 CA4         0.2580   -0.5270    2.2780 c1        1 C1E     -0.144000
      5 CA3        -1.2030   -0.9120    2.2110 c1        1 C1E     -0.223000
      6 CLA1       -1.7130   -2.2200    1.1760 cl        1 C1E     -0.015000
      7 CA2        -2.1110   -0.2450    2.9500 c1        1 C1E      0.065000
      8 OA3        -1.6990    0.8100    3.7850 o         1 C1E     -0.301000
      9 CA1        -3.5720   -0.6300    2.8830 c2        1 C1E      0.344000
     10 OA2        -3.9730   -1.6800    3.4500 o         1 C1E     -0.527500
     11 OA1        -4.3910    0.1100    2.2780 o         1 C1E     -0.527500
     12 CB1         0.8600    0.2780   -1.4170 c2        1 C1E     -0.135000
     13 CB2         0.9710    1.5310   -2.0000 c2        1 C1E     -0.091000
     14 CB3         1.6330    1.6770   -3.2090 c1        1 C1E     -0.159000
     15 CB4         2.1840    0.5700   -3.8350 c1        1 C1E     -0.144000
     16 CB5         2.0730   -0.6830   -3.2520 c1        1 C1E     -0.144000
     17 CB6         1.4110   -0.8290   -2.0430 c1        1 C1E     -0.067000
     18 HA5         1.8210    0.2060    1.2270 ha        1 C1E      0.127750
     19 HA4         0.7520   -0.6290    3.1140 ha        1 C1E      0.127750
     20 HOA3       -1.9410    0.6370    4.6230 ho        1 C1E      0.259000
     21 HB2         0.5960    2.3130   -1.5520 ha        1 C1E      0.141000
     22 HB3         1.7110    2.5590   -3.6200 ha        1 C1E      0.120000
     23 HB4         2.6500    0.6720   -4.6870 ha        1 C1E      0.127750
     24 HB5         2.4610   -1.4630   -3.6930 ha        1 C1E      0.127750
     25 HB6         1.3330   -1.7110   -1.6330 ha        1 C1E      0.167000
@<TRIPOS>BOND
     1    1    2 1   
     2    2   12 1   
     3    3    4 1   
     4    3   18 1   
     5    4   19 1   
     6    5    7 1   
     7    7    9 1   
     8    8   20 1   
     9    9   10 1   
    10    9   11 1   
    11   12   13 1   
    12   12   17 1   
    13   13   14 1   
    14   13   21 1   
    15   14   22 1   
    16   15   16 1   
    17   15   23 1   
    18   16   24 1   
    19   17   25 1   
@<TRIPOS>SUBSTRUCTURE
     1 C1E         1 TEMP              0 ****  ****    0 ROOT
