@<TRIPOS>MOLECULE
C1E
   25    25     1     0     0
SMALL
bcc


@<TRIPOS>ATOM
      1 OA4        -0.4610    1.4730   -0.8980 o         1 C1E     -0.566100
      2 CA6         0.2740    0.6020   -0.4070 c         1 C1E      0.608900
      3 CA5        -0.1410   -0.2160    0.7420 ce        1 C1E     -0.322200
      4 CA4         0.2990   -0.1800    2.0070 cf        1 C1E     -0.009000
      5 CA3         1.2890    0.6870    2.5970 cf        1 C1E     -0.110600
      6 CLA1        1.6270    2.1570    1.7650 cl        1 C1E     -0.158400
      7 CA2         1.9150    0.3870    3.7690 ce        1 C1E      0.074900
      8 OA3         2.8300    1.2690    4.2720 oh        1 C1E     -0.518100
      9 CA1         1.7300   -0.8720    4.6370 c         1 C1E      0.893800
     10 OA2         2.4260   -0.8700    5.6930 o         1 C1E     -0.800800
     11 OA1         0.9530   -1.7910    4.2830 o         1 C1E     -0.800800
     12 CB1         1.5690    0.2600   -1.0530 ca        1 C1E     -0.154600
     13 CB2         1.9150    0.8770   -2.2630 ca        1 C1E     -0.077000
     14 CB3         3.1140    0.5610   -2.8970 ca        1 C1E     -0.155500
     15 CB4         3.9810   -0.3710   -2.3250 ca        1 C1E     -0.119000
     16 CB5         3.6460   -0.9840   -1.1190 ca        1 C1E     -0.155500
     17 CB6         2.4440   -0.6710   -0.4820 ca        1 C1E     -0.077000
     18 HA5        -0.9380   -0.9320    0.4720 ha        1 C1E      0.133000
     19 HA4        -0.1240   -0.9190    2.7280 ha        1 C1E      0.184000
     20 HOA3        3.1720    0.8930    5.1100 ho        1 C1E      0.454000
     21 HB2         1.2260    1.6180   -2.7000 ha        1 C1E      0.155500
     22 HB3         3.3790    1.0500   -3.8450 ha        1 C1E      0.124500
     23 HB4         4.9290   -0.6180   -2.8240 ha        1 C1E      0.117000
     24 HB5         4.3310   -1.7100   -0.6600 ha        1 C1E      0.124500
     25 HB6         2.1860   -1.1450    0.4810 ha        1 C1E      0.155500
@<TRIPOS>BOND
     1    1    2 2   
     2    2    3 1   
     3    2   12 1   
     4    3    4 2   
     5    3   18 1   
     6    4    5 1   
     7    4   19 1   
     8    5    6 1   
     9    5    7 2   
    10    7    8 1   
    11    7    9 1   
    12    8   20 1   
    13    9   10 1   
    14    9   11 1   
    15   12   13 ar  
    16   12   17 ar  
    17   13   14 ar  
    18   13   21 1   
    19   14   15 ar  
    20   14   22 1   
    21   15   16 ar  
    22   15   23 1   
    23   16   17 ar  
    24   16   24 1   
    25   17   25 1   
@<TRIPOS>SUBSTRUCTURE
     1 C1E         1 TEMP              0 ****  ****    0 ROOT
