@<TRIPOS>MOLECULE
C1E
   25    25     1     0     0
SMALL
bcc


@<TRIPOS>ATOM
      1 OA4         1.3120   -2.1570   -0.2590 o         1 C1E     -0.566100
      2 CA6         1.5060   -0.9420   -0.0820 c         1 C1E      0.584900
      3 CA5         0.4570    0.0400    0.1370 ce        1 C1E     -0.364200
      4 CA4        -0.8580   -0.2590    0.0250 cf        1 C1E      0.076000
      5 CA3        -1.9390    0.6560    0.2270 cf        1 C1E     -0.204600
      6 CLA1       -1.5600    2.2860    0.6710 cl        1 C1E     -0.195400
      7 CA2        -3.2470    0.2810    0.0760 ce        1 C1E      0.136900
      8 OA3        -4.3000    1.1100    0.2460 oh        1 C1E     -0.464100
      9 CA1        -3.7020   -1.1630   -0.3130 c         1 C1E      0.935800
     10 OA2        -3.9910   -1.9150    0.6440 o         1 C1E     -0.772300
     11 OA1        -3.7200   -1.4130   -1.5380 o         1 C1E     -0.772300
     12 CB1         2.9010   -0.4130   -0.0680 ca        1 C1E     -0.138600
     13 CB2         3.9210   -1.1860    0.4990 ca        1 C1E     -0.093500
     14 CB3         5.2310   -0.7090    0.5250 ca        1 C1E     -0.149000
     15 CB4         5.5310    0.5370   -0.0250 ca        1 C1E     -0.129000
     16 CB5         4.5200    1.3050   -0.6020 ca        1 C1E     -0.149000
     17 CB6         3.2070    0.8340   -0.6220 ca        1 C1E     -0.093500
     18 HA5         0.7910    1.0500    0.4150 ha        1 C1E      0.130000
     19 HA4        -1.1690   -1.2900   -0.2540 ha        1 C1E      0.173000
     20 HOA3       -3.9870    1.9980    0.4940 ho        1 C1E      0.402000
     21 HB2         3.6750   -2.1760    0.9130 ha        1 C1E      0.146500
     22 HB3         6.0270   -1.3180    0.9770 ha        1 C1E      0.122500
     23 HB4         6.5640    0.9130   -0.0050 ha        1 C1E      0.118000
     24 HB5         4.7560    2.2840   -1.0410 ha        1 C1E      0.122500
     25 HB6         2.4100    1.4400   -1.0800 ha        1 C1E      0.146500
@<TRIPOS>BOND
     1    1    2 2   
     2    2    3 1   
     3    2   12 1   
     4    3    4 2   
     5    3   18 1   
     6    4    5 1   
     7    4   19 1   
     8    5    6 1   
     9    5    7 2   
    10    7    8 1   
    11    7    9 1   
    12    8   20 1   
    13    9   10 1   
    14    9   11 1   
    15   12   13 ar  
    16   12   17 ar  
    17   13   14 ar  
    18   13   21 1   
    19   14   15 ar  
    20   14   22 1   
    21   15   16 ar  
    22   15   23 1   
    23   16   17 ar  
    24   16   24 1   
    25   17   25 1   
@<TRIPOS>SUBSTRUCTURE
     1 C1E         1 TEMP              0 ****  ****    0 ROOT
