@<TRIPOS>MOLECULE
C1E
   25    25     1     0     0
SMALL
bcc


@<TRIPOS>ATOM
      1 OA4        -0.7170    0.8740   -0.9290 o         1 C1E     -0.566100
      2 CA6         0.1790    0.1980   -0.4000 c         1 C1E      0.608900
      3 CA5        -0.0550   -0.6000    0.8120 ce        1 C1E     -0.322200
      4 CA4         0.3860   -0.3900    2.0600 cf        1 C1E     -0.009000
      5 CA3         1.1960    0.6920    2.5630 cf        1 C1E     -0.110600
      6 ClA1        1.2320    2.1360    1.6260 cl        1 C1E     -0.158400
      7 CA2         1.8840    0.6020    3.7360 ce        1 C1E      0.074900
      8 OA3         2.6170    1.6770    4.1540 oh        1 C1E     -0.518100
      9 CA1         1.9570   -0.6040    4.6920 c         1 C1E      0.893800
     10 OA2         2.6540   -0.3920    5.7260 o         1 C1E     -0.800800
     11 OA1         1.3680   -1.6780    4.4210 o         1 C1E     -0.800800
     12 CB1         1.5070    0.0660   -1.0560 ca        1 C1E     -0.154600
     13 CB2         1.7100    0.6480   -2.3150 ca        1 C1E     -0.077000
     14 CB3         2.9390    0.5240   -2.9580 ca        1 C1E     -0.155500
     15 CB4         3.9780   -0.1780   -2.3460 ca        1 C1E     -0.119000
     16 CB5         3.7850   -0.7530   -1.0910 ca        1 C1E     -0.155500
     17 CB6         2.5540   -0.6330   -0.4460 ca        1 C1E     -0.077000
     18 HA5        -0.7010   -1.4730    0.6120 ha        1 C1E      0.133000
     19 HA4         0.1240   -1.1430    2.8400 ha        1 C1E      0.184000
     20 HOA3        3.0370    1.4350    5.0060 ho        1 C1E      0.454000
     21 HB2         0.8840    1.2080   -2.7830 ha        1 C1E      0.155500
     22 HB3         3.0910    0.9840   -3.9440 ha        1 C1E      0.124500
     23 HB4         4.9500   -0.2730   -2.8520 ha        1 C1E      0.117000
     24 HB5         4.6050   -1.2980   -0.6010 ha        1 C1E      0.124500
     25 HB6         2.4060   -1.0750    0.5550 ha        1 C1E      0.155500
@<TRIPOS>BOND
     1    1    2 2   
     2    2    3 1   
     3    2   12 1   
     4    3    4 2   
     5    3   18 1   
     6    4    5 1   
     7    4   19 1   
     8    5    6 1   
     9    5    7 2   
    10    7    8 1   
    11    7    9 1   
    12    8   20 1   
    13    9   10 1   
    14    9   11 1   
    15   12   13 ar  
    16   12   17 ar  
    17   13   14 ar  
    18   13   21 1   
    19   14   15 ar  
    20   14   22 1   
    21   15   16 ar  
    22   15   23 1   
    23   16   17 ar  
    24   16   24 1   
    25   17   25 1   
@<TRIPOS>SUBSTRUCTURE
     1 C1E         1 TEMP              0 ****  ****    0 ROOT
