@<TRIPOS>MOLECULE
C1F
   31    28     1     0     0
SMALL
bcc


@<TRIPOS>ATOM
      1 C1         -0.5200   -0.2340   -1.5160 c1        1 C1F     -0.087000
      2 C2          0.8460   -0.2160   -1.4860 c1        1 C1F     -0.181000
      3 C3          1.2430   -0.2500   -0.1640 c1        1 C1F      0.018000
      4 C4          2.6710   -0.2720    0.3350 c2        1 C1F     -0.102000
      5 C6         -1.3810   -0.2610   -2.7600 c2        1 C1F     -0.159000
      6 O           0.1160   -0.2900    0.6150 os        1 C1F     -0.123000
      7 C7         -4.0380   -0.1110    2.0340 c3        1 C1F     -0.204000
      8 C9          2.9380    0.9710    1.1540 c3        1 C1F     -0.208000
      9 C11        -2.3390   -0.6500    0.3240 c3        1 C1F     -0.063000
     10 C40        -0.9750   -0.2800   -0.2140 c2        1 C1F     -0.146000
     11 C12        -2.6150    0.1390    1.5840 c3        1 C1F     -0.166000
     12 C70         4.4000    1.0140    1.5430 c2        1 C1F      0.326000
     13 O1          2.0910   -1.2720   -3.2500 o         1 C1F     -0.586500
     14 C13         1.7620   -0.1940   -2.6890 c1        1 C1F      0.382000
     15 O2          2.1920    0.9030   -3.1330 o         1 C1F     -0.586500
     16 O3          5.2250    1.6320    0.8200 o         1 C1F     -0.605500
     17 O4          4.7950    0.4070    2.5730 o         1 C1F     -0.605500
     18 H4C1        3.2820   -0.2980   -0.4280 ha        1 C1F      0.122000
     19 H4C2        2.8090   -1.0650    0.8910 ha        1 C1F      0.122000
     20 H6C1       -0.8160   -0.1390   -3.5520 ha        1 C1F      0.075333
     21 H6C2       -2.0420    0.4620   -2.7160 ha        1 C1F      0.075333
     22 H6C3       -1.8440   -1.1230   -2.8190 ha        1 C1F      0.075333
     23 H7C1       -4.2110    0.3860    2.8610 hc        1 C1F      0.056000
     24 H7C2       -4.6580    0.1890    1.3370 hc        1 C1F      0.056000
     25 H7C3       -4.1660   -1.0690    2.1950 hc        1 C1F      0.056000
     26 H9C1        2.3860    0.9550    1.9620 hc        1 C1F      0.064500
     27 H9C2        2.7180    1.7640    0.6250 hc        1 C1F      0.064500
     28 H111       -2.3600   -1.6070    0.5270 hc        1 C1F      0.070000
     29 H112       -3.0200   -0.4440   -0.3460 hc        1 C1F      0.070000
     30 H121       -2.4930    1.0930    1.4050 hc        1 C1F      0.094500
     31 H122       -1.9960   -0.1420    2.2870 hc        1 C1F      0.094500
@<TRIPOS>BOND
     1    1    2 1   
     2    1   10 1   
     3    2    3 1   
     4    3    6 1   
     5    4    8 1   
     6    4   18 1   
     7    4   19 1   
     8    5   20 1   
     9    5   21 1   
    10    5   22 1   
    11    6   10 1   
    12    7   11 1   
    13    7   23 1   
    14    7   24 1   
    15    7   25 1   
    16    8   12 1   
    17    8   26 1   
    18    8   27 1   
    19    9   10 1   
    20    9   11 1   
    21    9   28 1   
    22    9   29 1   
    23   11   30 1   
    24   11   31 1   
    25   12   16 1   
    26   12   17 1   
    27   13   14 1   
    28   14   15 1   
@<TRIPOS>SUBSTRUCTURE
     1 C1F         1 TEMP              0 ****  ****    0 ROOT
