@<TRIPOS>MOLECULE
C1F
   31    31     1     0     0
SMALL
bcc


@<TRIPOS>ATOM
      1 C1          1.7340   -1.2940    0.3840 cc        1 C1F     -0.158600
      2 C2          0.3480   -1.5140    0.0080 cc        1 C1F     -0.266900
      3 C3         -0.2100   -0.2550   -0.1790 cd        1 C1F      0.308000
      4 C4         -1.5380    0.2400   -0.5900 c3        1 C1F     -0.117700
      5 C6          2.7220   -2.3350    0.6790 c3        1 C1F     -0.032800
      6 O           0.7540    0.7400    0.0640 os        1 C1F     -0.380800
      7 C7          4.8180    2.5050   -0.1540 c3        1 C1F     -0.086100
      8 C9         -2.1280    1.2520    0.3700 c3        1 C1F     -0.179400
      9 C40         1.9380    0.0750    0.4040 cd        1 C1F      0.143000
     10 C12         3.6650    1.6010   -0.5050 c3        1 C1F     -0.085400
     11 C70        -3.1690    2.1760   -0.2740 c         1 C1F      0.906600
     12 O1         -1.3190   -2.9600   -0.9000 o         1 C1F     -0.851800
     13 C13        -0.3120   -2.8520   -0.1420 c         1 C1F      0.933200
     14 O2          0.1660   -3.8480    0.4880 o         1 C1F     -0.851800
     15 O3         -3.0510    2.5170   -1.4890 o         1 C1F     -0.870300
     16 O4         -4.1060    2.6110    0.4650 o         1 C1F     -0.870300
     17 H4C1       -1.4500    0.7230   -1.6040 hc        1 C1F      0.082700
     18 H4C2       -2.2100   -0.6570   -0.6940 hc        1 C1F      0.082700
     19 H6C1        3.3920   -2.4990   -0.2030 hc        1 C1F      0.035700
     20 H6C2        3.3640   -2.0430    1.5480 hc        1 C1F      0.035700
     21 H6C3        2.1920   -3.2980    0.9100 hc        1 C1F      0.035700
     22 H7C1        4.4880    3.3090    0.5480 hc        1 C1F      0.017033
     23 H7C2        5.6380    1.9280    0.3380 hc        1 C1F      0.017033
     24 H7C3        5.2300    2.9880   -1.0720 hc        1 C1F      0.017033
     25 H9C1       -2.5990    0.7260    1.2380 hc        1 C1F      0.025700
     26 H9C2       -1.3160    1.9110    0.7710 hc        1 C1F      0.025700
     27 H111        3.8790    0.2890    1.2130 hc        1 C1F      0.033700
     28 H112        2.7800    1.7130    1.4660 hc        1 C1F      0.033700
     29 H121        2.8520    2.1900   -1.0050 hc        1 C1F      0.051700
     30 H122        4.0040    0.8190   -1.2340 hc        1 C1F      0.051700
     31 C11         3.0910    0.9250    0.7280 c3        1 C1F     -0.079700
@<TRIPOS>BOND
     1    1    2 1   
     2    1    5 1   
     3    1    9 2   
     4    2    3 2   
     5    2   13 1   
     6    3    4 1   
     7    3    6 1   
     8    4    8 1   
     9    4   17 1   
    10    4   18 1   
    11    5   19 1   
    12    5   20 1   
    13    5   21 1   
    14    6    9 1   
    15    7   10 1   
    16    7   22 1   
    17    7   23 1   
    18    7   24 1   
    19    8   11 1   
    20    8   25 1   
    21    8   26 1   
    22    9   31 1   
    23   10   29 1   
    24   10   30 1   
    25   10   31 1   
    26   11   15 1   
    27   11   16 1   
    28   12   13 1   
    29   13   14 1   
    30   27   31 1   
    31   28   31 1   
@<TRIPOS>SUBSTRUCTURE
     1 C1F         1 TEMP              0 ****  ****    0 ROOT
