@<TRIPOS>MOLECULE
C1F
   31    31     1     0     0
SMALL
bcc


@<TRIPOS>ATOM
      1 C1          0.0250    0.0240   -0.4420 cc        1 C1F     -0.158600
      2 C2          1.4760    0.0550   -0.5040 cc        1 C1F     -0.266900
      3 C3          1.9220    0.0750    0.8120 cd        1 C1F      0.308000
      4 C4          3.2510    0.0770    1.4560 c3        1 C1F     -0.117700
      5 C6         -0.8860   -0.0080   -1.5890 c3        1 C1F     -0.032800
      6 O           0.8270    0.0620    1.6930 os        1 C1F     -0.380800
      7 C7         -3.1790   -1.2560    3.0700 c3        1 C1F     -0.086100
      8 C9          3.4320    1.1960    2.4590 c3        1 C1F     -0.179400
      9 C40        -0.3250    0.0280    0.8980 cd        1 C1F      0.143000
     10 C12        -1.8830   -1.2900    2.3030 c3        1 C1F     -0.085400
     11 C70         4.5050    0.9070    3.5170 c         1 C1F      0.906600
     12 O1          3.4780   -0.3820   -1.7260 o         1 C1F     -0.851800
     13 C13         2.2930    0.0590   -1.7620 c         1 C1F      0.933200
     14 O2          1.7690    0.4950   -2.8340 o         1 C1F     -0.851800
     15 O3          4.6970   -0.2800    3.9170 o         1 C1F     -0.870300
     16 O4          5.1420    1.8960    3.9930 o         1 C1F     -0.870300
     17 H4C1        3.3990   -0.9050    1.9880 hc        1 C1F      0.082700
     18 H4C2        4.0190    0.1420    0.6360 hc        1 C1F      0.082700
     19 H6C1       -1.2590   -1.0500   -1.7620 hc        1 C1F      0.035700
     20 H6C2       -1.7750    0.6500   -1.4130 hc        1 C1F      0.035700
     21 H6C3       -0.3410    0.3360   -2.5090 hc        1 C1F      0.035700
     22 H7C1       -3.3660   -2.2380    3.5660 hc        1 C1F      0.017033
     23 H7C2       -4.0370   -1.0380    2.3880 hc        1 C1F      0.017033
     24 H7C3       -3.1510   -0.4640    3.8570 hc        1 C1F      0.017033
     25 H9C1        3.6930    2.1460    1.9290 hc        1 C1F      0.025700
     26 H9C2        2.4720    1.3690    3.0120 hc        1 C1F      0.025700
     27 H111       -1.6070    0.8550    2.3800 hc        1 C1F      0.033700
     28 H112       -2.4270    0.2530    0.8750 hc        1 C1F      0.033700
     29 H121       -1.9150   -2.1100    1.5390 hc        1 C1F      0.051700
     30 H122       -1.0310   -1.5170    2.9970 hc        1 C1F      0.051700
     31 C11        -1.6090    0.0340    1.6120 c3        1 C1F     -0.079700
@<TRIPOS>BOND
     1    1    2 1   
     2    1    5 1   
     3    1    9 2   
     4    2    3 2   
     5    2   13 1   
     6    3    4 1   
     7    3    6 1   
     8    4    8 1   
     9    4   17 1   
    10    4   18 1   
    11    5   19 1   
    12    5   20 1   
    13    5   21 1   
    14    6    9 1   
    15    7   10 1   
    16    7   22 1   
    17    7   23 1   
    18    7   24 1   
    19    8   11 1   
    20    8   25 1   
    21    8   26 1   
    22    9   31 1   
    23   10   29 1   
    24   10   30 1   
    25   10   31 1   
    26   11   15 1   
    27   11   16 1   
    28   12   13 1   
    29   13   14 1   
    30   27   31 1   
    31   28   31 1   
@<TRIPOS>SUBSTRUCTURE
     1 C1F         1 TEMP              0 ****  ****    0 ROOT
