@<TRIPOS>MOLECULE
C1F
   31    30     1     0     0
SMALL
bcc


@<TRIPOS>ATOM
      1 C1       -319.9400 -154.4770 -301.2020 cc        1 C1F     -0.154600
      2 C2       -320.1680 -155.8600 -301.5920 cc        1 C1F     -0.235900
      3 C3       -319.0010 -156.2810 -302.1990 cd        1 C1F      0.238600
      4 C4        918.1000  441.5420  869.2700 c2        1 C1F     -0.261000
      5 C6       -320.9010 -153.6110 -300.5160 c3        1 C1F     -0.039800
      6 O        -318.0490 -155.2580 -302.2230 os        1 C1F     -0.402800
      7 C7       -316.1750 -151.6240 -300.1970 c3        1 C1F     -0.090100
      8 C9        918.5350  442.7260  869.6880 ce        1 C1F     -0.203200
      9 C40      -318.6520 -154.1530 -301.6000 cd        1 C1F      0.168000
     10 C12      -317.0050 -152.8800 -300.2580 c3        1 C1F     -0.082400
     11 C70       919.6070  442.9090  870.7380 c         1 C1F      0.890800
     12 O1       -321.3410 -157.9090 -301.7660 o         1 C1F     -0.837300
     13 C13      -321.4020 -156.6980 -301.4050 c         1 C1F      0.930200
     14 O2       -322.4380 -156.1710 -300.9060 o         1 C1F     -0.837300
     15 O3        920.1400  441.8890  871.2640 o         1 C1F     -0.845800
     16 O4        919.9220  444.0980  871.0420 o         1 C1F     -0.845800
     17 H4C1     -318.6850 -157.2170 -302.6460 h4        1 C1F      0.045100
     18 H4C2      918.5090  440.6080  869.6790 ha        1 C1F      0.086500
     19 H6C1     -320.5800 -153.4340 -299.4580 hc        1 C1F      0.045367
     20 H6C2     -320.9740 -152.6170 -301.0260 hc        1 C1F      0.045367
     21 H6C3     -321.9100 -154.1040 -300.5070 hc        1 C1F      0.045367
     22 H7C1     -316.8280 -150.7180 -300.2180 hc        1 C1F      0.023367
     23 H7C2     -315.4760 -151.5700 -301.0670 hc        1 C1F      0.023367
     24 H7C3     -315.5710 -151.6020 -299.2580 hc        1 C1F      0.023367
     25 H9C1      917.3200  441.4220  868.5070 ha        1 C1F      0.086500
     26 H9C2      918.1320  443.6680  869.2850 ha        1 C1F      0.091000
     27 H111     -317.1680 -152.8660 -302.4180 hc        1 C1F      0.042200
     28 H112     -318.5340 -152.0440 -301.5480 hc        1 C1F      0.042200
     29 H121     -317.6800 -152.9350 -299.3640 hc        1 C1F      0.047700
     30 H122     -316.3370 -153.7810 -300.2240 hc        1 C1F      0.047700
     31 C11      -317.8430 -152.9290 -301.5230 c3        1 C1F     -0.089700
@<TRIPOS>BOND
     1    1    2 1   
     2    1    5 1   
     3    1    9 2   
     4    2    3 2   
     5    2   13 1   
     6    3    6 1   
     7    3   17 1   
     8    4    8 2   
     9    4   18 1   
    10    4   25 1   
    11    5   19 1   
    12    5   20 1   
    13    5   21 1   
    14    6    9 1   
    15    7   10 1   
    16    7   22 1   
    17    7   23 1   
    18    7   24 1   
    19    8   11 1   
    20    8   26 1   
    21    9   31 1   
    22   10   29 1   
    23   10   30 1   
    24   10   31 1   
    25   11   15 1   
    26   11   16 1   
    27   12   13 1   
    28   13   14 1   
    29   27   31 1   
    30   28   31 1   
@<TRIPOS>SUBSTRUCTURE
     1 C1F         1 TEMP              0 ****  ****    0 ROOT
