@<TRIPOS>MOLECULE
C1H
   45    46     1     0     0
SMALL
bcc


@<TRIPOS>ATOM
      1 OAA       -10.1340    2.0150    1.0850 o         1 C1H     -0.180500
      2 NAB       -10.1650    1.6400   -0.0470 no        1 C1H      0.378200
      3 OAC        -2.3350   -1.5700   -1.6200 o         1 C1H     -0.534000
      4 OAD         3.3540   -3.3150    1.3000 o         1 C1H     -0.627800
      5 OAE        -9.0490    1.0900   -0.5500 os        1 C1H     -0.351000
      6 CAF        -7.8760    0.9810    0.3090 c3        1 C1H      0.134400
      7 CAG        -6.8300    0.3290   -0.5760 c3        1 C1H     -0.086400
      8 CAH        -5.5400    0.1720    0.1990 c3        1 C1H     -0.085400
      9 CAI        -4.4910   -0.4820   -0.6810 c3        1 C1H      0.142400
     10 OAJ        -3.3070   -0.5830    0.1330 os        1 C1H     -0.443900
     11 CAK        -2.2230   -1.1800   -0.4540 c         1 C1H      0.649700
     12 CAL        -1.0420   -1.2690    0.4150 ca        1 C1H     -0.165600
     13 CAM         0.0710   -1.9800   -0.0430 ca        1 C1H      0.043000
     14 CAN         1.2250   -2.0830    0.7440 ca        1 C1H     -0.417500
     15 SAO         2.5430   -2.9660    0.2170 sy        1 C1H      1.521200
     16 NAP         3.3400   -1.9110   -0.8030 nh        1 C1H     -0.815800
     17 CAQ         3.9160   -0.7150   -0.4530 cc        1 C1H      0.602300
     18 NAR         3.7720   -0.1370    0.8130 nd        1 C1H     -0.389000
     19 NAS         4.4000    0.9700    0.9180 nd        1 C1H     -0.202000
     20 OAT         7.0960    2.6010    0.6380 o         1 C1H     -0.648300
     21 CAU        -1.0120   -0.6580    1.6770 ca        1 C1H     -0.002000
     22 CAV         0.1300   -0.7620    2.4670 ca        1 C1H     -0.174000
     23 CAW         1.2390   -1.4660    2.0040 ca        1 C1H      0.046000
     24 OAX         2.1120   -4.0070   -0.6260 o         1 C1H     -0.627800
     25 SAY         4.8910    0.2570   -1.4730 ss        1 C1H      0.069200
     26 CAZ         5.0660    1.3600   -0.2160 cc        1 C1H     -0.036700
     27 SBA         5.9820    2.8090   -0.1840 sy        1 C1H      1.486800
     28 NBB         4.9860    3.8660    0.4600 n3        1 C1H     -1.017700
     29 OBC         6.2270    3.1350   -1.5330 o         1 C1H     -0.648300
     30 ONA       -11.0650    1.6840   -0.8220 o         1 C1H     -0.180500
     31 HAF        -7.5700    2.0070    0.6410 h1        1 C1H      0.069200
     32 HAFA       -8.1320    0.3500    1.1980 h1        1 C1H      0.069200
     33 HAG        -7.2020   -0.6700   -0.9240 hc        1 C1H      0.068700
     34 HAGA       -6.6630    0.9600   -1.4890 hc        1 C1H      0.068700
     35 HAH        -5.1680    1.1720    0.5450 hc        1 C1H      0.059700
     36 HAHA       -5.7070   -0.4570    1.1130 hc        1 C1H      0.059700
     37 HAI        -4.7980   -1.5100   -1.0050 h1        1 C1H      0.060200
     38 HAIA       -4.2560    0.1370   -1.5850 h1        1 C1H      0.060200
     39 HAM         0.0260   -2.4760   -1.0320 ha        1 C1H      0.175000
     40 HNAP        3.4410   -2.1520   -1.7660 hn        1 C1H      0.465800
     41 HAU        -1.8960   -0.1020    2.0340 ha        1 C1H      0.161000
     42 HAV         0.1580   -0.2850    3.4600 ha        1 C1H      0.155000
     43 HAW         2.1450   -1.5470    2.6360 ha        1 C1H      0.178000
     44 HNBB        4.4260    4.4860   -0.0720 hn        1 C1H      0.456300
     45 HNBA        4.8180    3.9400    1.4330 hn        1 C1H      0.456300
@<TRIPOS>BOND
     1    1    2 1   
     2    2    5 1   
     3    2   30 1   
     4    3   11 2   
     5    4   15 2   
     6    5    6 1   
     7    6    7 1   
     8    6   31 1   
     9    6   32 1   
    10    7    8 1   
    11    7   33 1   
    12    7   34 1   
    13    8    9 1   
    14    8   35 1   
    15    8   36 1   
    16    9   10 1   
    17    9   37 1   
    18    9   38 1   
    19   10   11 1   
    20   11   12 1   
    21   12   13 ar  
    22   12   21 ar  
    23   13   14 ar  
    24   13   39 1   
    25   14   15 1   
    26   14   23 ar  
    27   15   16 1   
    28   15   24 2   
    29   16   17 1   
    30   16   40 1   
    31   17   18 2   
    32   17   25 1   
    33   18   19 1   
    34   19   26 2   
    35   20   27 2   
    36   21   22 ar  
    37   21   41 1   
    38   22   23 ar  
    39   22   42 1   
    40   23   43 1   
    41   25   26 1   
    42   26   27 1   
    43   27   28 1   
    44   27   29 2   
    45   28   44 1   
    46   28   45 1   
@<TRIPOS>SUBSTRUCTURE
     1 C1H         1 TEMP              0 ****  ****    0 ROOT
