@<TRIPOS>MOLECULE
C1H
   45    46     1     0     0
SMALL
bcc


@<TRIPOS>ATOM
      1 OAA         0.0090   -0.3330    0.1530 o         1 C1H     -0.180500
      2 NAB         1.1480    0.0170    0.2110 no        1 C1H      0.378200
      3 OAC         2.9500    0.5960    8.6070 o         1 C1H     -0.534000
      4 OAD         0.6060   -0.8530   14.6360 o         1 C1H     -0.627800
      5 OAE         1.6840    0.1860    1.4290 os        1 C1H     -0.351000
      6 CAF         0.8520   -0.0650    2.6000 c3        1 C1H      0.134400
      7 CAG         1.7680    0.2260    3.7730 c3        1 C1H     -0.086400
      8 CAH         1.0130    0.0180    5.0680 c3        1 C1H     -0.085400
      9 CAI         1.9270    0.3050    6.2450 c3        1 C1H      0.142400
     10 OAJ         1.1260    0.0880    7.4220 os        1 C1H     -0.443900
     11 CAK         1.7620    0.2620    8.6230 c         1 C1H      0.649700
     12 CAL         0.9090    0.0210    9.7950 ca        1 C1H     -0.165600
     13 CAM         1.4980    0.0410   11.0630 ca        1 C1H      0.043000
     14 CAN         0.7250   -0.1710   12.2110 ca        1 C1H     -0.417500
     15 SAO         1.4320   -0.1890   13.7260 sy        1 C1H      1.521200
     16 NAP         1.5600    1.4300   14.1170 nh        1 C1H     -0.815800
     17 CAQ         0.5240    2.3130   14.2940 cc        1 C1H      0.602300
     18 NAR        -0.8090    1.9960   14.0100 nd        1 C1H     -0.389000
     19 NAS        -1.6030    2.9650   14.2570 nd        1 C1H     -0.202000
     20 OAT        -2.7010    5.1280   16.2870 o         1 C1H     -0.648300
     21 CAU        -0.4660   -0.2200    9.6640 ca        1 C1H     -0.002000
     22 CAV        -1.2400   -0.4370   10.8020 ca        1 C1H     -0.174000
     23 CAW        -0.6500   -0.4100   12.0640 ca        1 C1H      0.046000
     24 OAX         2.7640   -0.6290   13.6240 o         1 C1H     -0.627800
     25 SAY         0.6710    3.9160   14.8820 ss        1 C1H      0.069200
     26 CAZ        -0.9950    4.0980   14.7330 cc        1 C1H     -0.036700
     27 SBA        -1.9640    5.4510   15.1430 sy        1 C1H      1.486800
     28 NBB        -2.9130    5.6250   13.8810 n3        1 C1H     -1.017700
     29 OBC        -1.0760    6.5420   15.2330 o         1 C1H     -0.648300
     30 ONA         1.9030    0.2440   -0.6770 o         1 C1H     -0.180500
     31 HAF        -0.0330    0.6220    2.5730 h1        1 C1H      0.069200
     32 HAFA        0.5110   -1.1310    2.5830 h1        1 C1H      0.069200
     33 HAG         2.6630   -0.4500    3.7290 hc        1 C1H      0.068700
     34 HAGA        2.1440    1.2810    3.7050 hc        1 C1H      0.068700
     35 HAH         0.6370   -1.0370    5.1350 hc        1 C1H      0.059700
     36 HAHA        0.1210    0.6950    5.1120 hc        1 C1H      0.059700
     37 HAI         2.8070   -0.3890    6.2710 h1        1 C1H      0.060200
     38 HAIA        2.2900    1.3650    6.2460 h1        1 C1H      0.060200
     39 HAM         2.5890    0.2100   11.1490 ha        1 C1H      0.175000
     40 HNAP        2.4670    1.8220   14.2630 hn        1 C1H      0.465800
     41 HAU        -0.9230   -0.2370    8.6600 ha        1 C1H      0.161000
     42 HAV        -2.3200   -0.6280   10.7050 ha        1 C1H      0.155000
     43 HAW        -1.2680   -0.5850   12.9660 ha        1 C1H      0.178000
     44 HNBB       -2.7290    6.2540   13.1390 hn        1 C1H      0.456300
     45 HNBA       -3.7250    5.0800   13.7250 hn        1 C1H      0.456300
@<TRIPOS>BOND
     1    1    2 1   
     2    2    5 1   
     3    2   30 1   
     4    3   11 2   
     5    4   15 2   
     6    5    6 1   
     7    6    7 1   
     8    6   31 1   
     9    6   32 1   
    10    7    8 1   
    11    7   33 1   
    12    7   34 1   
    13    8    9 1   
    14    8   35 1   
    15    8   36 1   
    16    9   10 1   
    17    9   37 1   
    18    9   38 1   
    19   10   11 1   
    20   11   12 1   
    21   12   13 ar  
    22   12   21 ar  
    23   13   14 ar  
    24   13   39 1   
    25   14   15 1   
    26   14   23 ar  
    27   15   16 1   
    28   15   24 2   
    29   16   17 1   
    30   16   40 1   
    31   17   18 2   
    32   17   25 1   
    33   18   19 1   
    34   19   26 2   
    35   20   27 2   
    36   21   22 ar  
    37   21   41 1   
    38   22   23 ar  
    39   22   42 1   
    40   23   43 1   
    41   25   26 1   
    42   26   27 1   
    43   27   28 1   
    44   27   29 2   
    45   28   44 1   
    46   28   45 1   
@<TRIPOS>SUBSTRUCTURE
     1 C1H         1 TEMP              0 ****  ****    0 ROOT
