@<TRIPOS>MOLECULE
C1H
   45    41     1     0     0
SMALL
bcc


@<TRIPOS>ATOM
      1 OAA         3.3810   -4.5740   -8.5880 o         1 C1H     -0.462700
      2 NAB         2.2760   -3.7590   -8.7480 no        1 C1H      0.921400
      3 OAC        -0.3730    1.4200   -2.2730 o         1 C1H     -0.344000
      4 OAD        -2.0900   -0.3250    4.2610 o         1 C1H     -0.914250
      5 OAE         2.1560   -2.5970   -7.9870 os        1 C1H     -0.261000
      6 CAF         1.2870   -2.8270   -6.8910 c3        1 C1H     -0.016000
      7 CAG         1.2410   -1.5550   -5.9830 c3        1 C1H     -0.162000
      8 CAH         0.4640   -1.8770   -4.6780 c3        1 C1H     -0.191000
      9 CAI         0.3240   -0.5570   -3.8050 c3        1 C1H     -0.007000
     10 OAJ        -0.6100   -0.7700   -2.7760 os        1 C1H     -0.277000
     11 CAK        -0.8020    0.3420   -1.9440 c2        1 C1H      0.347000
     12 CAL        -1.6720    0.2230   -0.7270 c2        1 C1H     -0.140000
     13 CAM        -1.1160    0.3640    0.5450 c2        1 C1H      0.037000
     14 CAN        -1.9240    0.2520    1.6670 c1        1 C1H     -0.862000
     15 SAO        -1.1890    0.2290    3.2840 ss        1 C1H      2.885500
     16 NAP        -0.6930    1.7850    3.7220 n2        1 C1H     -0.759000
     17 CAQ        -0.3830    2.0830    5.0890 c2        1 C1H     -0.184000
     18 NAR        -1.1010    1.6400    6.2150 n2        1 C1H     -0.104000
     19 NAS        -0.3330    2.1010    7.5050 n2        1 C1H      0.066000
     20 OAT         3.1330    4.0560    7.4600 o         1 C1H     -0.914250
     21 CAU        -3.0410   -0.0300   -0.8690 c1        1 C1H     -0.004000
     22 CAV        -3.8450   -0.1410    0.2520 c1        1 C1H     -0.171000
     23 CAW        -3.2950   -0.0020    1.5200 c2        1 C1H      0.014000
     24 OAX        -0.0710   -0.7330    3.3490 o         1 C1H     -0.914250
     25 SAY         0.8610    2.8360    5.5900 ss        1 C1H      0.693000
     26 CAZ         0.8310    2.8090    7.1050 c1        1 C1H     -1.131000
     27 SBA         2.0450    3.5180    8.1870 ss        1 C1H      2.885500
     28 NBB         2.5440    2.4200    9.2630 n2        1 C1H     -0.943000
     29 OBC         1.5380    4.6910    8.8400 o         1 C1H     -0.914250
     30 ONA         1.3330   -4.1270   -9.4730 o         1 C1H     -0.462700
     31 HAF         0.3860   -3.0210   -7.2240 h1        1 C1H      0.110000
     32 HAFA        1.6260   -3.6170   -6.3500 h1        1 C1H      0.110000
     33 HAG         0.7820   -0.8140   -6.4720 hc        1 C1H      0.105500
     34 HAGA        2.1590   -1.2810   -5.7570 hc        1 C1H      0.105500
     35 HAH         0.9460   -2.5430   -4.1760 hc        1 C1H      0.104000
     36 HAHA       -0.4440   -2.2250   -4.9060 hc        1 C1H      0.104000
     37 HAI         1.2000   -0.3290   -3.4120 h1        1 C1H      0.109500
     38 HAIA        0.0240    0.1700   -4.3650 h1        1 C1H      0.109500
     39 HAM        -0.1700    0.6530    0.6440 ha        1 C1H      0.179000
     40 HNAP       -0.6200    2.4480    3.0760 hn        1 C1H      0.255000
     41 HAU        -3.4240   -0.1260   -1.7430 ha        1 C1H      0.165000
     42 HAV        -4.8350   -0.3240    0.1460 ha        1 C1H      0.155000
     43 HAW        -3.8690   -0.0800    2.3160 ha        1 C1H      0.169000
     44 HNBB        3.2690    1.8860    9.0740 hn        1 C1H      0.253000
     45 HNBA        2.0930    2.3080   10.0340 hn        1 C1H      0.253000
@<TRIPOS>BOND
     1    1    2 2   
     2    2    5 1   
     3    2   30 2   
     4    3   11 1   
     5    4   15 1   
     6    5    6 1   
     7    6    7 1   
     8    6   31 1   
     9    6   32 1   
    10    7    8 1   
    11    7   33 1   
    12    7   34 1   
    13    8    9 1   
    14    8   35 1   
    15    8   36 1   
    16    9   10 1   
    17    9   37 1   
    18    9   38 1   
    19   10   11 1   
    20   11   12 1   
    21   12   13 1   
    22   12   21 1   
    23   13   14 1   
    24   13   39 1   
    25   14   23 1   
    26   15   24 1   
    27   16   17 1   
    28   16   40 1   
    29   17   18 1   
    30   17   25 1   
    31   18   19 1   
    32   19   26 1   
    33   20   27 1   
    34   21   41 1   
    35   22   23 1   
    36   22   42 1   
    37   23   43 1   
    38   25   26 1   
    39   27   29 1   
    40   28   44 1   
    41   28   45 1   
@<TRIPOS>SUBSTRUCTURE
     1 C1H         1 TEMP              0 ****  ****    0 ROOT
