@<TRIPOS>MOLECULE
C1I
   72    78     1     0     0
SMALL
bcc


@<TRIPOS>ATOM
      1 C1         -0.7700   -0.1750    0.2270 c3        1 C1I      0.083100
      2 N2          0.6900   -0.3160    0.0060 nx        1 C1I     -0.676400
      3 C3          1.1660    0.6570   -1.0080 c3        1 C1I      0.083100
      4 C4          1.4920   -0.2070    1.2880 c3        1 C1I      0.129500
      5 C6          1.0760    0.9650    2.1700 c3        1 C1I     -0.085400
      6 C7          1.9680    1.0740    3.3990 c3        1 C1I      0.193000
      7 C8          3.2890    1.8570    3.2020 c3        1 C1I     -0.098400
      8 C9          3.4890    2.5590    4.5480 c3        1 C1I     -0.091400
      9 C10         2.2030    2.2550    5.3540 c3        1 C1I      0.210000
     10 O11         1.2260    1.9050    4.3270 os        1 C1I     -0.401600
     11 C12         2.3810    1.0020    6.1970 ce        1 C1I     -0.159200
     12 C13         2.4710   -0.2300    5.4250 ce        1 C1I     -0.028000
     13 C14         2.2800   -0.2350    4.0880 c2        1 C1I     -0.233400
     14 C15         2.4660   -1.4390    3.2310 c3        1 C1I      0.176300
     15 O17         2.3240   -2.6760    3.9140 oh        1 C1I     -0.600800
     16 C18         1.4000   -1.5100    2.1180 c3        1 C1I      0.135100
     17 O20         1.6560   -2.5900    1.2370 oh        1 C1I     -0.641800
     18 C21         2.3750    1.0220    7.5420 c2        1 C1I     -0.074200
     19 C22         2.1720    2.2410    8.3660 c3        1 C1I     -0.055200
     20 C23         2.3540    3.5180    7.5530 c3        1 C1I     -0.040000
     21 C24         3.8370    3.7810    7.3720 c3        1 C1I     -0.092100
     22 C25         1.6290    4.7590    8.1350 c3        1 C1I     -0.012400
     23 C26         1.3310    5.6480    6.9140 c3        1 C1I     -0.077400
     24 C27         1.4520    4.7650    5.6680 c3        1 C1I     -0.068400
     25 C28         1.6010    3.3500    6.2090 c3        1 C1I     -0.059700
     26 C29         2.3280    5.4610    9.2480 ca        1 C1I     -0.081300
     27 C30         1.8830    5.2800   10.5450 ca        1 C1I     -0.096000
     28 C31         2.5080    5.9470   11.6250 ca        1 C1I     -0.162300
     29 C32         2.0790    5.7860   12.9860 ca        1 C1I      0.422200
     30 N33         2.6430    6.3980   14.0140 nb        1 C1I     -0.655000
     31 C34         3.6980    7.2350   13.7580 ca        1 C1I      0.390200
     32 C35         4.2010    7.4710   12.4910 ca        1 C1I     -0.229300
     33 C36         3.6020    6.8160   11.3800 ca        1 C1I     -0.010000
     34 C37         4.0450    6.9930   10.0430 ca        1 C1I     -0.120000
     35 C38         3.4260    6.3320    9.0110 ca        1 C1I     -0.111000
     36 H11C       -1.0900   -0.8770    1.0440 hx        1 C1I      0.103367
     37 H12C       -1.3110   -0.4330   -0.7230 hx        1 C1I      0.103367
     38 H13C       -1.0130    0.8810    0.5200 hx        1 C1I      0.103367
     39 H31C        2.2460    0.4570   -1.2420 hx        1 C1I      0.103367
     40 H32C        1.0550    1.7020   -0.6130 hx        1 C1I      0.103367
     41 H33C        0.5540    0.5440   -1.9430 hx        1 C1I      0.103367
     42 H4          2.5690   -0.0720    0.9630 hx        1 C1I      0.109700
     43 H61C        0.0180    0.8330    2.5290 hc        1 C1I      0.081200
     44 H62C        1.1290    1.9310    1.6010 hc        1 C1I      0.081200
     45 H18         0.3790   -1.6310    2.5760 h1        1 C1I      0.083700
     46 H81C        3.1850    2.6010    2.3760 hc        1 C1I      0.053700
     47 H82C        4.1360    1.1710    2.9620 hc        1 C1I      0.053700
     48 H91C        4.3900    2.1620    5.0730 hc        1 C1I      0.071200
     49 H92C        3.6190    3.6590    4.4120 hc        1 C1I      0.071200
     50 H28         0.5560    2.9890    6.4570 hc        1 C1I      0.070700
     51 H13         2.6880   -1.1540    5.9850 ha        1 C1I      0.136000
     52 H21         2.5000    0.0870    8.1160 ha        1 C1I      0.134000
     53 H15         3.4920   -1.4000    2.7550 h1        1 C1I      0.056700
     54 H17         3.0150   -2.7180    4.5870 ho        1 C1I      0.432000
     55 H20         1.8370   -3.3730    1.7820 ho        1 C1I      0.469000
     56 H221        2.8890    2.2370    9.2310 hc        1 C1I      0.072200
     57 H222        1.1330    2.2000    8.7960 hc        1 C1I      0.072200
     58 H241        4.3560    2.8590    7.0140 hc        1 C1I      0.043367
     59 H242        4.0020    4.6000    6.6300 hc        1 C1I      0.043367
     60 H243        4.2970    4.0800    8.3450 hc        1 C1I      0.043367
     61 H25         0.6360    4.3940    8.5320 hc        1 C1I      0.054700
     62 H261        0.3000    6.0720    7.0000 hc        1 C1I      0.055200
     63 H262        2.0420    6.5070    6.8500 hc        1 C1I      0.055200
     64 H271        0.5470    4.8490    5.0180 hc        1 C1I      0.046700
     65 H272        2.3370    5.0720    5.0590 hc        1 C1I      0.046700
     66 H30         1.0300    4.6180   10.7610 ha        1 C1I      0.134000
     67 H38         3.7850    6.4720    7.9790 ha        1 C1I      0.134000
     68 H32         1.2270    5.1170   13.2110 h4        1 C1I      0.023100
     69 H34         4.1290    7.7200   14.6520 h4        1 C1I      0.029100
     70 H35         5.0480    8.1520   12.3310 ha        1 C1I      0.148000
     71 H37         4.8930    7.6690    9.8520 ha        1 C1I      0.141000
     72 H211        0.8660   -1.2720   -0.3530 hn        1 C1I      0.475800
@<TRIPOS>BOND
     1    1    2 1   
     2    1   36 1   
     3    1   37 1   
     4    1   38 1   
     5    2    3 1   
     6    2    4 1   
     7    2   72 1   
     8    3   39 1   
     9    3   40 1   
    10    3   41 1   
    11    4    5 1   
    12    4   16 1   
    13    4   42 1   
    14    5    6 1   
    15    5   43 1   
    16    5   44 1   
    17    6    7 1   
    18    6   10 1   
    19    6   13 1   
    20    7    8 1   
    21    7   46 1   
    22    7   47 1   
    23    8    9 1   
    24    8   48 1   
    25    8   49 1   
    26    9   10 1   
    27    9   11 1   
    28    9   25 1   
    29   11   12 1   
    30   11   18 2   
    31   12   13 2   
    32   12   51 1   
    33   13   14 1   
    34   14   15 1   
    35   14   16 1   
    36   14   53 1   
    37   15   54 1   
    38   16   17 1   
    39   16   45 1   
    40   17   55 1   
    41   18   19 1   
    42   18   52 1   
    43   19   20 1   
    44   19   56 1   
    45   19   57 1   
    46   20   21 1   
    47   20   22 1   
    48   20   25 1   
    49   21   58 1   
    50   21   59 1   
    51   21   60 1   
    52   22   23 1   
    53   22   26 1   
    54   22   61 1   
    55   23   24 1   
    56   23   62 1   
    57   23   63 1   
    58   24   25 1   
    59   24   64 1   
    60   24   65 1   
    61   25   50 1   
    62   26   27 ar  
    63   26   35 ar  
    64   27   28 ar  
    65   27   66 1   
    66   28   29 ar  
    67   28   33 ar  
    68   29   30 ar  
    69   29   68 1   
    70   30   31 ar  
    71   31   32 ar  
    72   31   69 1   
    73   32   33 ar  
    74   32   70 1   
    75   33   34 ar  
    76   34   35 ar  
    77   34   71 1   
    78   35   67 1   
@<TRIPOS>SUBSTRUCTURE
     1 C1I         1 TEMP              0 ****  ****    0 ROOT
