@<TRIPOS>MOLECULE
C1I
   72    78     1     0     0
SMALL
bcc


@<TRIPOS>ATOM
      1 C1         -0.7710   -0.1650    0.2250 c3        1 C1I      0.083100
      2 N2          0.6890   -0.3190    0.0090 n4        1 C1I     -0.676400
      3 C3          1.1770    0.6490   -1.0050 c3        1 C1I      0.083100
      4 C4          1.4870   -0.2140    1.2940 c3        1 C1I      0.129500
      5 C6          1.0780    0.9630    2.1720 c3        1 C1I     -0.085400
      6 C7          1.9670    1.0670    3.4030 c3        1 C1I      0.193000
      7 C8          3.2960    1.8380    3.2090 c3        1 C1I     -0.098400
      8 C9          3.4970    2.5410    4.5540 c3        1 C1I     -0.091400
      9 C10         2.2050    2.2490    5.3570 c3        1 C1I      0.210000
     10 O11         1.2300    1.9050    4.3270 os        1 C1I     -0.401600
     11 C12         2.3710    0.9970    6.2030 ce        1 C1I     -0.159200
     12 C13         2.4530   -0.2370    5.4330 ce        1 C1I     -0.028000
     13 C14         2.2670   -0.2440    4.0960 c2        1 C1I     -0.233400
     14 C15         2.4450   -1.4510    3.2420 c3        1 C1I      0.176300
     15 O17         2.2890   -2.6850    3.9270 oh        1 C1I     -0.600800
     16 C18         1.3810   -1.5140    2.1250 c3        1 C1I      0.135100
     17 O20         1.6310   -2.5990    1.2480 oh        1 C1I     -0.641800
     18 C21         2.3610    1.0190    7.5480 c2        1 C1I     -0.074200
     19 C22         2.1660    2.2420    8.3690 c3        1 C1I     -0.055200
     20 C23         2.3610    3.5150    7.5540 c3        1 C1I     -0.040000
     21 C24         3.8460    3.7660    7.3770 c3        1 C1I     -0.092100
     22 C25         1.6450    4.7630    8.1310 c3        1 C1I     -0.012400
     23 C26         1.3580    5.6520    6.9070 c3        1 C1I     -0.077400
     24 C27         1.4750    4.7670    5.6640 c3        1 C1I     -0.068400
     25 C28         1.6100    3.3520    6.2080 c3        1 C1I     -0.059700
     26 C29         2.3450    5.4620    9.2450 ca        1 C1I     -0.081300
     27 C30         1.8950    5.2880   10.5410 ca        1 C1I     -0.096000
     28 C31         2.5220    5.9520   11.6220 ca        1 C1I     -0.162300
     29 C32         2.0860    5.7970   12.9820 ca        1 C1I      0.422200
     30 N33         2.6520    6.4060   14.0100 nb        1 C1I     -0.655000
     31 C34         3.7160    7.2340   13.7560 ca        1 C1I      0.390200
     32 C35         4.2250    7.4630   12.4900 ca        1 C1I     -0.229300
     33 C36         3.6230    6.8110   11.3790 ca        1 C1I     -0.010000
     34 C37         4.0730    6.9810   10.0430 ca        1 C1I     -0.120000
     35 C38         3.4520    6.3230    9.0100 ca        1 C1I     -0.111000
     36 H11C       -1.1000   -0.8620    1.0420 hx        1 C1I      0.103367
     37 H12C       -1.3110   -0.4200   -0.7270 hx        1 C1I      0.103367
     38 H13C       -1.0050    0.8940    0.5150 hx        1 C1I      0.103367
     39 H31C        1.0730    1.6950   -0.6120 hx        1 C1I      0.103367
     40 H32C        2.2560    0.4380   -1.2350 hx        1 C1I      0.103367
     41 H33C        0.5670    0.5390   -1.9420 hx        1 C1I      0.103367
     42 H4          2.5670   -0.0890    0.9710 hx        1 C1I      0.109700
     43 H61C        0.0180    0.8410    2.5280 hc        1 C1I      0.081200
     44 H62C        1.1410    1.9270    1.6010 hc        1 C1I      0.081200
     45 H18         0.3580   -1.6270    2.5810 h1        1 C1I      0.083700
     46 H81C        4.1370    1.1450    2.9730 hc        1 C1I      0.053700
     47 H82C        3.2010    2.5810    2.3810 hc        1 C1I      0.053700
     48 H91C        4.3940    2.1380    5.0830 hc        1 C1I      0.071200
     49 H92C        3.6370    3.6400    4.4160 hc        1 C1I      0.071200
     50 H28         0.5620    2.9990    6.4530 hc        1 C1I      0.070700
     51 H13         2.6610   -1.1620    5.9960 ha        1 C1I      0.136000
     52 H21         2.4760    0.0840    8.1240 ha        1 C1I      0.134000
     53 H15         3.4720   -1.4210    2.7690 h1        1 C1I      0.056700
     54 H17         2.9780   -2.7320    4.6020 ho        1 C1I      0.432000
     55 H20         1.8040   -3.3810    1.7950 ho        1 C1I      0.469000
     56 H221        2.8800    2.2330    9.2360 hc        1 C1I      0.072200
     57 H222        1.1250    2.2110    8.7950 hc        1 C1I      0.072200
     58 H241        4.0210    4.5820    6.6340 hc        1 C1I      0.043367
     59 H242        4.3060    4.0630    8.3520 hc        1 C1I      0.043367
     60 H243        4.3580    2.8390    7.0230 hc        1 C1I      0.043367
     61 H25         0.6470    4.4080    8.5260 hc        1 C1I      0.054700
     62 H261        0.3310    6.0860    6.9900 hc        1 C1I      0.055200
     63 H262        2.0760    6.5060    6.8440 hc        1 C1I      0.055200
     64 H271        2.3640    5.0650    5.0560 hc        1 C1I      0.046700
     65 H272        0.5730    4.8570    5.0110 hc        1 C1I      0.046700
     66 H30         1.0360    4.6330   10.7560 ha        1 C1I      0.134000
     67 H38         3.8150    6.4580    7.9790 ha        1 C1I      0.134000
     68 H32         1.2280    5.1360   13.2050 h4        1 C1I      0.023100
     69 H34         4.1480    7.7170   14.6510 h4        1 C1I      0.029100
     70 H35         5.0780    8.1360   12.3310 ha        1 C1I      0.148000
     71 H37         4.9270    7.6490    9.8530 ha        1 C1I      0.141000
     72 H211        0.8580   -1.2770   -0.3480 hn        1 C1I      0.475800
@<TRIPOS>BOND
     1    1    2 1   
     2    1   36 1   
     3    1   37 1   
     4    1   38 1   
     5    2    3 1   
     6    2    4 1   
     7    2   72 1   
     8    3   39 1   
     9    3   40 1   
    10    3   41 1   
    11    4    5 1   
    12    4   16 1   
    13    4   42 1   
    14    5    6 1   
    15    5   43 1   
    16    5   44 1   
    17    6    7 1   
    18    6   10 1   
    19    6   13 1   
    20    7    8 1   
    21    7   46 1   
    22    7   47 1   
    23    8    9 1   
    24    8   48 1   
    25    8   49 1   
    26    9   10 1   
    27    9   11 1   
    28    9   25 1   
    29   11   12 1   
    30   11   18 2   
    31   12   13 2   
    32   12   51 1   
    33   13   14 1   
    34   14   15 1   
    35   14   16 1   
    36   14   53 1   
    37   15   54 1   
    38   16   17 1   
    39   16   45 1   
    40   17   55 1   
    41   18   19 1   
    42   18   52 1   
    43   19   20 1   
    44   19   56 1   
    45   19   57 1   
    46   20   21 1   
    47   20   22 1   
    48   20   25 1   
    49   21   58 1   
    50   21   59 1   
    51   21   60 1   
    52   22   23 1   
    53   22   26 1   
    54   22   61 1   
    55   23   24 1   
    56   23   62 1   
    57   23   63 1   
    58   24   25 1   
    59   24   64 1   
    60   24   65 1   
    61   25   50 1   
    62   26   27 ar  
    63   26   35 ar  
    64   27   28 ar  
    65   27   66 1   
    66   28   29 ar  
    67   28   33 ar  
    68   29   30 ar  
    69   29   68 1   
    70   30   31 ar  
    71   31   32 ar  
    72   31   69 1   
    73   32   33 ar  
    74   32   70 1   
    75   33   34 ar  
    76   34   35 ar  
    77   34   71 1   
    78   35   67 1   
@<TRIPOS>SUBSTRUCTURE
     1 C1I         1 TEMP              0 ****  ****    0 ROOT
