@<TRIPOS>MOLECULE
C1K
   41    42     1     0     0
SMALL
bcc


@<TRIPOS>ATOM
      1 CAI         0.1800   -0.1580    0.2320 c3        1 C1K     -0.098400
      2 CAF         1.6850    0.0060    0.1420 c3        1 C1K     -0.077900
      3 CAE         2.2880    0.3470    1.4890 c3        1 C1K     -0.090400
      4 CAG         1.6420    1.5800    2.0830 c3        1 C1K     -0.077900
      5 CAJ         0.1360    1.4260    2.1830 c3        1 C1K     -0.098400
      6 CAL        -0.4380    1.1290    0.7930 c3        1 C1K      0.116500
      7 NAK        -1.9480    1.0140    0.8340 ny        1 C1K     -0.754000
      8 CAQ        -2.6420    2.3350    0.8100 c3        1 C1K      0.107500
      9 CAO        -2.7390    2.9550   -0.6090 c3        1 C1K      0.135100
     10 OAD        -1.4740    3.5000   -0.9120 oh        1 C1K     -0.610800
     11 CAM        -3.8500    4.0180   -0.4750 c3        1 C1K      0.108100
     12 OAB        -4.5610    4.0060   -1.6940 oh        1 C1K     -0.593800
     13 CAN        -4.7450    3.5710    0.7070 c3        1 C1K      0.124100
     14 OAC        -4.7600    4.6380    1.6310 oh        1 C1K     -0.589800
     15 CAP        -4.0880    2.3190    1.3410 c3        1 C1K     -0.124700
     16 CAH        -4.8740    1.0630    0.9750 c3        1 C1K      0.127400
     17 OAA        -6.1780    1.2540    1.4930 oh        1 C1K     -0.586800
     18 HAI1       -0.2270   -0.3750   -0.7910 hc        1 C1K      0.060700
     19 HAI2       -0.0620   -1.0260    0.8990 hc        1 C1K      0.060700
     20 HAF1        1.9330    0.8110   -0.6000 hc        1 C1K      0.068700
     21 HAF2        2.1290   -0.9520   -0.2390 hc        1 C1K      0.068700
     22 HAL        -0.1990    1.9920    0.0960 hx        1 C1K      0.139700
     23 HAE1        3.3890    0.5240    1.3690 hc        1 C1K      0.065700
     24 HAE2        2.1630   -0.5210    2.1890 hc        1 C1K      0.065700
     25 HAG1        2.0530    1.7650    3.1100 hc        1 C1K      0.068700
     26 HAG2        1.8870    2.4780    1.4550 hc        1 C1K      0.068700
     27 HAJ1       -0.3040    2.3710    2.5970 hc        1 C1K      0.060700
     28 HAJ2       -0.1070    0.5880    2.8890 hc        1 C1K      0.060700
     29 HAK        -2.2190    0.5180    1.6900 hn        1 C1K      0.443300
     30 HAQ        -2.0330    3.0410    1.4550 hx        1 C1K      0.136700
     31 HAO        -3.0270    2.1960   -1.3900 h1        1 C1K      0.076700
     32 HAP        -4.0870    2.4300    2.4590 hc        1 C1K      0.105700
     33 HAD        -1.5850    4.0870   -1.6740 ho        1 C1K      0.450000
     34 HAM        -3.4100    5.0340   -0.2690 h1        1 C1K      0.096700
     35 HAB        -5.1590    4.7660   -1.6860 ho        1 C1K      0.436000
     36 HAN        -5.7830    3.3250    0.3520 h1        1 C1K      0.094700
     37 HAC        -5.5280    4.5150    2.2040 ho        1 C1K      0.432000
     38 HAH1       -4.9080    0.9260   -0.1400 h1        1 C1K      0.024700
     39 HAH2       -4.4220    0.1480    1.4470 h1        1 C1K      0.024700
     40 HAA        -6.7130    0.5050    1.2000 ho        1 C1K      0.431000
     41 HAK2       -2.2570    0.4590    0.0280 hn        1 C1K      0.443300
@<TRIPOS>BOND
     1    1    2 1   
     2    1    6 1   
     3    1   18 1   
     4    1   19 1   
     5    2    3 1   
     6    2   20 1   
     7    2   21 1   
     8    3    4 1   
     9    3   23 1   
    10    3   24 1   
    11    4    5 1   
    12    4   25 1   
    13    4   26 1   
    14    5    6 1   
    15    5   27 1   
    16    5   28 1   
    17    6    7 1   
    18    6   22 1   
    19    7    8 1   
    20    7   29 1   
    21    7   41 1   
    22    8    9 1   
    23    8   15 1   
    24    8   30 1   
    25    9   10 1   
    26    9   11 1   
    27    9   31 1   
    28   10   33 1   
    29   11   12 1   
    30   11   13 1   
    31   11   34 1   
    32   12   35 1   
    33   13   14 1   
    34   13   15 1   
    35   13   36 1   
    36   14   37 1   
    37   15   16 1   
    38   15   32 1   
    39   16   17 1   
    40   16   38 1   
    41   16   39 1   
    42   17   40 1   
@<TRIPOS>SUBSTRUCTURE
     1 C1K         1 TEMP              0 ****  ****    0 ROOT
