@<TRIPOS>MOLECULE
C1K
   41    42     1     0     0
SMALL
bcc


@<TRIPOS>ATOM
      1 CAI         0.1530   -0.1820    0.2250 c3        1 C1K     -0.098400
      2 CAF         1.6600   -0.0370    0.1270 c3        1 C1K     -0.077900
      3 CAE         2.2740    0.3000    1.4680 c3        1 C1K     -0.090400
      4 CAG         1.6470    1.5420    2.0630 c3        1 C1K     -0.077900
      5 CAJ         0.1400    1.4060    2.1720 c3        1 C1K     -0.098400
      6 CAL        -0.4460    1.1130    0.7870 c3        1 C1K      0.116500
      7 NAK        -1.9570    1.0160    0.8360 n4        1 C1K     -0.754000
      8 CAQ        -2.6350    2.3450    0.8130 c3        1 C1K      0.107500
      9 CAO        -2.7330    2.9620   -0.6070 c3        1 C1K      0.135100
     10 OAD        -1.4640    3.4910   -0.9180 oh        1 C1K     -0.610800
     11 CAM        -3.8300    4.0390   -0.4690 c3        1 C1K      0.108100
     12 OAB        -4.5490    4.0320   -1.6830 oh        1 C1K     -0.593800
     13 CAN        -4.7230    3.6060    0.7200 c3        1 C1K      0.124100
     14 OAC        -4.7200    4.6750    1.6410 oh        1 C1K     -0.589800
     15 CAP        -4.0780    2.3480    1.3530 c3        1 C1K     -0.124700
     16 CAH        -4.8820    1.1000    0.9950 c3        1 C1K      0.127400
     17 OAA        -6.1790    1.3080    1.5190 oh        1 C1K     -0.586800
     18 HAI1       -0.0950   -1.0470    0.8960 hc        1 C1K      0.060700
     19 HAI2       -0.2630   -0.3980   -0.7940 hc        1 C1K      0.060700
     20 HAF1        2.0900   -1.0010   -0.2550 hc        1 C1K      0.068700
     21 HAF2        1.9130    0.7630   -0.6190 hc        1 C1K      0.068700
     22 HAL        -0.2010    1.9710    0.0860 hx        1 C1K      0.139700
     23 HAE1        2.1430   -0.5650    2.1720 hc        1 C1K      0.065700
     24 HAE2        3.3770    0.4640    1.3420 hc        1 C1K      0.065700
     25 HAG1        2.0660    1.7250    3.0880 hc        1 C1K      0.068700
     26 HAG2        1.8990    2.4350    1.4320 hc        1 C1K      0.068700
     27 HAJ1       -0.1090    0.5730    2.8820 hc        1 C1K      0.060700
     28 HAJ2       -0.2870    2.3570    2.5870 hc        1 C1K      0.060700
     29 HAK        -2.2770    0.4630    0.0340 hn        1 C1K      0.443300
     30 HAQ        -2.0140    3.0460    1.4530 hx        1 C1K      0.136700
     31 HAO        -3.0350    2.2050   -1.3840 h1        1 C1K      0.076700
     32 HAP        -4.0690    2.4620    2.4710 hc        1 C1K      0.105700
     33 HAD        -1.5730    4.0780   -1.6810 ho        1 C1K      0.450000
     34 HAM        -3.3780    5.0500   -0.2680 h1        1 C1K      0.096700
     35 HAB        -5.1380    4.7990   -1.6740 ho        1 C1K      0.436000
     36 HAN        -5.7670    3.3710    0.3720 h1        1 C1K      0.094700
     37 HAC        -5.4870    4.5630    2.2190 ho        1 C1K      0.432000
     38 HAH1       -4.9240    0.9620   -0.1200 h1        1 C1K      0.024700
     39 HAH2       -4.4380    0.1810    1.4660 h1        1 C1K      0.024700
     40 HAA        -6.7260    0.5650    1.2310 ho        1 C1K      0.431000
     41 HAK2       -2.2280    0.5250    1.6950 hn        1 C1K      0.443300
@<TRIPOS>BOND
     1    1    2 1   
     2    1    6 1   
     3    1   18 1   
     4    1   19 1   
     5    2    3 1   
     6    2   20 1   
     7    2   21 1   
     8    3    4 1   
     9    3   23 1   
    10    3   24 1   
    11    4    5 1   
    12    4   25 1   
    13    4   26 1   
    14    5    6 1   
    15    5   27 1   
    16    5   28 1   
    17    6    7 1   
    18    6   22 1   
    19    7    8 1   
    20    7   29 1   
    21    7   41 1   
    22    8    9 1   
    23    8   15 1   
    24    8   30 1   
    25    9   10 1   
    26    9   11 1   
    27    9   31 1   
    28   10   33 1   
    29   11   12 1   
    30   11   13 1   
    31   11   34 1   
    32   12   35 1   
    33   13   14 1   
    34   13   15 1   
    35   13   36 1   
    36   14   37 1   
    37   15   16 1   
    38   15   32 1   
    39   16   17 1   
    40   16   38 1   
    41   16   39 1   
    42   17   40 1   
@<TRIPOS>SUBSTRUCTURE
     1 C1K         1 TEMP              0 ****  ****    0 ROOT
