@<TRIPOS>MOLECULE
C1K
   41    42     1     0     0
SMALL
bcc


@<TRIPOS>ATOM
      1 CAI         0.1700   -0.1650    0.2240 c3        1 C1K     -0.098400
      2 CAF         1.6760   -0.0080    0.1290 c3        1 C1K     -0.077900
      3 CAE         2.2850    0.3310    1.4730 c3        1 C1K     -0.090400
      4 CAG         1.6460    1.5670    2.0690 c3        1 C1K     -0.077900
      5 CAJ         0.1400    1.4180    2.1750 c3        1 C1K     -0.098400
      6 CAL        -0.4410    1.1230    0.7880 c3        1 C1K      0.116500
      7 NAK        -1.9510    1.0150    0.8340 n4        1 C1K     -0.754000
      8 CAQ        -2.6400    2.3380    0.8130 c3        1 C1K      0.107500
      9 CAO        -2.7400    2.9590   -0.6050 c3        1 C1K      0.135100
     10 OAD        -1.4740    3.4990   -0.9130 oh        1 C1K     -0.610800
     11 CAM        -3.8460    4.0260   -0.4660 c3        1 C1K      0.108100
     12 OAB        -4.5620    4.0170   -1.6820 oh        1 C1K     -0.593800
     13 CAN        -4.7370    3.5820    0.7190 c3        1 C1K      0.124100
     14 OAC        -4.7440    4.6490    1.6430 oh        1 C1K     -0.589800
     15 CAP        -4.0840    2.3280    1.3500 c3        1 C1K     -0.124700
     16 CAH        -4.8760    1.0750    0.9860 c3        1 C1K      0.127400
     17 OAA        -6.1770    1.2710    1.5090 oh        1 C1K     -0.586800
     18 HAI1       -0.2420   -0.3810   -0.7970 hc        1 C1K      0.060700
     19 HAI2       -0.0720   -1.0340    0.8920 hc        1 C1K      0.060700
     20 HAF1        2.1140   -0.9670   -0.2550 hc        1 C1K      0.068700
     21 HAF2        1.9240    0.7960   -0.6140 hc        1 C1K      0.068700
     22 HAL        -0.2010    1.9850    0.0890 hx        1 C1K      0.139700
     23 HAE1        3.3870    0.5040    1.3490 hc        1 C1K      0.065700
     24 HAE2        2.1590   -0.5360    2.1740 hc        1 C1K      0.065700
     25 HAG1        1.8930    2.4630    1.4410 hc        1 C1K      0.068700
     26 HAG2        2.0620    1.7500    3.0950 hc        1 C1K      0.068700
     27 HAJ1       -0.2950    2.3650    2.5910 hc        1 C1K      0.060700
     28 HAJ2       -0.1030    0.5810    2.8820 hc        1 C1K      0.060700
     29 HAK        -2.2200    0.5190    1.6910 hn        1 C1K      0.443300
     30 HAQ        -2.0250    3.0420    1.4560 hx        1 C1K      0.136700
     31 HAO        -3.0340    2.2010   -1.3850 h1        1 C1K      0.076700
     32 HAP        -4.0770    2.4380    2.4680 hc        1 C1K      0.105700
     33 HAD        -1.5860    4.0870   -1.6740 ho        1 C1K      0.450000
     34 HAM        -3.4020    5.0400   -0.2620 h1        1 C1K      0.096700
     35 HAB        -5.1580    4.7790   -1.6720 ho        1 C1K      0.436000
     36 HAN        -5.7790    3.3410    0.3690 h1        1 C1K      0.094700
     37 HAC        -5.5110    4.5300    2.2200 ho        1 C1K      0.432000
     38 HAH1       -4.4260    0.1580    1.4550 h1        1 C1K      0.024700
     39 HAH2       -4.9150    0.9390   -0.1290 h1        1 C1K      0.024700
     40 HAA        -6.7170    0.5240    1.2170 ho        1 C1K      0.431000
     41 HAK2       -2.2640    0.4610    0.0290 hn        1 C1K      0.443300
@<TRIPOS>BOND
     1    1    2 1   
     2    1    6 1   
     3    1   18 1   
     4    1   19 1   
     5    2    3 1   
     6    2   20 1   
     7    2   21 1   
     8    3    4 1   
     9    3   23 1   
    10    3   24 1   
    11    4    5 1   
    12    4   25 1   
    13    4   26 1   
    14    5    6 1   
    15    5   27 1   
    16    5   28 1   
    17    6    7 1   
    18    6   22 1   
    19    7    8 1   
    20    7   29 1   
    21    7   41 1   
    22    8    9 1   
    23    8   15 1   
    24    8   30 1   
    25    9   10 1   
    26    9   11 1   
    27    9   31 1   
    28   10   33 1   
    29   11   12 1   
    30   11   13 1   
    31   11   34 1   
    32   12   35 1   
    33   13   14 1   
    34   13   15 1   
    35   13   36 1   
    36   14   37 1   
    37   15   16 1   
    38   15   32 1   
    39   16   17 1   
    40   16   38 1   
    41   16   39 1   
    42   17   40 1   
@<TRIPOS>SUBSTRUCTURE
     1 C1K         1 TEMP              0 ****  ****    0 ROOT
