@<TRIPOS>MOLECULE
C1L
   46    49     1     0     0
SMALL
bcc


@<TRIPOS>ATOM
      1 C5          1.4580    1.1390   -0.5850 ca        1 C1L     -0.165000
      2 C14         3.7050    0.5440    0.1470 ca        1 C1L     -0.178000
      3 C2          1.0100   -0.1830   -0.3350 ca        1 C1L     -0.123300
      4 C3         -0.7030   -1.8650   -0.2900 ca        1 C1L     -0.279200
      5 C9          3.3100   -0.7460    0.4090 ca        1 C1L     -0.082600
      6 C1         -0.3480   -0.5710   -0.5790 ca        1 C1L      0.024700
      7 C4          1.9430   -1.1510    0.1750 ca        1 C1L      0.398600
      8 C10         2.7740    1.4900   -0.3510 ca        1 C1L      0.122100
      9 C7         -1.9090   -2.7140   -0.3470 cc        1 C1L      0.380900
     10 C6          0.3320   -2.7800    0.2240 ca        1 C1L      0.424800
     11 C20        -3.3940    1.6020   -0.7910 c3        1 C1L      0.130300
     12 C24        -1.4710    2.0420    0.5940 c3        1 C1L      0.130300
     13 C21        -4.2700    2.3170    0.2460 c3        1 C1L      0.127400
     14 C23        -2.3880    2.7290    1.6120 c3        1 C1L      0.127400
     15 C17         4.2900   -1.7290    0.9310 c3        1 C1L     -0.051800
     16 C13        -3.2440   -2.2780   -0.7990 c3        1 C1L     -0.117400
     17 C16         4.4460    3.1900   -0.4170 c3        1 C1L      0.113700
     18 C18        -1.3450    0.3790   -1.1850 c3        1 C1L      0.205100
     19 N8          1.6020   -2.4570    0.4560 nb        1 C1L     -0.662000
     20 N11        -0.2950   -4.0660    0.3270 na        1 C1L     -0.114800
     21 N12        -1.6160   -3.9540    0.0790 nd        1 C1L     -0.512100
     22 N19        -2.1830    1.0470   -0.1970 n3        1 C1L     -0.727600
     23 O22        -3.5360    3.2880    0.9820 os        1 C1L     -0.415600
     24 O15         3.0930    2.8070   -0.6310 os        1 C1L     -0.327900
     25 H5          0.7630    1.9040   -0.9610 ha        1 C1L      0.152000
     26 H14         4.7490    0.8420    0.3250 ha        1 C1L      0.143000
     27 H20        -3.9870    0.7520   -1.2310 h1        1 C1L      0.043950
     28 H20A       -3.1550    2.3290   -1.6220 h1        1 C1L      0.043950
     29 H24        -1.0120    2.8410   -0.0600 h1        1 C1L      0.043950
     30 H24A       -0.6380    1.5180    1.1400 h1        1 C1L      0.043950
     31 H21        -5.0730    2.9050   -0.2700 h1        1 C1L      0.055200
     32 H21A       -4.7270    1.5760    0.9530 h1        1 C1L      0.055200
     33 H23        -2.7080    2.0100    2.4110 h1        1 C1L      0.055200
     34 H23A       -1.8640    3.6090    2.0700 h1        1 C1L      0.055200
     35 H17         3.9550   -2.1200    1.9250 hc        1 C1L      0.053033
     36 H17A        4.3800   -2.5970    0.2300 hc        1 C1L      0.053033
     37 H17B        5.3000   -1.2670    1.0550 hc        1 C1L      0.053033
     38 H13        -3.2200   -2.0750   -1.9000 hc        1 C1L      0.059367
     39 H13A       -4.0230   -3.0580   -0.6050 hc        1 C1L      0.059367
     40 H13B       -3.5350   -1.3400   -0.2630 hc        1 C1L      0.059367
     41 H16         4.7230    3.0780    0.6590 h1        1 C1L      0.045700
     42 H16A        5.1330    2.5950   -1.0650 h1        1 C1L      0.045700
     43 H16B        4.4580    4.2690   -0.7170 h1        1 C1L      0.045700
     44 H18        -0.8090    1.1150   -1.8540 h1        1 C1L      0.049200
     45 H18A       -2.0270   -0.2270   -1.8540 h1        1 C1L      0.049200
     46 HN11       -0.0290   -4.7070    1.0460 hn        1 C1L      0.305700
@<TRIPOS>BOND
     1    1    3 ar  
     2    1    8 ar  
     3    1   25 1   
     4    2    5 ar  
     5    2    8 ar  
     6    2   26 1   
     7    3    6 ar  
     8    3    7 ar  
     9    4    6 ar  
    10    4    9 1   
    11    4   10 ar  
    12    5    7 ar  
    13    5   15 1   
    14    6   18 1   
    15    7   19 ar  
    16    8   24 1   
    17    9   16 1   
    18    9   21 2   
    19   10   19 ar  
    20   10   20 1   
    21   11   13 1   
    22   11   22 1   
    23   11   27 1   
    24   11   28 1   
    25   12   14 1   
    26   12   22 1   
    27   12   29 1   
    28   12   30 1   
    29   13   23 1   
    30   13   31 1   
    31   13   32 1   
    32   14   23 1   
    33   14   33 1   
    34   14   34 1   
    35   15   35 1   
    36   15   36 1   
    37   15   37 1   
    38   16   38 1   
    39   16   39 1   
    40   16   40 1   
    41   17   24 1   
    42   17   41 1   
    43   17   42 1   
    44   17   43 1   
    45   18   22 1   
    46   18   44 1   
    47   18   45 1   
    48   20   21 1   
    49   20   46 1   
@<TRIPOS>SUBSTRUCTURE
     1 C1L         1 TEMP              0 ****  ****    0 ROOT
