@<TRIPOS>MOLECULE
C1L
   46    49     1     0     0
SMALL
bcc


@<TRIPOS>ATOM
      1 C5          0.0240    0.0860   -0.0980 ca        1 C1L     -0.165000
      2 C14         0.0380   -0.0400   -2.5310 ca        1 C1L     -0.178000
      3 C2          1.4400    0.0390   -0.0720 ca        1 C1L     -0.123300
      4 C3          3.5370    0.0190    1.0990 ca        1 C1L     -0.279200
      5 C9          1.4120   -0.0770   -2.5510 ca        1 C1L     -0.082600
      6 C1          2.1660    0.0620    1.1640 ca        1 C1L      0.024700
      7 C4          2.1590   -0.0340   -1.3150 ca        1 C1L      0.399600
      8 C10        -0.6580    0.0440   -1.2990 ca        1 C1L      0.122100
      9 C7          4.6830    0.0040    2.0290 cc        1 C1L      0.379900
     10 C6          4.1760   -0.0320   -0.2290 ca        1 C1L      0.425800
     11 C20         1.0430    1.3770    4.4910 c3        1 C1L      0.130300
     12 C24         0.3880    2.2620    2.3470 c3        1 C1L      0.130300
     13 C21         0.8900    2.7830    5.0860 c3        1 C1L      0.126900
     14 C23         0.2690    3.6530    2.9810 c3        1 C1L      0.126900
     15 C17         2.1320   -0.1600   -3.8450 c3        1 C1L     -0.051800
     16 C13         4.5940    0.0350    3.5010 c3        1 C1L     -0.117400
     17 C16        -2.7630    0.0670   -2.4210 c3        1 C1L      0.113700
     18 C18         1.4640    0.0800    2.4940 c3        1 C1L      0.206100
     19 N8          3.5350   -0.0660   -1.3940 nb        1 C1L     -0.663000
     20 N11         5.5880    0.0370    0.0130 na        1 C1L     -0.115800
     21 N12         5.8330   -0.0420    1.3360 nd        1 C1L     -0.511100
     22 N19         1.3330    1.4150    3.0620 n3        1 C1L     -0.726600
     23 O22        -0.0520    3.5650    4.3650 os        1 C1L     -0.415600
     24 O15        -2.0370    0.0930   -1.1980 os        1 C1L     -0.327900
     25 H5         -0.5520    0.1640    0.8360 ha        1 C1L      0.152000
     26 H14        -0.5230   -0.0730   -3.4780 ha        1 C1L      0.143000
     27 H20         0.1040    0.7900    4.7100 h1        1 C1L      0.043950
     28 H20A        1.9030    0.8650    5.0070 h1        1 C1L      0.043950
     29 H24        -0.6430    1.8000    2.3160 h1        1 C1L      0.043950
     30 H24A        0.7530    2.3690    1.2870 h1        1 C1L      0.043950
     31 H21         0.4660    2.7160    6.1220 h1        1 C1L      0.055700
     32 H21A        1.8800    3.3110    5.1070 h1        1 C1L      0.055700
     33 H23         1.2190    4.2340    2.8500 h1        1 C1L      0.055700
     34 H23A       -0.5920    4.2100    2.5280 h1        1 C1L      0.055700
     35 H17         2.7610   -1.0850   -3.8800 hc        1 C1L      0.053033
     36 H17A        1.4180   -0.1850   -4.7040 hc        1 C1L      0.053033
     37 H17B        2.8080    0.7230   -3.9690 hc        1 C1L      0.053033
     38 H13         5.5990    0.1600    3.9750 hc        1 C1L      0.059367
     39 H13A        3.9410    0.8860    3.8200 hc        1 C1L      0.059367
     40 H13B        4.1480   -0.9230    3.8700 hc        1 C1L      0.059367
     41 H16        -2.5030    0.9490   -3.0550 h1        1 C1L      0.045700
     42 H16A       -3.8310    0.1220   -2.0890 h1        1 C1L      0.045700
     43 H16B       -2.5730   -0.8850   -2.9740 h1        1 C1L      0.045700
     44 H18         2.0830   -0.5350    3.2140 h1        1 C1L      0.048700
     45 H18A        0.4660   -0.4430    2.4030 h1        1 C1L      0.048700
     46 HN11        6.2360   -0.4230   -0.5930 hn        1 C1L      0.306700
@<TRIPOS>BOND
     1    1    3 ar  
     2    1    8 ar  
     3    1   25 1   
     4    2    5 ar  
     5    2    8 ar  
     6    2   26 1   
     7    3    6 ar  
     8    3    7 ar  
     9    4    6 ar  
    10    4    9 1   
    11    4   10 ar  
    12    5    7 ar  
    13    5   15 1   
    14    6   18 1   
    15    7   19 ar  
    16    8   24 1   
    17    9   16 1   
    18    9   21 2   
    19   10   19 ar  
    20   10   20 1   
    21   11   13 1   
    22   11   22 1   
    23   11   27 1   
    24   11   28 1   
    25   12   14 1   
    26   12   22 1   
    27   12   29 1   
    28   12   30 1   
    29   13   23 1   
    30   13   31 1   
    31   13   32 1   
    32   14   23 1   
    33   14   33 1   
    34   14   34 1   
    35   15   35 1   
    36   15   36 1   
    37   15   37 1   
    38   16   38 1   
    39   16   39 1   
    40   16   40 1   
    41   17   24 1   
    42   17   41 1   
    43   17   42 1   
    44   17   43 1   
    45   18   22 1   
    46   18   44 1   
    47   18   45 1   
    48   20   21 1   
    49   20   46 1   
@<TRIPOS>SUBSTRUCTURE
     1 C1L         1 TEMP              0 ****  ****    0 ROOT
