@<TRIPOS>MOLECULE
C1L
   46    40     1     0     0
SMALL
bcc


@<TRIPOS>ATOM
      1 C5         -1.6660   -0.4970   -1.1740 c1        1 C1L     -0.165000
      2 C14        -1.7060   -0.6410   -3.5890 c1        1 C1L     -0.178000
      3 C2         -0.2500   -0.4930   -1.1970 c1        1 C1L     -0.058000
      4 C3          1.8660   -0.5110   -0.0270 c1        1 C1L     -0.048000
      5 C9         -0.3100   -0.6360   -3.6130 c1        1 C1L     -0.010000
      6 C1          0.4690   -0.4670   -0.0030 c1        1 C1L      0.032000
      7 C4          0.4190   -0.5610   -2.4000 c1        1 C1L      0.006000
      8 C10        -2.3840   -0.5710   -2.3700 c1        1 C1L      0.077000
      9 C7          2.8110   -0.5710    0.9870 c1        1 C1L     -0.067000
     10 C6          2.5270   -0.5790   -1.2250 c1        1 C1L     -0.048000
     11 C20        -0.0400    0.0930    3.5450 c3        1 C1L     -0.106500
     12 C24        -0.7060    1.7030    1.9450 c3        1 C1L     -0.106500
     13 C21         0.2460    1.2050    4.5450 c3        1 C1L     -0.023500
     14 C23        -0.4210    2.8140    2.9460 c3        1 C1L     -0.023500
     15 C17         0.2590   -0.6730   -5.0370 c3        1 C1L     -0.177000
     16 C13         3.6710   -0.8860    2.2170 c2        1 C1L     -0.160000
     17 C16        -4.7020   -0.4020   -2.9040 c3        1 C1L     -0.076000
     18 C18        -0.3600   -0.5290    1.3040 c3        1 C1L     -0.038000
     19 N8          1.8080   -0.6050   -2.4210 n1        1 C1L     -0.137000
     20 N11         3.8710   -0.6810   -0.9620 n1        1 C1L     -0.182000
     21 N12         4.0400   -0.6750    0.4110 n2        1 C1L     -0.044000
     22 N19         0.0640    0.5360    2.1980 n3        1 C1L     -0.252000
     23 O22        -0.5240    2.3710    4.2920 os        1 C1L     -0.272000
     24 O15        -3.7160   -0.9210   -2.0180 os        1 C1L     -0.211000
     25 H5         -2.1420   -0.4490   -0.3200 ha        1 C1L      0.152000
     26 H14        -2.2100   -0.6930   -4.4290 ha        1 C1L      0.143000
     27 H20        -0.9500   -0.2480    3.6990 h1        1 C1L      0.083250
     28 H20A        0.6020   -0.6380    3.6900 h1        1 C1L      0.083250
     29 H24        -0.5020    2.0290    1.0410 h1        1 C1L      0.083250
     30 H24A       -1.6610    1.4700    1.9920 h1        1 C1L      0.083250
     31 H21         1.1990    1.4370    4.4980 h1        1 C1L      0.095000
     32 H21A        0.0410    0.8790    5.4500 h1        1 C1L      0.095000
     33 H23         0.4890    3.1550    2.7920 h1        1 C1L      0.095000
     34 H23A       -1.0630    3.5450    2.8020 h1        1 C1L      0.095000
     35 H17        -0.1270    0.0620   -5.5630 hc        1 C1L      0.092333
     36 H17A        0.0330   -1.5310   -5.4580 hc        1 C1L      0.092333
     37 H17B        1.2360   -0.5720   -5.0020 hc        1 C1L      0.092333
     38 H13         3.0900   -1.1490    2.9640 ha        1 C1L      0.098667
     39 H13A        4.1880   -0.0890    2.4680 ha        1 C1L      0.098667
     40 H13B        4.2870   -1.6240    2.0060 ha        1 C1L      0.098667
     41 H16        -4.5660    0.5650   -3.0160 h1        1 C1L      0.085000
     42 H16A       -4.6250   -0.8470   -3.7760 h1        1 C1L      0.085000
     43 H16B       -5.5970   -0.5660   -2.5310 h1        1 C1L      0.085000
     44 H18        -0.2190   -1.3990    1.7410 h1        1 C1L      0.088000
     45 H18A       -1.3120   -0.4190    1.0930 h1        1 C1L      0.088000
     46 HN11        4.5410   -0.7410   -1.5870 DU        1 C1L      0.257000
@<TRIPOS>BOND
     1    1    8 1   
     2    1   25 1   
     3    2    5 1   
     4    2   26 1   
     5    3    6 1   
     6    3    7 1   
     7    4   10 1   
     8    5   15 1   
     9    6   18 1   
    10    7   19 1   
    11    8   24 1   
    12    9   21 1   
    13   11   13 1   
    14   11   22 1   
    15   11   27 1   
    16   11   28 1   
    17   12   14 1   
    18   12   22 1   
    19   12   29 1   
    20   12   30 1   
    21   13   23 1   
    22   13   31 1   
    23   13   32 1   
    24   14   23 1   
    25   14   33 1   
    26   14   34 1   
    27   15   35 1   
    28   15   36 1   
    29   15   37 1   
    30   16   38 1   
    31   16   39 1   
    32   16   40 1   
    33   17   24 1   
    34   17   41 1   
    35   17   42 1   
    36   17   43 1   
    37   18   22 1   
    38   18   44 1   
    39   18   45 1   
    40   20   21 1   
@<TRIPOS>SUBSTRUCTURE
     1 C1L         1 TEMP              0 ****  ****    0 ROOT
