@<TRIPOS>MOLECULE
C1L
   46    49     1     0     0
SMALL
bcc


@<TRIPOS>ATOM
      1 C5          0.0240    0.0860   -0.0990 ca        1 C1L     -0.165000
      2 C14         0.0390   -0.0360   -2.5320 ca        1 C1L     -0.178000
      3 C2          1.4410    0.0410   -0.0730 ca        1 C1L     -0.123300
      4 C3          3.5380    0.0210    1.0980 ca        1 C1L     -0.279200
      5 C9          1.4130   -0.0730   -2.5520 ca        1 C1L     -0.082600
      6 C1          2.1670    0.0620    1.1630 ca        1 C1L      0.024700
      7 C4          2.1600   -0.0300   -1.3160 ca        1 C1L      0.399600
      8 C10        -0.6570    0.0450   -1.3000 ca        1 C1L      0.122100
      9 C7          4.6840    0.0060    2.0270 cc        1 C1L      0.379900
     10 C6          4.1770   -0.0270   -0.2300 ca        1 C1L      0.425800
     11 C20         1.0420    1.3710    4.4920 c3        1 C1L      0.130300
     12 C24         0.3870    2.2590    2.3490 c3        1 C1L      0.130300
     13 C21         0.8880    2.7760    5.0890 c3        1 C1L      0.126900
     14 C23         0.2660    3.6480    2.9850 c3        1 C1L      0.126900
     15 C17         2.1330   -0.1530   -3.8460 c3        1 C1L     -0.051800
     16 C13         4.5950    0.0350    3.5000 c3        1 C1L     -0.117400
     17 C16        -2.7620    0.0680   -2.4220 c3        1 C1L      0.113700
     18 C18         1.4640    0.0770    2.4930 c3        1 C1L      0.206100
     19 N8          3.5350   -0.0600   -1.3950 nb        1 C1L     -0.663000
     20 N11         5.5880    0.0430    0.0120 na        1 C1L     -0.115800
     21 N12         5.8340   -0.0380    1.3340 nd        1 C1L     -0.511100
     22 N19         1.3330    1.4120    3.0630 n3        1 C1L     -0.726600
     23 O22        -0.0560    3.5580    4.3690 os        1 C1L     -0.415600
     24 O15        -2.0360    0.0930   -1.1990 os        1 C1L     -0.327900
     25 H5         -0.5510    0.1610    0.8360 ha        1 C1L      0.152000
     26 H14        -0.5220   -0.0690   -3.4780 ha        1 C1L      0.143000
     27 H20         0.1040    0.7830    4.7100 h1        1 C1L      0.043950
     28 H20A        1.9030    0.8590    5.0070 h1        1 C1L      0.043950
     29 H24        -0.6440    1.7960    2.3170 h1        1 C1L      0.043950
     30 H24A        0.7520    2.3680    1.2900 h1        1 C1L      0.043950
     31 H21         0.4630    2.7080    6.1250 h1        1 C1L      0.055700
     32 H21A        1.8770    3.3060    5.1100 h1        1 C1L      0.055700
     33 H23         1.2150    4.2310    2.8560 h1        1 C1L      0.055700
     34 H23A       -0.5960    4.2050    2.5330 h1        1 C1L      0.055700
     35 H17         2.8070    0.7320   -3.9700 hc        1 C1L      0.053033
     36 H17A        2.7640   -1.0770   -3.8820 hc        1 C1L      0.053033
     37 H17B        1.4190   -0.1780   -4.7050 hc        1 C1L      0.053033
     38 H13         5.6000    0.1600    3.9740 hc        1 C1L      0.059367
     39 H13A        3.9410    0.8850    3.8200 hc        1 C1L      0.059367
     40 H13B        4.1490   -0.9240    3.8680 hc        1 C1L      0.059367
     41 H16        -2.5030    0.9510   -3.0550 h1        1 C1L      0.045700
     42 H16A       -2.5720   -0.8830   -2.9760 h1        1 C1L      0.045700
     43 H16B       -3.8300    0.1220   -2.0890 h1        1 C1L      0.045700
     44 H18         0.4670   -0.4460    2.4010 h1        1 C1L      0.048700
     45 H18A        2.0840   -0.5380    3.2120 h1        1 C1L      0.048700
     46 HN11        6.2370   -0.4150   -0.5950 hn        1 C1L      0.306700
@<TRIPOS>BOND
     1    1    3 ar  
     2    1    8 ar  
     3    1   25 1   
     4    2    5 ar  
     5    2    8 ar  
     6    2   26 1   
     7    3    6 ar  
     8    3    7 ar  
     9    4    6 ar  
    10    4    9 1   
    11    4   10 ar  
    12    5    7 ar  
    13    5   15 1   
    14    6   18 1   
    15    7   19 ar  
    16    8   24 1   
    17    9   16 1   
    18    9   21 2   
    19   10   19 ar  
    20   10   20 1   
    21   11   13 1   
    22   11   22 1   
    23   11   27 1   
    24   11   28 1   
    25   12   14 1   
    26   12   22 1   
    27   12   29 1   
    28   12   30 1   
    29   13   23 1   
    30   13   31 1   
    31   13   32 1   
    32   14   23 1   
    33   14   33 1   
    34   14   34 1   
    35   15   35 1   
    36   15   36 1   
    37   15   37 1   
    38   16   38 1   
    39   16   39 1   
    40   16   40 1   
    41   17   24 1   
    42   17   41 1   
    43   17   42 1   
    44   17   43 1   
    45   18   22 1   
    46   18   44 1   
    47   18   45 1   
    48   20   21 1   
    49   20   46 1   
@<TRIPOS>SUBSTRUCTURE
     1 C1L         1 TEMP              0 ****  ****    0 ROOT
