@<TRIPOS>MOLECULE
C1L
   46    49     1     0     0
SMALL
bcc


@<TRIPOS>ATOM
      1 C5          0.0220    0.1000   -0.1040 ca        1 C1L     -0.165000
      2 C14         0.0400   -0.0300   -2.5370 ca        1 C1L     -0.178000
      3 C2          1.4370    0.0250   -0.0740 ca        1 C1L     -0.123300
      4 C3          3.5310   -0.0120    1.1020 ca        1 C1L     -0.279200
      5 C9          1.4130   -0.0990   -2.5520 ca        1 C1L     -0.082600
      6 C1          2.1610    0.0440    1.1630 ca        1 C1L      0.024700
      7 C4          2.1570   -0.0730   -1.3140 ca        1 C1L      0.398600
      8 C10        -0.6570    0.0710   -1.3070 ca        1 C1L      0.122100
      9 C7          4.6750   -0.0110    2.0330 cc        1 C1L      0.380900
     10 C6          4.1710   -0.1170   -0.2230 ca        1 C1L      0.424800
     11 C20         1.0580    1.3670    4.4920 c3        1 C1L      0.130300
     12 C24         0.3760    2.2480    2.3550 c3        1 C1L      0.130300
     13 C21         0.9130    2.7740    5.0870 c3        1 C1L      0.127400
     14 C23         0.2650    3.6400    2.9870 c3        1 C1L      0.127400
     15 C17         2.1350   -0.2030   -3.8440 c3        1 C1L     -0.051800
     16 C13         4.5850    0.0770    3.5040 c3        1 C1L     -0.117400
     17 C16        -2.7600    0.1050   -2.4330 c3        1 C1L      0.113700
     18 C18         1.4550    0.0660    2.4920 c3        1 C1L      0.205100
     19 N8          3.5320   -0.1440   -1.3890 nb        1 C1L     -0.662000
     20 N11         5.5750   -0.2670    0.0310 na        1 C1L     -0.114800
     21 N12         5.8250   -0.1000    1.3450 nd        1 C1L     -0.512100
     22 N19         1.3310    1.4030    3.0590 n3        1 C1L     -0.727600
     23 O22        -0.0380    3.5560    4.3760 os        1 C1L     -0.415600
     24 O15        -2.0350    0.1530   -1.2100 os        1 C1L     -0.327900
     25 H5         -0.5540    0.1910    0.8290 ha        1 C1L      0.152000
     26 H14        -0.5190   -0.0540   -3.4850 ha        1 C1L      0.143000
     27 H20         0.1210    0.7820    4.7230 h1        1 C1L      0.043950
     28 H20A        1.9240    0.8550    4.9980 h1        1 C1L      0.043950
     29 H24         0.7260    2.3530    1.2900 h1        1 C1L      0.043950
     30 H24A       -0.6560    1.7870    2.3400 h1        1 C1L      0.043950
     31 H21         1.9030    3.3020    5.0940 h1        1 C1L      0.055200
     32 H21A        0.5020    2.7100    6.1280 h1        1 C1L      0.055200
     33 H23        -0.6020    4.1970    2.5450 h1        1 C1L      0.055200
     34 H23A        1.2130    4.2220    2.8430 h1        1 C1L      0.055200
     35 H17         2.7430   -1.1420   -3.8740 hc        1 C1L      0.053033
     36 H17A        2.8300    0.6640   -3.9700 hc        1 C1L      0.053033
     37 H17B        1.4230   -0.2140   -4.7050 hc        1 C1L      0.053033
     38 H13         3.9360    0.9430    3.7880 hc        1 C1L      0.059367
     39 H13A        5.5910    0.2140    3.9740 hc        1 C1L      0.059367
     40 H13B        4.1340   -0.8640    3.9090 hc        1 C1L      0.059367
     41 H16        -2.4930    0.9720   -3.0850 h1        1 C1L      0.045700
     42 H16A       -3.8280    0.1760   -2.1030 h1        1 C1L      0.045700
     43 H16B       -2.5760   -0.8590   -2.9660 h1        1 C1L      0.045700
     44 H18         0.4550   -0.4500    2.3980 h1        1 C1L      0.049200
     45 H18A        2.0700   -0.5520    3.2120 h1        1 C1L      0.049200
     46 HN11        6.2500    0.1110   -0.6030 hn        1 C1L      0.305700
@<TRIPOS>BOND
     1    1    3 ar  
     2    1    8 ar  
     3    1   25 1   
     4    2    5 ar  
     5    2    8 ar  
     6    2   26 1   
     7    3    6 ar  
     8    3    7 ar  
     9    4    6 ar  
    10    4    9 1   
    11    4   10 ar  
    12    5    7 ar  
    13    5   15 1   
    14    6   18 1   
    15    7   19 ar  
    16    8   24 1   
    17    9   16 1   
    18    9   21 2   
    19   10   19 ar  
    20   10   20 1   
    21   11   13 1   
    22   11   22 1   
    23   11   27 1   
    24   11   28 1   
    25   12   14 1   
    26   12   22 1   
    27   12   29 1   
    28   12   30 1   
    29   13   23 1   
    30   13   31 1   
    31   13   32 1   
    32   14   23 1   
    33   14   33 1   
    34   14   34 1   
    35   15   35 1   
    36   15   36 1   
    37   15   37 1   
    38   16   38 1   
    39   16   39 1   
    40   16   40 1   
    41   17   24 1   
    42   17   41 1   
    43   17   42 1   
    44   17   43 1   
    45   18   22 1   
    46   18   44 1   
    47   18   45 1   
    48   20   21 1   
    49   20   46 1   
@<TRIPOS>SUBSTRUCTURE
     1 C1L         1 TEMP              0 ****  ****    0 ROOT
