@<TRIPOS>MOLECULE
C1M
   17    18     1     0     0
SMALL
bcc


@<TRIPOS>ATOM
      1 CL1         0.0170   -0.0480   -0.0030 cl        1 C1M     -0.073400
      2 C2          1.7130   -0.0110    0.0020 ca        1 C1M      0.017400
      3 C3          2.4090   -0.1070    1.2100 ca        1 C1M     -0.110000
      4 C4          3.8000   -0.0820    1.2200 ca        1 C1M     -0.118500
      5 C5          4.5090    0.0440    0.0080 ca        1 C1M      0.008800
      6 C6          3.7990    0.1510   -1.2060 ca        1 C1M     -0.118500
      7 C7          2.4090    0.1190   -1.2040 ca        1 C1M     -0.110000
      8 N8          5.9290    0.0640   -0.0010 na        1 C1M     -0.015500
      9 C9          6.7760   -0.2760   -1.0810 cc        1 C1M      0.391400
     10 N10         8.0420   -0.1050   -0.6250 nd        1 C1M     -0.370000
     11 N11         7.9400    0.3090    0.6450 nd        1 C1M     -0.042000
     12 N12         6.7310    0.4180    1.0390 nc        1 C1M     -0.177800
     13 H3          1.8610   -0.2050    2.1610 ha        1 C1M      0.158000
     14 H7          1.8610    0.2010   -2.1560 ha        1 C1M      0.158000
     15 H4          4.3330   -0.1580    2.1830 ha        1 C1M      0.156500
     16 H6          4.3300    0.2680   -2.1640 ha        1 C1M      0.156500
     17 H9          6.4420   -0.6150   -2.0640 h5        1 C1M      0.087100
@<TRIPOS>BOND
     1    1    2 1   
     2    2    3 ar  
     3    2    7 ar  
     4    3    4 ar  
     5    3   13 1   
     6    4    5 ar  
     7    4   15 1   
     8    5    6 ar  
     9    5    8 1   
    10    6    7 ar  
    11    6   16 1   
    12    7   14 1   
    13    8    9 1   
    14    8   12 1   
    15    9   10 2   
    16    9   17 1   
    17   10   11 1   
    18   11   12 2   
@<TRIPOS>SUBSTRUCTURE
     1 C1M         1 TEMP              0 ****  ****    0 ROOT
