@<TRIPOS>MOLECULE
C1M
   17    14     1     0     0
SMALL
bcc


@<TRIPOS>ATOM
      1 CL1        -4.2700   -0.2690    0.0760 cl        1 C1M      0.005000
      2 C2         -2.5290   -0.1750    0.0490 c2        1 C1M     -0.061000
      3 C3         -1.8180   -0.1430    1.2390 c2        1 C1M     -0.111000
      4 C4         -0.4330   -0.0930    1.2180 c1        1 C1M     -0.104000
      5 C5          0.2420   -0.0740    0.0070 c1        1 C1M      0.054000
      6 C6         -0.4690   -0.1070   -1.1830 c1        1 C1M     -0.133000
      7 C7         -1.8540   -0.1570   -1.1620 c1        1 C1M     -0.109000
      8 N8          1.5830   -0.0780   -0.0130 n2        1 C1M     -0.124500
      9 C9          2.3740    0.9990   -0.1520 c1        1 C1M     -0.097000
     10 N10         3.6510    0.5850   -0.1060 n2        1 C1M     -0.124500
     11 N11         3.6500   -0.7490    0.0610 n2        1 C1M     -0.025000
     12 N12         2.3730   -1.1590    0.1180 n2        1 C1M     -0.025000
     13 H3         -2.2930   -0.1560    2.0910 ha        1 C1M      0.159000
     14 H7         -2.3540   -0.1790   -2.0000 ha        1 C1M      0.157000
     15 H4          0.0670   -0.0700    2.0560 ha        1 C1M      0.168000
     16 H6          0.0060   -0.0940   -2.0350 ha        1 C1M      0.145000
     17 H9          2.0730    1.9210   -0.2650 DU        1 C1M      0.224000
@<TRIPOS>BOND
     1    1    2 1   
     2    2    3 1   
     3    2    7 1   
     4    3    4 1   
     5    3   13 1   
     6    4   15 1   
     7    5    6 1   
     8    6   16 1   
     9    7   14 1   
    10    8    9 1   
    11    8   12 1   
    12    9   10 1   
    13   10   11 1   
    14   11   12 1   
@<TRIPOS>SUBSTRUCTURE
     1 C1M         1 TEMP              0 ****  ****    0 ROOT
