@<TRIPOS>MOLECULE
C1M
   17    18     1     0     0
SMALL
bcc


@<TRIPOS>ATOM
      1 CL1        -3.9970    0.0070    0.0460 cl        1 C1M     -0.073400
      2 C2         -2.3010    0.0050    0.0090 ca        1 C1M      0.017400
      3 C3         -1.6000    1.2100    0.1080 ca        1 C1M     -0.110000
      4 C4         -0.2090    1.2150    0.0830 ca        1 C1M     -0.118500
      5 C5          0.4950    0.0000   -0.0450 ca        1 C1M      0.008800
      6 C6         -0.2200   -1.2110   -0.1540 ca        1 C1M     -0.118500
      7 C7         -1.6100   -1.2030   -0.1220 ca        1 C1M     -0.110000
      8 N8          1.9150   -0.0150   -0.0650 na        1 C1M     -0.015500
      9 C9          2.7580   -1.0980    0.2740 cc        1 C1M      0.391400
     10 N10         4.0260   -0.6470    0.1040 nd        1 C1M     -0.370000
     11 N11         3.9290    0.6240   -0.3090 nd        1 C1M     -0.042000
     12 N12         2.7220    1.0230   -0.4160 nc        1 C1M     -0.177800
     13 H3         -2.1440    2.1640    0.2070 ha        1 C1M      0.158000
     14 H7         -2.1610   -2.1530   -0.2060 ha        1 C1M      0.158000
     15 H4          0.3280    2.1750    0.1600 ha        1 C1M      0.156500
     16 H6          0.3070   -2.1710   -0.2730 ha        1 C1M      0.156500
     17 H9          2.4200   -2.0810    0.6110 h5        1 C1M      0.087100
@<TRIPOS>BOND
     1    1    2 1   
     2    2    3 ar  
     3    2    7 ar  
     4    3    4 ar  
     5    3   13 1   
     6    4    5 ar  
     7    4   15 1   
     8    5    6 ar  
     9    5    8 1   
    10    6    7 ar  
    11    6   16 1   
    12    7   14 1   
    13    8    9 1   
    14    8   12 1   
    15    9   10 2   
    16    9   17 1   
    17   10   11 1   
    18   11   12 2   
@<TRIPOS>SUBSTRUCTURE
     1 C1M         1 TEMP              0 ****  ****    0 ROOT
