@<TRIPOS>MOLECULE
C1N
   80    81     1     0     0
SMALL
bcc


@<TRIPOS>ATOM
      1 C1        -11.1240   -9.8400    0.5950 ca        1 C1N     -0.109500
      2 C2        -11.7560  -10.8910   -0.0670 ca        1 C1N     -0.131000
      3 C3        -11.7500  -12.1720    0.4840 ca        1 C1N     -0.121000
      4 C4        -11.1110  -12.4030    1.7020 ca        1 C1N     -0.131000
      5 C5        -10.4840  -11.3530    2.3720 ca        1 C1N     -0.109500
      6 C6        -10.4890  -10.0680    1.8220 ca        1 C1N     -0.101300
      7 C7         -9.8600   -8.9210    2.5370 c3        1 C1N      0.198700
      8 O8         -8.6400   -9.4090    3.1390 os        1 C1N     -0.433900
      9 C9         -7.9070   -8.4520    3.8040 c         1 C1N      0.744100
     10 O10        -8.3090   -7.2730    3.8170 o         1 C1N     -0.610000
     11 N11        -6.7830   -8.9630    4.4100 n         1 C1N     -0.546900
     12 C12        -5.8700   -8.0970    5.1180 c3        1 C1N      0.057700
     13 C14        -5.9640   -7.7450    8.2400 c3        1 C1N     -0.099100
     14 C15        -4.0030   -6.7500    7.0650 c3        1 C1N     -0.099100
     15 C16        -4.9170   -7.3720    4.1250 c         1 C1N      0.634100
     16 C17        -5.0510   -8.8590    6.1720 c3        1 C1N     -0.085400
     17 O18        -3.7060   -7.6620    4.0390 o         1 C1N     -0.626100
     18 N19        -5.4830   -6.3990    3.3380 n         1 C1N     -0.562900
     19 C20        -4.7310   -5.6990    2.3230 c3        1 C1N      0.045700
     20 C21        -5.6090   -5.2300    1.1510 c3        1 C1N     -0.085400
     21 C22        -4.8960   -5.2690   -0.1930 c3        1 C1N     -0.064700
     22 C23        -4.6650   -6.6850   -0.6750 c3        1 C1N     -0.097600
     23 C24        -3.6010   -4.4870   -0.1790 c3        1 C1N     -0.097600
     24 C25        -3.9880   -4.4820    2.9430 c         1 C1N      0.643100
     25 N26        -2.9350   -4.7760    3.7790 n         1 C1N     -0.563900
     26 C27        -2.1620   -3.7410    4.4220 c3        1 C1N      0.012700
     27 C28        -1.6170   -4.1820    5.7950 c3        1 C1N     -0.043100
     28 O29        -4.3210   -3.3040    2.7050 o         1 C1N     -0.622100
     29 C30        -0.9930   -3.3010    3.5260 c         1 C1N      0.521100
     30 O31         0.0620   -3.9290    3.4550 o         1 C1N     -0.499100
     31 C32        -1.2830   -2.0440    2.7330 c3        1 C1N      0.057900
     32 C33        -1.2090   -3.0090    6.6130 ca        1 C1N     -0.132300
     33 C35         0.1450   -2.7080    6.7930 ca        1 C1N     -0.086500
     34 C36         0.5330   -1.6260    7.5790 ca        1 C1N     -0.184500
     35 C37        -0.4500   -0.8370    8.1910 ca        1 C1N      0.127100
     36 C38        -1.8150   -1.1250    8.0200 ca        1 C1N     -0.184500
     37 C39        -2.1800   -2.2100    7.2320 ca        1 C1N     -0.086500
     38 O40        -0.1470    0.2470    8.9830 oh        1 C1N     -0.496100
     39 F1         -0.2940   -1.7310    1.8250 f         1 C1N     -0.227300
     40 H1        -11.1250   -8.8320    0.1540 ha        1 C1N      0.138000
     41 H2        -12.2590  -10.7080   -1.0290 ha        1 C1N      0.134500
     42 H3        -12.2480  -13.0000   -0.0420 ha        1 C1N      0.134000
     43 H4        -11.1020  -13.4130    2.1370 ha        1 C1N      0.134500
     44 H5         -9.9740  -11.5300    3.3320 ha        1 C1N      0.138000
     45 H71        -9.6050   -8.0780    1.8410 h1        1 C1N      0.065700
     46 H72       -10.5270   -8.5380    3.3560 h1        1 C1N      0.065700
     47 H11        -6.5100   -9.8980    4.2170 hn        1 C1N      0.339500
     48 H12        -6.4890   -7.3000    5.6390 h1        1 C1N      0.096700
     49 H13        -4.0370   -8.6640    8.0350 hc        1 C1N      0.054700
     50 H141       -5.6680   -7.2620    9.2030 hc        1 C1N      0.039367
     51 H142       -6.5090   -8.6920    8.4710 hc        1 C1N      0.039367
     52 H143       -6.6640   -7.0560    7.7090 hc        1 C1N      0.039367
     53 H151       -4.6800   -6.0390    6.5310 hc        1 C1N      0.039367
     54 H152       -3.6350   -6.2540    7.9950 hc        1 C1N      0.039367
     55 H153       -3.1320   -6.9690    6.3980 hc        1 C1N      0.039367
     56 H171       -4.0870   -9.2010    5.7050 hc        1 C1N      0.067700
     57 H172       -5.6110   -9.7730    6.5050 hc        1 C1N      0.067700
     58 H19        -6.4490   -6.1700    3.4420 hn        1 C1N      0.348500
     59 H20        -3.9400   -6.4090    1.9260 h1        1 C1N      0.091700
     60 H211       -5.9520   -4.1790    1.3510 hc        1 C1N      0.067200
     61 H212       -6.5250   -5.8750    1.0750 hc        1 C1N      0.067200
     62 H22        -5.5930   -4.7670   -0.9290 hc        1 C1N      0.051700
     63 H231       -4.2440   -6.6710   -1.7100 hc        1 C1N      0.038367
     64 H232       -5.6250   -7.2550   -0.6910 hc        1 C1N      0.038367
     65 H233       -3.9440   -7.2250   -0.0150 hc        1 C1N      0.038367
     66 H241       -2.8270   -5.0110    0.4330 hc        1 C1N      0.038367
     67 H242       -3.2080   -4.3740   -1.2180 hc        1 C1N      0.038367
     68 H243       -3.7660   -3.4710    0.2590 hc        1 C1N      0.038367
     69 H26        -2.6630   -5.7240    3.9280 hn        1 C1N      0.346500
     70 H27        -2.8400   -2.8450    4.5750 h1        1 C1N      0.089700
     71 H281       -0.7450   -4.8720    5.6360 hc        1 C1N      0.069200
     72 H282       -2.4100   -4.7580    6.3480 hc        1 C1N      0.069200
     73 H321       -1.3990   -1.1880    3.4570 h1        1 C1N      0.082200
     74 H322       -2.2610   -2.1920    2.1850 h1        1 C1N      0.082200
     75 H35         0.9130   -3.3290    6.3030 ha        1 C1N      0.141000
     76 H36         1.5980   -1.3930    7.7160 ha        1 C1N      0.144500
     77 H38        -2.5690   -0.4930    8.5080 ha        1 C1N      0.144500
     78 H39        -3.2470   -2.4450    7.0920 ha        1 C1N      0.141000
     79 H40         0.8160    0.3360    9.0110 ho        1 C1N      0.421000
     80 C13        -4.7320   -8.0300    7.4080 c3        1 C1N     -0.063700
@<TRIPOS>BOND
     1    1    2 ar  
     2    1    6 ar  
     3    1   40 1   
     4    2    3 ar  
     5    2   41 1   
     6    3    4 ar  
     7    3   42 1   
     8    4    5 ar  
     9    4   43 1   
    10    5    6 ar  
    11    5   44 1   
    12    6    7 1   
    13    7    8 1   
    14    7   45 1   
    15    7   46 1   
    16    8    9 1   
    17    9   10 2   
    18    9   11 1   
    19   11   12 1   
    20   11   47 1   
    21   12   15 1   
    22   12   16 1   
    23   12   48 1   
    24   13   50 1   
    25   13   51 1   
    26   13   52 1   
    27   13   80 1   
    28   14   53 1   
    29   14   54 1   
    30   14   55 1   
    31   14   80 1   
    32   15   17 2   
    33   15   18 1   
    34   16   56 1   
    35   16   57 1   
    36   16   80 1   
    37   18   19 1   
    38   18   58 1   
    39   19   20 1   
    40   19   24 1   
    41   19   59 1   
    42   20   21 1   
    43   20   60 1   
    44   20   61 1   
    45   21   22 1   
    46   21   23 1   
    47   21   62 1   
    48   22   63 1   
    49   22   64 1   
    50   22   65 1   
    51   23   66 1   
    52   23   67 1   
    53   23   68 1   
    54   24   25 1   
    55   24   28 2   
    56   25   26 1   
    57   25   69 1   
    58   26   27 1   
    59   26   29 1   
    60   26   70 1   
    61   27   32 1   
    62   27   71 1   
    63   27   72 1   
    64   29   30 2   
    65   29   31 1   
    66   31   39 1   
    67   31   73 1   
    68   31   74 1   
    69   32   33 ar  
    70   32   37 ar  
    71   33   34 ar  
    72   33   75 1   
    73   34   35 ar  
    74   34   76 1   
    75   35   36 ar  
    76   35   38 1   
    77   36   37 ar  
    78   36   77 1   
    79   37   78 1   
    80   38   79 1   
    81   49   80 1   
@<TRIPOS>SUBSTRUCTURE
     1 C1N         1 TEMP              0 ****  ****    0 ROOT
