@<TRIPOS>MOLECULE
C1N
   83    84     1     0     0
SMALL
bcc


@<TRIPOS>ATOM
      1 C1          0.6150    2.0450    0.2070 ca        1 C1N     -0.060500
      2 C2          1.7360    1.2800    0.5060 ca        1 C1N     -0.132000
      3 C3          1.7060   -0.1070    0.3310 ca        1 C1N     -0.027000
      4 C4          0.5460   -0.7310   -0.1420 ca        1 C1N     -0.132000
      5 C5         -0.5800    0.0260   -0.4420 ca        1 C1N     -0.060500
      6 C6         -0.5520    1.4260   -0.2830 ca        1 C1N     -0.199300
      7 C7         -1.6980    2.2310   -0.6750 c3        1 C1N      0.270700
      8 O8         -2.5110    2.3440    0.6560 os        1 C1N     -0.394900
      9 C9         -3.6980    2.8700    0.6280 c         1 C1N      0.660100
     10 O10        -4.3660    3.3190   -0.3080 o         1 C1N     -0.569000
     11 N11        -4.3320    2.9060    2.0210 n4        1 C1N     -0.678800
     12 C12        -5.8320    2.9790    1.9570 c3        1 C1N      0.086500
     13 C14        -8.3640    1.5020    2.2780 c3        1 C1N     -0.100100
     14 C15        -8.7810    3.7410    3.3160 c3        1 C1N     -0.100100
     15 C16        -6.2510    4.3450    1.3810 c         1 C1N      0.543100
     16 C17        -6.4540    2.7860    3.3540 c3        1 C1N     -0.112400
     17 O18        -5.9780    5.4260    1.8770 o         1 C1N     -0.392100
     18 N19        -7.0370    4.3250    0.0980 n4        1 C1N     -0.672800
     19 C20        -7.3450    5.6760   -0.5050 c3        1 C1N      0.057500
     20 C21        -7.5300    5.5660   -2.0360 c3        1 C1N     -0.121400
     21 C22        -6.3330    6.1070   -2.8040 c3        1 C1N     -0.084700
     22 C23        -5.0520    5.3900   -2.4460 c3        1 C1N     -0.115100
     23 C24        -6.2010    7.6060   -2.6450 c3        1 C1N     -0.115100
     24 C25        -8.6060    6.3050    0.1080 c         1 C1N      0.518100
     25 N26        -8.7650    7.7700   -0.0920 n4        1 C1N     -0.664800
     26 C27       -10.2050    8.2270   -0.3380 c3        1 C1N      0.009500
     27 C28       -10.3650    9.6970    0.1130 c3        1 C1N     -0.020100
     28 O29        -9.4580    5.6750    0.7200 o         1 C1N     -0.396100
     29 C30       -10.5560    8.0740   -1.8270 c         1 C1N      0.533100
     30 O31        -9.6460    7.9530   -2.6510 o         1 C1N     -0.517100
     31 C32       -12.0310    8.0760   -2.1700 c3        1 C1N      0.097900
     32 C33       -11.7970   10.0540    0.2570 ca        1 C1N     -0.223300
     33 C35       -12.3590   11.0320   -0.5840 ca        1 C1N     -0.076500
     34 C36       -13.6680   11.4490   -0.4080 ca        1 C1N     -0.177500
     35 C37       -14.4400   10.8850    0.6320 ca        1 C1N      0.192100
     36 C38       -13.8850    9.9110    1.4820 ca        1 C1N     -0.177500
     37 C39       -12.5690    9.5100    1.2920 ca        1 C1N     -0.076500
     38 O40       -15.7180   11.3370    0.7430 oh        1 C1N     -0.454100
     39 F1        -12.2540    7.5250   -3.4090 f         1 C1N     -0.179300
     40 H1          0.6460    3.1390    0.3360 ha        1 C1N      0.140500
     41 H2          2.6550    1.7670    0.8730 ha        1 C1N      0.174000
     42 H3          2.6010   -0.7120    0.5620 ha        1 C1N      0.178000
     43 H4          0.5310   -1.8250   -0.2850 ha        1 C1N      0.174000
     44 H5         -1.4860   -0.4670   -0.8270 ha        1 C1N      0.140500
     45 H71        -2.4060    1.7480   -1.3900 h1        1 C1N      0.090700
     46 H72        -1.4740    3.2960   -0.9260 h1        1 C1N      0.090700
     47 H11        -3.9500    3.7090    2.5420 hn        1 C1N      0.494800
     48 H12        -6.1670    2.1310    1.2800 hx        1 C1N      0.148700
     49 H13        -7.7080    0.5980    2.2770 hc        1 C1N      0.047367
     50 H141       -9.4140    1.1580    2.4690 hc        1 C1N      0.047367
     51 H142       -8.3410    1.9730    1.2640 hc        1 C1N      0.047367
     52 H143       -8.1520    1.9830    4.3530 hc        1 C1N      0.129700
     53 H151       -9.8690    3.4800    3.3090 hc        1 C1N      0.047367
     54 H152       -8.5590    4.3460    2.4010 hc        1 C1N      0.047367
     55 H153       -8.5830    4.3750    4.2150 hc        1 C1N      0.047367
     56 H171       -5.9370    1.9120    3.8470 hc        1 C1N      0.104700
     57 H172       -6.2620    3.6990    3.9810 hc        1 C1N      0.104700
     58 H19        -6.4590    3.8150   -0.6070 hn        1 C1N      0.505300
     59 H20        -6.4480    6.3410   -0.2810 hx        1 C1N      0.160700
     60 H211       -7.7170    4.5010   -2.3480 hc        1 C1N      0.107200
     61 H212       -8.4460    6.1410   -2.3520 hc        1 C1N      0.107200
     62 H22        -6.5530    5.9010   -3.8990 hc        1 C1N      0.126700
     63 H231       -5.1680    4.2830   -2.5510 hc        1 C1N      0.053533
     64 H232       -4.7300    5.6150   -1.4000 hc        1 C1N      0.053533
     65 H233       -4.2330    5.7190   -3.1350 hc        1 C1N      0.053533
     66 H241       -5.9430    7.8890   -1.5960 hc        1 C1N      0.053533
     67 H242       -7.1500    8.1180   -2.9470 hc        1 C1N      0.053533
     68 H243       -5.3840    7.9860   -3.3110 hc        1 C1N      0.053533
     69 H26        -8.1990    8.0680   -0.9120 hn        1 C1N      0.488800
     70 H27       -10.8810    7.5690    0.2880 hx        1 C1N      0.145700
     71 H281       -9.8630    9.8430    1.1110 hc        1 C1N      0.079200
     72 H282       -9.8630   10.3720   -0.6310 hc        1 C1N      0.079200
     73 H321      -12.3870    9.1520   -2.1580 h1        1 C1N      0.110200
     74 H322      -12.6030    7.4940   -1.3930 h1        1 C1N      0.110200
     75 H35       -11.7510   11.4960   -1.3770 ha        1 C1N      0.132500
     76 H36       -14.1180   12.2230   -1.0530 ha        1 C1N      0.176000
     77 H38       -14.4850    9.4850    2.3010 ha        1 C1N      0.176000
     78 H39       -12.1300    8.7690    1.9770 ha        1 C1N      0.132500
     79 H40       -16.1400   10.9290    1.5180 ho        1 C1N      0.448000
     80 C13        -7.9470    2.4810    3.3520 c3        1 C1N     -0.091700
     81 H112       -4.0590    2.0470    2.5310 hn        1 C1N      0.494800
     82 H192       -7.9180    3.8040    0.2560 hn        1 C1N      0.505300
     83 H262       -8.4190    8.2580    0.7500 hn        1 C1N      0.488800
@<TRIPOS>BOND
     1    1    2 ar  
     2    1    6 ar  
     3    1   40 1   
     4    2    3 ar  
     5    2   41 1   
     6    3    4 ar  
     7    3   42 1   
     8    4    5 ar  
     9    4   43 1   
    10    5    6 ar  
    11    5   44 1   
    12    6    7 1   
    13    7    8 1   
    14    7   45 1   
    15    7   46 1   
    16    8    9 1   
    17    9   10 2   
    18    9   11 1   
    19   11   12 1   
    20   11   47 1   
    21   11   81 1   
    22   12   15 1   
    23   12   16 1   
    24   12   48 1   
    25   13   49 1   
    26   13   50 1   
    27   13   51 1   
    28   13   80 1   
    29   14   53 1   
    30   14   54 1   
    31   14   55 1   
    32   14   80 1   
    33   15   17 2   
    34   15   18 1   
    35   16   56 1   
    36   16   57 1   
    37   16   80 1   
    38   18   19 1   
    39   18   58 1   
    40   18   82 1   
    41   19   20 1   
    42   19   24 1   
    43   19   59 1   
    44   20   21 1   
    45   20   60 1   
    46   20   61 1   
    47   21   22 1   
    48   21   23 1   
    49   21   62 1   
    50   22   63 1   
    51   22   64 1   
    52   22   65 1   
    53   23   66 1   
    54   23   67 1   
    55   23   68 1   
    56   24   25 1   
    57   24   28 2   
    58   25   26 1   
    59   25   69 1   
    60   25   83 1   
    61   26   27 1   
    62   26   29 1   
    63   26   70 1   
    64   27   32 1   
    65   27   71 1   
    66   27   72 1   
    67   29   30 2   
    68   29   31 1   
    69   31   39 1   
    70   31   73 1   
    71   31   74 1   
    72   32   33 ar  
    73   32   37 ar  
    74   33   34 ar  
    75   33   75 1   
    76   34   35 ar  
    77   34   76 1   
    78   35   36 ar  
    79   35   38 1   
    80   36   37 ar  
    81   36   77 1   
    82   37   78 1   
    83   38   79 1   
    84   52   80 1   
@<TRIPOS>SUBSTRUCTURE
     1 C1N         1 TEMP              0 ****  ****    0 ROOT
