@<TRIPOS>MOLECULE
C1P
   78    80     1     0     0
SMALL
bcc


@<TRIPOS>ATOM
      1 N1         -0.0730   -0.2030    0.5370 ny        1 C1P     -0.677800
      2 C15        -0.6270   -1.2380   -0.4980 c         1 C1P      0.640100
      3 O16         0.2400   -1.9960   -0.9420 o         1 C1P     -0.495100
      4 N9         -1.9700   -1.2540   -0.7290 n         1 C1P     -0.390800
      5 C14        -2.4170   -2.0380   -1.8920 c3        1 C1P      0.032500
      6 C13        -3.8980   -2.4290   -1.7980 c3        1 C1P      0.116900
      7 O12        -4.6960   -1.2960   -1.4880 os        1 C1P     -0.368600
      8 C11        -4.3660   -0.7580   -0.2220 c3        1 C1P      0.116900
      9 C10        -2.8980   -0.2790   -0.1800 c3        1 C1P      0.032500
     10 C2          1.4120   -0.0080    0.3910 c3        1 C1P      0.058500
     11 C3          1.9810    0.5650    1.6990 c         1 C1P      0.529100
     12 O4          1.3080    1.1670    2.5300 o         1 C1P     -0.426100
     13 N28         3.4350    0.4100    1.9160 ny        1 C1P     -0.676800
     14 C19         3.8260   -0.0300    3.3170 c3        1 C1P      0.138500
     15 C18         5.3430    0.1060    3.5290 c3        1 C1P     -0.079400
     16 C17         5.9020    1.5020    3.4090 c3        1 C1P     -0.329600
     17 S33         6.6140    1.8410    1.8570 sy        1 C1P      1.403300
     18 O34         7.3490    0.7190    1.4660 o         1 C1P     -0.683300
     19 O35         5.4520    2.0740    1.0480 o         1 C1P     -0.683300
     20 C32         7.4880    3.1740    2.1420 ca        1 C1P     -0.466500
     21 C36         8.8680    3.0710    2.4090 ca        1 C1P     -0.002000
     22 C37         9.6450    4.2050    2.6160 ca        1 C1P     -0.142500
     23 C29         9.0600    5.4720    2.5580 ca        1 C1P     -0.014000
     24 C30         7.6940    5.5970    2.2870 ca        1 C1P     -0.142500
     25 C31         6.9220    4.4620    2.0810 ca        1 C1P     -0.002000
     26 C20         3.4290   -1.4810    3.5980 c3        1 C1P     -0.123400
     27 C21         1.9310   -1.7100    3.6040 c3        1 C1P     -0.015100
     28 C22         1.5920   -3.0680    4.1060 ca        1 C1P     -0.140300
     29 C23         0.9860   -3.2250    5.3570 ca        1 C1P     -0.123000
     30 C24         0.6670   -4.5000    5.8240 ca        1 C1P     -0.113000
     31 C25         0.9510   -5.6230    5.0450 ca        1 C1P     -0.096000
     32 C26         1.5550   -5.4690    3.7950 ca        1 C1P     -0.113000
     33 C27         1.8740   -4.1970    3.3260 ca        1 C1P     -0.123000
     34 C5          1.7390    0.9270   -0.7850 c3        1 C1P     -0.109400
     35 C6          3.1750    0.8280   -1.2910 c3        1 C1P     -0.085700
     36 C7          3.5930   -0.5980   -1.5770 c3        1 C1P     -0.103600
     37 C8          3.2810    1.6600   -2.5600 c3        1 C1P     -0.103600
     38 HN1        -0.2830   -0.5540    1.4800 hn        1 C1P      0.464800
     39 H141       -1.7900   -2.9720   -1.9640 h1        1 C1P      0.079200
     40 H142       -2.2550   -1.4130   -2.8170 h1        1 C1P      0.079200
     41 H131       -4.0550   -3.2420   -1.0410 h1        1 C1P      0.094200
     42 H132       -4.2570   -2.7640   -2.8110 h1        1 C1P      0.094200
     43 H111       -5.0470    0.1270   -0.0970 h1        1 C1P      0.094200
     44 H112       -4.5500   -1.5130    0.5880 h1        1 C1P      0.094200
     45 H101       -2.6570   -0.0760    0.9010 h1        1 C1P      0.079200
     46 H102       -2.8170    0.6800   -0.7700 h1        1 C1P      0.079200
     47 H2          1.8610   -1.0360    0.1880 hx        1 C1P      0.174700
     48 H28         3.8710    1.3520    1.7420 hn        1 C1P      0.496800
     49 H19         3.2760    0.6660    4.0210 hx        1 C1P      0.121700
     50 H18         5.5290   -0.2700    4.5760 hc        1 C1P      0.107200
     51 H17         6.6790    1.6230    4.2160 h1        1 C1P      0.129200
     52 H36         9.3410    2.0710    2.4370 ha        1 C1P      0.154500
     53 H37        10.7240    4.1030    2.8200 ha        1 C1P      0.169500
     54 H29         9.6760    6.3740    2.7200 ha        1 C1P      0.170000
     55 H30         7.2330    6.5970    2.2310 ha        1 C1P      0.169500
     56 H31         5.8480    4.5660    1.8480 ha        1 C1P      0.154500
     57 H201        3.8310   -1.7390    4.6190 hc        1 C1P      0.102200
     58 H202        3.9260   -2.1780    2.8720 hc        1 C1P      0.102200
     59 H211        1.4300   -0.9260    4.2350 hc        1 C1P      0.016700
     60 H212        1.5290   -1.6030    2.5560 hc        1 C1P      0.016700
     61 H23         0.7630   -2.3460    5.9800 ha        1 C1P      0.127000
     62 H24         0.1940   -4.6200    6.8110 ha        1 C1P      0.156000
     63 H25         0.7030   -6.6300    5.4180 ha        1 C1P      0.161000
     64 H26         1.7840   -6.3550    3.1830 ha        1 C1P      0.156000
     65 H27         2.3560   -4.0830    2.3440 ha        1 C1P      0.127000
     66 H51         1.0650    0.6550   -1.6470 hc        1 C1P      0.088700
     67 H52         1.5200    1.9900   -0.4980 hc        1 C1P      0.088700
     68 H6          3.8820    1.2870   -0.5410 hc        1 C1P      0.073700
     69 H71         3.8000   -1.1650   -0.6360 hc        1 C1P      0.056867
     70 H72         2.8050   -1.1420   -2.1530 hc        1 C1P      0.056867
     71 H73         4.5330   -0.6030   -2.1860 hc        1 C1P      0.056867
     72 H81         4.3480    1.7020   -2.8920 hc        1 C1P      0.056867
     73 H82         2.9280    2.7040   -2.3780 hc        1 C1P      0.056867
     74 H83         2.6740    1.2100   -3.3820 hc        1 C1P      0.056867
     75 H38         5.8960   -0.5930    2.8390 hc        1 C1P      0.107200
     76 H39         5.1200    2.2620    3.6670 h1        1 C1P      0.129200
     77 H12        -0.5410    0.7030    0.4150 hn        1 C1P      0.464800
     78 H282        3.8340   -0.2430    1.2270 hn        1 C1P      0.496800
@<TRIPOS>BOND
     1    1    2 1   
     2    1   10 1   
     3    1   38 1   
     4    1   77 1   
     5    2    3 2   
     6    2    4 1   
     7    4    5 1   
     8    4    9 1   
     9    5    6 1   
    10    5   39 1   
    11    5   40 1   
    12    6    7 1   
    13    6   41 1   
    14    6   42 1   
    15    7    8 1   
    16    8    9 1   
    17    8   43 1   
    18    8   44 1   
    19    9   45 1   
    20    9   46 1   
    21   10   11 1   
    22   10   34 1   
    23   10   47 1   
    24   11   12 2   
    25   11   13 1   
    26   13   14 1   
    27   13   48 1   
    28   13   78 1   
    29   14   15 1   
    30   14   26 1   
    31   14   49 1   
    32   15   16 1   
    33   15   50 1   
    34   15   75 1   
    35   16   17 1   
    36   16   51 1   
    37   16   76 1   
    38   17   18 2   
    39   17   19 2   
    40   17   20 1   
    41   20   21 ar  
    42   20   25 ar  
    43   21   22 ar  
    44   21   52 1   
    45   22   23 ar  
    46   22   53 1   
    47   23   24 ar  
    48   23   54 1   
    49   24   25 ar  
    50   24   55 1   
    51   25   56 1   
    52   26   27 1   
    53   26   57 1   
    54   26   58 1   
    55   27   28 1   
    56   27   59 1   
    57   27   60 1   
    58   28   29 ar  
    59   28   33 ar  
    60   29   30 ar  
    61   29   61 1   
    62   30   31 ar  
    63   30   62 1   
    64   31   32 ar  
    65   31   63 1   
    66   32   33 ar  
    67   32   64 1   
    68   33   65 1   
    69   34   35 1   
    70   34   66 1   
    71   34   67 1   
    72   35   36 1   
    73   35   37 1   
    74   35   68 1   
    75   36   69 1   
    76   36   70 1   
    77   36   71 1   
    78   37   72 1   
    79   37   73 1   
    80   37   74 1   
@<TRIPOS>SUBSTRUCTURE
     1 C1P         1 TEMP              0 ****  ****    0 ROOT
