@<TRIPOS>MOLECULE
C1P
   78    80     1     0     0
SMALL
bcc


@<TRIPOS>ATOM
      1 N1         -0.0690   -0.2230    0.5280 n4        1 C1P     -0.677800
      2 C15        -0.6130   -1.2690   -0.5020 c         1 C1P      0.640100
      3 O16         0.2600   -2.0270   -0.9360 o         1 C1P     -0.495100
      4 N9         -1.9540   -1.2940   -0.7390 n         1 C1P     -0.390800
      5 C14        -2.3920   -2.0900   -1.8970 c3        1 C1P      0.032500
      6 C13        -3.8720   -2.4880   -1.8080 c3        1 C1P      0.116900
      7 O12        -4.6770   -1.3570   -1.5100 os        1 C1P     -0.368600
      8 C11        -4.3560   -0.8070   -0.2470 c3        1 C1P      0.116900
      9 C10        -2.8900   -0.3200   -0.2020 c3        1 C1P      0.032500
     10 C2          1.4150   -0.0210    0.3860 c3        1 C1P      0.058500
     11 C3          1.9760    0.5650    1.6920 c         1 C1P      0.529100
     12 O4          1.2960    1.1700    2.5150 o         1 C1P     -0.426100
     13 N28         3.4290    0.4200    1.9160 n4        1 C1P     -0.676800
     14 C19         3.8180   -0.0070    3.3210 c3        1 C1P      0.138500
     15 C18         5.3320    0.1390    3.5390 c3        1 C1P     -0.079400
     16 C17         5.8850    1.5360    3.4100 c3        1 C1P     -0.329600
     17 S33         6.6020    1.8670    1.8580 sy        1 C1P      1.403300
     18 O34         7.3430    0.7460    1.4790 o         1 C1P     -0.683300
     19 O35         5.4410    2.0870    1.0420 o         1 C1P     -0.683300
     20 C32         7.4670    3.2070    2.1360 ca        1 C1P     -0.466500
     21 C36         8.8470    3.1140    2.4090 ca        1 C1P     -0.002000
     22 C37         9.6170    4.2530    2.6100 ca        1 C1P     -0.142500
     23 C29         9.0250    5.5160    2.5390 ca        1 C1P     -0.014000
     24 C30         7.6590    5.6320    2.2620 ca        1 C1P     -0.142500
     25 C31         6.8940    4.4910    2.0630 ca        1 C1P     -0.002000
     26 C20         3.4260   -1.4580    3.6120 c3        1 C1P     -0.123400
     27 C21         1.9300   -1.6950    3.6140 c3        1 C1P     -0.015100
     28 C22         1.5960   -3.0510    4.1260 ca        1 C1P     -0.140300
     29 C23         0.9870   -3.2010    5.3760 ca        1 C1P     -0.123000
     30 C24         0.6730   -4.4740    5.8520 ca        1 C1P     -0.113000
     31 C25         0.9660   -5.6010    5.0840 ca        1 C1P     -0.096000
     32 C26         1.5730   -5.4550    3.8350 ca        1 C1P     -0.113000
     33 C27         1.8870   -4.1840    3.3570 ca        1 C1P     -0.123000
     34 C5          1.7420    0.9070   -0.7960 c3        1 C1P     -0.109400
     35 C6          3.1800    0.8110   -1.2950 c3        1 C1P     -0.085700
     36 C7          3.6080   -0.6150   -1.5680 c3        1 C1P     -0.103600
     37 C8          3.2870    1.6350   -2.5700 c3        1 C1P     -0.103600
     38 HN1        -0.2810   -0.5690    1.4720 hn        1 C1P      0.464800
     39 H141       -2.2290   -1.4710   -2.8270 h1        1 C1P      0.079200
     40 H142       -1.7600   -3.0220   -1.9590 h1        1 C1P      0.079200
     41 H131       -4.0280   -3.2950   -1.0450 h1        1 C1P      0.094200
     42 H132       -4.2240   -2.8330   -2.8190 h1        1 C1P      0.094200
     43 H111       -4.5390   -1.5560    0.5680 h1        1 C1P      0.094200
     44 H112       -5.0420    0.0760   -0.1320 h1        1 C1P      0.094200
     45 H101       -2.8110    0.6340   -0.8000 h1        1 C1P      0.079200
     46 H102       -2.6550   -0.1070    0.8780 h1        1 C1P      0.079200
     47 H2          1.8710   -1.0490    0.1930 hx        1 C1P      0.174700
     48 H28         3.8350   -0.2360    1.2340 hn        1 C1P      0.496800
     49 H19         3.2610    0.6910    4.0180 hx        1 C1P      0.121700
     50 H18         5.8920   -0.5630    2.8570 hc        1 C1P      0.107200
     51 H17         5.0980    2.2950    3.6590 h1        1 C1P      0.129200
     52 H36         9.3240    2.1160    2.4460 ha        1 C1P      0.154500
     53 H37        10.6960    4.1580    2.8190 ha        1 C1P      0.169500
     54 H29         9.6360    6.4230    2.6970 ha        1 C1P      0.170000
     55 H30         7.1930    6.6280    2.1970 ha        1 C1P      0.169500
     56 H31         5.8210    4.5870    1.8250 ha        1 C1P      0.154500
     57 H201        3.9300   -2.1590    2.8940 hc        1 C1P      0.102200
     58 H202        3.8260   -1.7060    4.6370 hc        1 C1P      0.102200
     59 H211        1.5320   -1.5990    2.5640 hc        1 C1P      0.016700
     60 H212        1.4230   -0.9080    4.2380 hc        1 C1P      0.016700
     61 H23         0.7570   -2.3180    5.9910 ha        1 C1P      0.127000
     62 H24         0.1970   -4.5880    6.8390 ha        1 C1P      0.156000
     63 H25         0.7210   -6.6060    5.4630 ha        1 C1P      0.161000
     64 H26         1.8090   -6.3440    3.2300 ha        1 C1P      0.156000
     65 H27         2.3720   -4.0760    2.3760 ha        1 C1P      0.127000
     66 H51         1.0730    0.6240   -1.6590 hc        1 C1P      0.088700
     67 H52         1.5160    1.9700   -0.5170 hc        1 C1P      0.088700
     68 H6          3.8820    1.2800   -0.5460 hc        1 C1P      0.073700
     69 H71         2.8240   -1.1670   -2.1440 hc        1 C1P      0.056867
     70 H72         3.8140   -1.1730   -0.6220 hc        1 C1P      0.056867
     71 H73         4.5500   -0.6190   -2.1740 hc        1 C1P      0.056867
     72 H81         4.3550    1.6800   -2.8980 hc        1 C1P      0.056867
     73 H82         2.6860    1.1750   -3.3910 hc        1 C1P      0.056867
     74 H83         2.9280    2.6770   -2.3970 hc        1 C1P      0.056867
     75 H38         5.5160   -0.2280    4.5900 hc        1 C1P      0.107200
     76 H39         6.6590    1.6670    4.2190 h1        1 C1P      0.129200
     77 H12        -0.5420    0.6780    0.3970 hn        1 C1P      0.464800
     78 H282        3.8610    1.3630    1.7360 hn        1 C1P      0.496800
@<TRIPOS>BOND
     1    1    2 1   
     2    1   10 1   
     3    1   38 1   
     4    1   77 1   
     5    2    3 2   
     6    2    4 1   
     7    4    5 1   
     8    4    9 1   
     9    5    6 1   
    10    5   39 1   
    11    5   40 1   
    12    6    7 1   
    13    6   41 1   
    14    6   42 1   
    15    7    8 1   
    16    8    9 1   
    17    8   43 1   
    18    8   44 1   
    19    9   45 1   
    20    9   46 1   
    21   10   11 1   
    22   10   34 1   
    23   10   47 1   
    24   11   12 2   
    25   11   13 1   
    26   13   14 1   
    27   13   48 1   
    28   13   78 1   
    29   14   15 1   
    30   14   26 1   
    31   14   49 1   
    32   15   16 1   
    33   15   50 1   
    34   15   75 1   
    35   16   17 1   
    36   16   51 1   
    37   16   76 1   
    38   17   18 2   
    39   17   19 2   
    40   17   20 1   
    41   20   21 ar  
    42   20   25 ar  
    43   21   22 ar  
    44   21   52 1   
    45   22   23 ar  
    46   22   53 1   
    47   23   24 ar  
    48   23   54 1   
    49   24   25 ar  
    50   24   55 1   
    51   25   56 1   
    52   26   27 1   
    53   26   57 1   
    54   26   58 1   
    55   27   28 1   
    56   27   59 1   
    57   27   60 1   
    58   28   29 ar  
    59   28   33 ar  
    60   29   30 ar  
    61   29   61 1   
    62   30   31 ar  
    63   30   62 1   
    64   31   32 ar  
    65   31   63 1   
    66   32   33 ar  
    67   32   64 1   
    68   33   65 1   
    69   34   35 1   
    70   34   66 1   
    71   34   67 1   
    72   35   36 1   
    73   35   37 1   
    74   35   68 1   
    75   36   69 1   
    76   36   70 1   
    77   36   71 1   
    78   37   72 1   
    79   37   73 1   
    80   37   74 1   
@<TRIPOS>SUBSTRUCTURE
     1 C1P         1 TEMP              0 ****  ****    0 ROOT
