@<TRIPOS>MOLECULE
C1P
   78    80     1     0     0
SMALL
bcc


@<TRIPOS>ATOM
      1 N1         -0.0690   -0.2250    0.5270 n4        1 C1P     -0.677800
      2 C15        -0.6140   -1.2700   -0.5030 c         1 C1P      0.640100
      3 O16         0.2590   -2.0280   -0.9380 o         1 C1P     -0.495100
      4 N9         -1.9550   -1.2940   -0.7410 n         1 C1P     -0.390800
      5 C14        -2.3930   -2.0890   -1.8990 c3        1 C1P      0.032500
      6 C13        -3.8720   -2.4860   -1.8110 c3        1 C1P      0.116900
      7 O12        -4.6770   -1.3550   -1.5120 os        1 C1P     -0.368600
      8 C11        -4.3560   -0.8060   -0.2490 c3        1 C1P      0.116900
      9 C10        -2.8900   -0.3200   -0.2030 c3        1 C1P      0.032500
     10 C2          1.4150   -0.0230    0.3860 c3        1 C1P      0.058500
     11 C3          1.9760    0.5610    1.6930 c         1 C1P      0.529100
     12 O4          1.2960    1.1650    2.5170 o         1 C1P     -0.426100
     13 N28         3.4290    0.4150    1.9170 n4        1 C1P     -0.676800
     14 C19         3.8170   -0.0150    3.3220 c3        1 C1P      0.138500
     15 C18         5.3320    0.1300    3.5390 c3        1 C1P     -0.079400
     16 C17         5.8850    1.5270    3.4120 c3        1 C1P     -0.329600
     17 S33         6.6030    1.8590    1.8610 sy        1 C1P      1.403300
     18 O34         7.3430    0.7380    1.4800 o         1 C1P     -0.683300
     19 O35         5.4420    2.0820    1.0460 o         1 C1P     -0.683300
     20 C32         7.4700    3.1980    2.1410 ca        1 C1P     -0.466500
     21 C36         8.8490    3.1030    2.4130 ca        1 C1P     -0.002000
     22 C37         9.6210    4.2400    2.6150 ca        1 C1P     -0.142500
     23 C29         9.0310    5.5050    2.5470 ca        1 C1P     -0.014000
     24 C30         7.6640    5.6220    2.2710 ca        1 C1P     -0.142500
     25 C31         6.8980    4.4830    2.0700 ca        1 C1P     -0.002000
     26 C20         3.4250   -1.4650    3.6110 c3        1 C1P     -0.123400
     27 C21         1.9280   -1.7010    3.6120 c3        1 C1P     -0.015100
     28 C22         1.5930   -3.0580    4.1220 ca        1 C1P     -0.140300
     29 C23         0.9820   -3.2080    5.3710 ca        1 C1P     -0.122500
     30 C24         0.6660   -4.4810    5.8460 ca        1 C1P     -0.113000
     31 C25         0.9600   -5.6080    5.0780 ca        1 C1P     -0.096000
     32 C26         1.5690   -5.4610    3.8300 ca        1 C1P     -0.113000
     33 C27         1.8850   -4.1910    3.3530 ca        1 C1P     -0.122500
     34 C5          1.7420    0.9060   -0.7950 c3        1 C1P     -0.109400
     35 C6          3.1810    0.8110   -1.2940 c3        1 C1P     -0.085700
     36 C7          3.6080   -0.6150   -1.5690 c3        1 C1P     -0.103600
     37 C8          3.2880    1.6360   -2.5680 c3        1 C1P     -0.103600
     38 HN1        -0.2820   -0.5720    1.4710 hn        1 C1P      0.464800
     39 H141       -2.2290   -1.4700   -2.8290 h1        1 C1P      0.079200
     40 H142       -1.7610   -3.0210   -1.9620 h1        1 C1P      0.079200
     41 H131       -4.2240   -2.8300   -2.8220 h1        1 C1P      0.094200
     42 H132       -4.0290   -3.2940   -1.0480 h1        1 C1P      0.094200
     43 H111       -5.0420    0.0770   -0.1340 h1        1 C1P      0.094200
     44 H112       -4.5400   -1.5560    0.5650 h1        1 C1P      0.094200
     45 H101       -2.8110    0.6350   -0.8000 h1        1 C1P      0.079200
     46 H102       -2.6550   -0.1080    0.8770 h1        1 C1P      0.079200
     47 H2          1.8710   -1.0510    0.1910 hx        1 C1P      0.174700
     48 H28         3.8620    1.3580    1.7380 hn        1 C1P      0.496800
     49 H19         3.2610    0.6830    4.0190 hx        1 C1P      0.121700
     50 H18         5.5150   -0.2380    4.5900 hc        1 C1P      0.107200
     51 H17         6.6590    1.6570    4.2220 h1        1 C1P      0.129200
     52 H36         9.3260    2.1050    2.4480 ha        1 C1P      0.154500
     53 H37        10.7000    4.1440    2.8230 ha        1 C1P      0.169500
     54 H29         9.6420    6.4100    2.7060 ha        1 C1P      0.170000
     55 H30         7.2000    6.6200    2.2080 ha        1 C1P      0.169500
     56 H31         5.8240    4.5800    1.8330 ha        1 C1P      0.154500
     57 H201        3.9280   -2.1650    2.8910 hc        1 C1P      0.102200
     58 H202        3.8240   -1.7150    4.6350 hc        1 C1P      0.102200
     59 H211        1.4210   -0.9150    4.2350 hc        1 C1P      0.016700
     60 H212        1.5310   -1.6040    2.5610 hc        1 C1P      0.016700
     61 H23         0.7510   -2.3250    5.9860 ha        1 C1P      0.127000
     62 H24         0.1890   -4.5950    6.8320 ha        1 C1P      0.156000
     63 H25         0.7150   -6.6130    5.4570 ha        1 C1P      0.161000
     64 H26         1.8060   -6.3510    3.2250 ha        1 C1P      0.156000
     65 H27         2.3720   -4.0820    2.3730 ha        1 C1P      0.127000
     66 H51         1.5160    1.9690   -0.5150 hc        1 C1P      0.088700
     67 H52         1.0730    0.6240   -1.6580 hc        1 C1P      0.088700
     68 H6          3.8820    1.2790   -0.5440 hc        1 C1P      0.073700
     69 H71         3.8140   -1.1740   -0.6230 hc        1 C1P      0.056867
     70 H72         2.8250   -1.1660   -2.1450 hc        1 C1P      0.056867
     71 H73         4.5510   -0.6180   -2.1730 hc        1 C1P      0.056867
     72 H81         2.6870    1.1780   -3.3890 hc        1 C1P      0.056867
     73 H82         2.9290    2.6790   -2.3930 hc        1 C1P      0.056867
     74 H83         4.3560    1.6820   -2.8950 hc        1 C1P      0.056867
     75 H38         5.8910   -0.5710    2.8570 hc        1 C1P      0.107200
     76 H39         5.0990    2.2860    3.6630 h1        1 C1P      0.129200
     77 H12        -0.5420    0.6770    0.3980 hn        1 C1P      0.464800
     78 H282        3.8350   -0.2400    1.2340 hn        1 C1P      0.496800
@<TRIPOS>BOND
     1    1    2 1   
     2    1   10 1   
     3    1   38 1   
     4    1   77 1   
     5    2    3 2   
     6    2    4 1   
     7    4    5 1   
     8    4    9 1   
     9    5    6 1   
    10    5   39 1   
    11    5   40 1   
    12    6    7 1   
    13    6   41 1   
    14    6   42 1   
    15    7    8 1   
    16    8    9 1   
    17    8   43 1   
    18    8   44 1   
    19    9   45 1   
    20    9   46 1   
    21   10   11 1   
    22   10   34 1   
    23   10   47 1   
    24   11   12 2   
    25   11   13 1   
    26   13   14 1   
    27   13   48 1   
    28   13   78 1   
    29   14   15 1   
    30   14   26 1   
    31   14   49 1   
    32   15   16 1   
    33   15   50 1   
    34   15   75 1   
    35   16   17 1   
    36   16   51 1   
    37   16   76 1   
    38   17   18 2   
    39   17   19 2   
    40   17   20 1   
    41   20   21 ar  
    42   20   25 ar  
    43   21   22 ar  
    44   21   52 1   
    45   22   23 ar  
    46   22   53 1   
    47   23   24 ar  
    48   23   54 1   
    49   24   25 ar  
    50   24   55 1   
    51   25   56 1   
    52   26   27 1   
    53   26   57 1   
    54   26   58 1   
    55   27   28 1   
    56   27   59 1   
    57   27   60 1   
    58   28   29 ar  
    59   28   33 ar  
    60   29   30 ar  
    61   29   61 1   
    62   30   31 ar  
    63   30   62 1   
    64   31   32 ar  
    65   31   63 1   
    66   32   33 ar  
    67   32   64 1   
    68   33   65 1   
    69   34   35 1   
    70   34   66 1   
    71   34   67 1   
    72   35   36 1   
    73   35   37 1   
    74   35   68 1   
    75   36   69 1   
    76   36   70 1   
    77   36   71 1   
    78   37   72 1   
    79   37   73 1   
    80   37   74 1   
@<TRIPOS>SUBSTRUCTURE
     1 C1P         1 TEMP              0 ****  ****    0 ROOT
