@<TRIPOS>MOLECULE
C1P
   76    73     1     0     0
SMALL
bcc


@<TRIPOS>ATOM
      1 N1         -2.3690    0.9680   -2.4540 n         1 C1P     -0.325000
      2 C15        -2.6820   -0.4720   -2.5620 c2        1 C1P      0.368000
      3 O16        -1.7650   -1.3080   -2.5490 o         1 C1P     -0.400000
      4 N9         -4.0630   -0.9100   -2.7060 n         1 C1P     -0.294000
      5 C14        -4.4320   -2.2710   -2.8270 c3        1 C1P     -0.072000
      6 C13        -5.5170   -2.6750   -1.7990 c3        1 C1P     -0.029500
      7 O12        -6.6270   -1.7920   -1.8160 os        1 C1P     -0.266000
      8 C11        -6.2320   -0.4070   -1.6980 c3        1 C1P     -0.029500
      9 C10        -5.1570   -0.0190   -2.7200 c3        1 C1P     -0.072000
     10 C2         -1.0250    1.3960   -2.4830 c3        1 C1P     -0.003000
     11 C3         -0.5590    1.7050   -1.0690 c2        1 C1P      0.274000
     12 O4         -1.3760    2.0960   -0.2160 o         1 C1P     -0.386000
     13 N28         0.8700    1.5700   -0.7160 n         1 C1P     -0.369000
     14 C19         1.2400    1.0530    0.5450 c3        1 C1P      0.029000
     15 C18         2.3550    1.9150    1.1460 c3        1 C1P     -0.152000
     16 C17         2.1810    1.9930    2.6680 c3        1 C1P     -0.848000
     17 S33         3.8020    1.6930    3.4860 s4        1 C1P      2.064800
     18 O34         4.6530    0.8120    2.6730 o         1 C1P     -0.541900
     19 O35         4.6000    2.8970    3.5270 o         1 C1P     -0.541900
     20 C32         3.5540    1.0280    5.1390 c1        1 C1P     -0.835000
     21 C36         3.8000    1.8450    6.2680 c2        1 C1P     -0.017000
     22 C37         3.6610    1.3280    7.5410 c1        1 C1P     -0.155000
     23 C29         3.2820    0.0130    7.7160 c1        1 C1P     -0.119750
     24 C30         3.0390   -0.7970    6.6070 c1        1 C1P     -0.119750
     25 C31         3.1810   -0.2700    5.3070 c1        1 C1P     -0.018000
     26 C20         1.7490   -0.3960    0.3820 c3        1 C1P     -0.168000
     27 C21         1.2030   -1.2600    1.5180 c3        1 C1P     -0.126000
     28 C22         1.5920   -2.7320    1.2730 c2        1 C1P     -0.073000
     29 C23         0.6460   -3.6230    0.8440 c2        1 C1P     -0.125000
     30 C24         0.9560   -4.9870    0.7610 c1        1 C1P     -0.128000
     31 C25         2.2260   -5.4340    1.1150 c1        1 C1P     -0.119750
     32 C26         3.1740   -4.5370    1.5450 c1        1 C1P     -0.119750
     33 C27         2.8680   -3.1840    1.6280 c1        1 C1P     -0.130000
     34 C5         -0.9030    2.6660   -3.3480 c3        1 C1P     -0.153000
     35 C6         -0.9830    2.2930   -4.8390 c3        1 C1P     -0.106000
     36 C7          0.3900    2.3020   -5.4330 c3        1 C1P     -0.211500
     37 C8         -1.8660    3.3300   -5.5790 c3        1 C1P     -0.211500
     38 HN1        -3.0420    1.5740   -2.2840 hn        1 C1P      0.222000
     39 H141       -3.6280   -2.8370   -2.6890 h1        1 C1P      0.096750
     40 H142       -4.7670   -2.4190   -3.6950 h1        1 C1P      0.096750
     41 H131       -5.8310   -3.5930   -2.0060 h1        1 C1P      0.098500
     42 H132       -5.1180   -2.6690   -0.8950 h1        1 C1P      0.098500
     43 H111       -6.9990    0.1450   -1.8290 h1        1 C1P      0.098500
     44 H112       -5.8860   -0.2560   -0.8130 h1        1 C1P      0.098500
     45 H101       -5.5610   -0.0230   -3.6240 h1        1 C1P      0.096750
     46 H102       -4.8210    0.9300   -2.5080 h1        1 C1P      0.096750
     47 H2         -0.4590    0.6770   -2.8680 h1        1 C1P      0.145000
     48 H28         1.5090    1.8280   -1.3040 hn        1 C1P      0.230000
     49 H19         0.4370    1.0630    1.1600 h1        1 C1P      0.128000
     50 H18         2.3100    2.8270    0.7620 hc        1 C1P      0.105000
     51 H17         1.5250    1.3000    2.9660 h1        1 C1P      0.152000
     52 H36         4.0690    2.7770    6.1460 ha        1 C1P      0.155000
     53 H37         3.8360    1.9100    8.3400 ha        1 C1P      0.144000
     54 H29         3.1860   -0.3430    8.6020 ha        1 C1P      0.136000
     55 H30         2.7810   -1.6940    6.7280 ha        1 C1P      0.136000
     56 H31         3.0100   -0.8350    4.5270 ha        1 C1P      0.156000
     57 H201        2.7150   -0.4020    0.4110 hc        1 C1P      0.091000
     58 H202        1.4370   -0.7680   -0.5060 hc        1 C1P      0.091000
     59 H211        0.1920   -1.1780    1.5490 hc        1 C1P      0.096000
     60 H212        1.5820   -0.9590    2.3730 hc        1 C1P      0.096000
     61 H23        -0.2190   -3.3160    0.6030 ha        1 C1P      0.135000
     62 H24         0.2890   -5.6180    0.4580 ha        1 C1P      0.131000
     63 H25         2.4470   -6.3980    1.0570 ha        1 C1P      0.136000
     64 H26         4.0580   -4.8490    1.7910 ha        1 C1P      0.136000
     65 H27         3.5660   -2.5300    1.9440 ha        1 C1P      0.127000
     66 H51        -0.0390    3.1060   -3.1640 hc        1 C1P      0.096500
     67 H52        -1.6350    3.2800   -3.1280 hc        1 C1P      0.096500
     68 H6         -1.3710    1.4120   -4.9340 hc        1 C1P      0.102000
     69 H71         0.3420    2.0100   -6.3870 hc        1 C1P      0.075000
     70 H72         0.9650    1.6940   -4.9350 hc        1 C1P      0.075000
     71 H73         0.7650    3.2260   -5.3880 hc        1 C1P      0.075000
     72 H81        -1.9090    3.1040   -6.5340 hc        1 C1P      0.075000
     73 H82        -1.4720    4.2350   -5.4710 hc        1 C1P      0.075000
     74 H83        -2.7930    3.3200   -5.1910 hc        1 C1P      0.075000
     75 H38         3.2270    1.5150    0.9370 hc        1 C1P      0.105000
     76 H39         1.8370    2.9230    2.9250 h1        1 C1P      0.152000
@<TRIPOS>BOND
     1    1    2 1   
     2    1   10 1   
     3    1   38 1   
     4    2    3 1   
     5    2    4 1   
     6    4    5 1   
     7    4    9 1   
     8    5    6 1   
     9    5   39 1   
    10    5   40 1   
    11    6    7 1   
    12    6   41 1   
    13    6   42 1   
    14    7    8 1   
    15    8    9 1   
    16    8   43 1   
    17    8   44 1   
    18    9   45 1   
    19    9   46 1   
    20   10   11 1   
    21   10   34 1   
    22   10   47 1   
    23   11   12 1   
    24   11   13 1   
    25   13   14 1   
    26   13   48 1   
    27   14   15 1   
    28   14   26 1   
    29   14   49 1   
    30   15   16 1   
    31   15   50 1   
    32   15   75 1   
    33   16   17 1   
    34   16   51 1   
    35   16   76 1   
    36   17   18 1   
    37   17   19 1   
    38   20   21 1   
    39   20   25 1   
    40   21   22 1   
    41   21   52 1   
    42   22   53 1   
    43   23   24 1   
    44   23   54 1   
    45   24   55 1   
    46   25   56 1   
    47   26   27 1   
    48   26   57 1   
    49   26   58 1   
    50   27   28 1   
    51   27   59 1   
    52   27   60 1   
    53   28   29 1   
    54   28   33 1   
    55   29   30 1   
    56   29   61 1   
    57   30   62 1   
    58   31   32 1   
    59   31   63 1   
    60   32   64 1   
    61   33   65 1   
    62   34   35 1   
    63   34   66 1   
    64   34   67 1   
    65   35   36 1   
    66   35   37 1   
    67   35   68 1   
    68   36   69 1   
    69   36   70 1   
    70   36   71 1   
    71   37   72 1   
    72   37   73 1   
    73   37   74 1   
@<TRIPOS>SUBSTRUCTURE
     1 C1P         1 TEMP              0 ****  ****    0 ROOT
