@<TRIPOS>MOLECULE
C1P
   76    78     1     0     0
SMALL
bcc


@<TRIPOS>ATOM
      1 N1         -2.0710   -2.1300   -0.4040 n         1 C1P     -0.537900
      2 C15        -3.2460   -2.6340    0.1780 c         1 C1P      0.735100
      3 O16        -3.4010   -2.5780    1.4230 o         1 C1P     -0.637100
      4 N9         -4.2360   -3.2440   -0.6500 n         1 C1P     -0.420800
      5 C14        -5.4590   -3.6550    0.0280 c3        1 C1P      0.031000
      6 C13        -6.5880   -2.6190   -0.0350 c3        1 C1P      0.095400
      7 O12        -6.8250   -2.1820   -1.3710 os        1 C1P     -0.411600
      8 C11        -5.6520   -1.6740   -1.9950 c3        1 C1P      0.095400
      9 C10        -4.5120   -2.7040   -1.9700 c3        1 C1P      0.031000
     10 C2         -0.9320   -1.8530    0.4470 c3        1 C1P      0.032700
     11 C3         -0.1590   -0.6630   -0.1830 c         1 C1P      0.658100
     12 O4          0.3670   -0.7770   -1.3100 o         1 C1P     -0.625100
     13 N28        -0.0920    0.4990    0.5440 n         1 C1P     -0.558900
     14 C19         0.5380    1.7000    0.0420 c3        1 C1P      0.105700
     15 C18         1.9890    1.8770    0.5270 c3        1 C1P     -0.069400
     16 C17         2.8800    0.7320    0.1070 c3        1 C1P     -0.320600
     17 S33         4.5350    1.1680    0.1180 sy        1 C1P      1.383300
     18 O34         4.7100    2.3410   -0.6330 o         1 C1P     -0.657800
     19 O35         4.9990    1.1790    1.4430 o         1 C1P     -0.657800
     20 C32         5.1730   -0.1460   -0.7020 ca        1 C1P     -0.385500
     21 C36         5.1410   -0.2030   -2.1010 ca        1 C1P     -0.015500
     22 C37         5.6920   -1.2820   -2.7870 ca        1 C1P     -0.155500
     23 C29         6.2900   -2.3230   -2.0760 ca        1 C1P     -0.064000
     24 C30         6.3380   -2.2780   -0.6820 ca        1 C1P     -0.155500
     25 C31         5.7830   -1.1960   -0.0040 ca        1 C1P     -0.015500
     26 C20        -0.2430    2.9700    0.4220 c3        1 C1P     -0.091400
     27 C21        -1.6140    3.0130   -0.2240 c3        1 C1P     -0.037100
     28 C22        -2.2900    4.3170    0.0200 ca        1 C1P     -0.083300
     29 C23        -1.8530    5.4710   -0.6430 ca        1 C1P     -0.127500
     30 C24        -2.4890    6.6910   -0.4250 ca        1 C1P     -0.127500
     31 C25        -3.5670    6.7710    0.4560 ca        1 C1P     -0.131000
     32 C26        -4.0080    5.6250    1.1180 ca        1 C1P     -0.127500
     33 C27        -3.3730    4.4030    0.9010 ca        1 C1P     -0.127500
     34 C5          0.0490   -3.0290    0.5930 c3        1 C1P     -0.105400
     35 C6          1.0230   -2.8140    1.7420 c3        1 C1P     -0.064700
     36 C7          0.3790   -3.1180    3.0790 c3        1 C1P     -0.094100
     37 C8          2.2490   -3.6850    1.5470 c3        1 C1P     -0.094100
     38 HN1        -1.8320   -2.4180   -1.3270 hn        1 C1P      0.314500
     39 H141       -5.7970   -4.5980   -0.4890 h1        1 C1P      0.073700
     40 H142       -5.2390   -3.8900    1.1070 h1        1 C1P      0.073700
     41 H131       -7.5590   -3.0830    0.2800 h1        1 C1P      0.059950
     42 H132       -6.3540   -1.7340    0.6140 h1        1 C1P      0.059950
     43 H111       -5.9650   -1.4690   -3.0520 h1        1 C1P      0.059950
     44 H112       -5.3410   -0.7200   -1.4940 h1        1 C1P      0.059950
     45 H101       -3.6040   -2.2380   -2.4360 h1        1 C1P      0.073700
     46 H102       -4.8140   -3.5840   -2.6090 h1        1 C1P      0.073700
     47 H2         -1.3250   -1.5860    1.4740 h1        1 C1P      0.101700
     48 H28        -0.5150    0.5450    1.4400 hn        1 C1P      0.316500
     49 H19         0.5630    1.6190   -1.0890 h1        1 C1P      0.082700
     50 H18         2.3760    2.8340    0.0800 hc        1 C1P      0.064200
     51 H17         2.6910   -0.1420    0.7860 h1        1 C1P      0.123200
     52 H36         4.6810    0.6290   -2.6640 ha        1 C1P      0.155000
     53 H37         5.6590   -1.3100   -3.8860 ha        1 C1P      0.142500
     54 H29         6.7270   -3.1780   -2.6150 ha        1 C1P      0.138000
     55 H30         6.8150   -3.0940   -0.1190 ha        1 C1P      0.142500
     56 H31         5.8330   -1.1510    1.0990 ha        1 C1P      0.155000
     57 H201       -0.3420    3.0460    1.5360 hc        1 C1P      0.055700
     58 H202        0.3540    3.8560    0.0780 hc        1 C1P      0.055700
     59 H211       -1.5080    2.8520   -1.3310 hc        1 C1P      0.052200
     60 H212       -2.2480    2.1750    0.1720 hc        1 C1P      0.052200
     61 H23        -1.0030    5.4090   -1.3400 ha        1 C1P      0.131500
     62 H24        -2.1390    7.5920   -0.9500 ha        1 C1P      0.131500
     63 H25        -4.0690    7.7340    0.6270 ha        1 C1P      0.132000
     64 H26        -4.8590    5.6840    1.8120 ha        1 C1P      0.131500
     65 H27        -3.7270    3.5020    1.4250 ha        1 C1P      0.131500
     66 H51        -0.5280   -3.9740    0.7730 hc        1 C1P      0.062700
     67 H52         0.6170   -3.1510   -0.3680 hc        1 C1P      0.062700
     68 H6          1.3520   -1.7360    1.7380 hc        1 C1P      0.042700
     69 H71         1.0940   -2.8990    3.9080 hc        1 C1P      0.038200
     70 H72        -0.5390   -2.4990    3.2290 hc        1 C1P      0.038200
     71 H73         0.0880   -4.1940    3.1380 hc        1 C1P      0.038200
     72 H81         2.7740   -3.4160    0.5990 hc        1 C1P      0.038200
     73 H82         2.9580   -3.5470    2.3990 hc        1 C1P      0.038200
     74 H83         1.9590   -4.7620    1.4990 hc        1 C1P      0.038200
     75 H38         2.0080    1.9870    1.6430 hc        1 C1P      0.064200
     76 H39         2.5480    0.3770   -0.9090 h1        1 C1P      0.123200
@<TRIPOS>BOND
     1    1    2 1   
     2    1   10 1   
     3    1   38 1   
     4    2    3 2   
     5    2    4 1   
     6    4    5 1   
     7    4    9 1   
     8    5    6 1   
     9    5   39 1   
    10    5   40 1   
    11    6    7 1   
    12    6   41 1   
    13    6   42 1   
    14    7    8 1   
    15    8    9 1   
    16    8   43 1   
    17    8   44 1   
    18    9   45 1   
    19    9   46 1   
    20   10   11 1   
    21   10   34 1   
    22   10   47 1   
    23   11   12 2   
    24   11   13 1   
    25   13   14 1   
    26   13   48 1   
    27   14   15 1   
    28   14   26 1   
    29   14   49 1   
    30   15   16 1   
    31   15   50 1   
    32   15   75 1   
    33   16   17 1   
    34   16   51 1   
    35   16   76 1   
    36   17   18 2   
    37   17   19 2   
    38   17   20 1   
    39   20   21 ar  
    40   20   25 ar  
    41   21   22 ar  
    42   21   52 1   
    43   22   23 ar  
    44   22   53 1   
    45   23   24 ar  
    46   23   54 1   
    47   24   25 ar  
    48   24   55 1   
    49   25   56 1   
    50   26   27 1   
    51   26   57 1   
    52   26   58 1   
    53   27   28 1   
    54   27   59 1   
    55   27   60 1   
    56   28   29 ar  
    57   28   33 ar  
    58   29   30 ar  
    59   29   61 1   
    60   30   31 ar  
    61   30   62 1   
    62   31   32 ar  
    63   31   63 1   
    64   32   33 ar  
    65   32   64 1   
    66   33   65 1   
    67   34   35 1   
    68   34   66 1   
    69   34   67 1   
    70   35   36 1   
    71   35   37 1   
    72   35   68 1   
    73   36   69 1   
    74   36   70 1   
    75   36   71 1   
    76   37   72 1   
    77   37   73 1   
    78   37   74 1   
@<TRIPOS>SUBSTRUCTURE
     1 C1P         1 TEMP              0 ****  ****    0 ROOT
