@<TRIPOS>MOLECULE
C1R
   28    28     1     0     0
SMALL
bcc


@<TRIPOS>ATOM
      1 C1         -0.0730    0.0700   -0.0340 c3        1 C1R      0.163800
      2 C2          1.4540    0.0910   -0.0770 c3        1 C1R     -0.074900
      3 C3          2.0390    0.0290    1.3250 c3        1 C1R     -0.064700
      4 C4          1.4560    1.1530    2.1700 c3        1 C1R     -0.074900
      5 C5         -0.0710    1.1100    2.1610 c3        1 C1R      0.163800
      6 N6         -0.6340    1.0940    0.8260 n3        1 C1R     -0.819200
      7 C7          3.5560    0.1260    1.3030 c3        1 C1R     -0.075400
      8 C8          4.2050   -1.1530    0.8150 c3        1 C1R     -0.076400
      9 C9          5.7130   -1.0360    0.8360 c3        1 C1R     -0.204400
     10 O12         7.4920   -2.3220   -0.1360 o         1 C1R     -0.527100
     11 C10         6.3740   -2.2990    0.3800 c         1 C1R      0.564900
     12 H11        -0.4010   -0.9670    0.2750 h1        1 C1R      0.026700
     13 H12        -0.4700    0.2550   -1.0730 h1        1 C1R      0.026700
     14 H21         1.8060    1.0230   -0.5910 hc        1 C1R      0.047950
     15 H22         1.8030   -0.7860   -0.6800 hc        1 C1R      0.047950
     16 H3          1.7460   -0.9550    1.7910 hc        1 C1R      0.045700
     17 H41         1.8080    1.0580    3.2290 hc        1 C1R      0.047950
     18 H42         1.8120    2.1390    1.7760 hc        1 C1R      0.047950
     19 H51        -0.3990    0.2150    2.7700 h1        1 C1R      0.026700
     20 H52        -0.4640    2.0320    2.6770 h1        1 C1R      0.026700
     21 HN6        -1.6300    0.9870    0.8770 hn        1 C1R      0.361800
     22 H71         3.8680    0.9810    0.6470 hc        1 C1R      0.044200
     23 H72         3.9240    0.3510    2.3400 hc        1 C1R      0.044200
     24 H81         3.8820   -2.0100    1.4630 hc        1 C1R      0.043700
     25 H82         3.8610   -1.3770   -0.2290 hc        1 C1R      0.043700
     26 H91         6.0440   -0.1780    0.1920 hc        1 C1R      0.074200
     27 H92         6.0670   -0.8200    1.8810 hc        1 C1R      0.074200
     28 H10         5.7920   -3.2340    0.5470 h4        1 C1R     -0.006800
@<TRIPOS>BOND
     1    1    2 1   
     2    1    6 1   
     3    1   12 1   
     4    1   13 1   
     5    2    3 1   
     6    2   14 1   
     7    2   15 1   
     8    3    4 1   
     9    3    7 1   
    10    3   16 1   
    11    4    5 1   
    12    4   17 1   
    13    4   18 1   
    14    5    6 1   
    15    5   19 1   
    16    5   20 1   
    17    6   21 1   
    18    7    8 1   
    19    7   22 1   
    20    7   23 1   
    21    8    9 1   
    22    8   24 1   
    23    8   25 1   
    24    9   11 1   
    25    9   26 1   
    26    9   27 1   
    27   10   11 2   
    28   11   28 1   
@<TRIPOS>SUBSTRUCTURE
     1 C1R         1 TEMP              0 ****  ****    0 ROOT
