@<TRIPOS>MOLECULE
C1R
   28    28     1     0     0
SMALL
bcc


@<TRIPOS>ATOM
      1 C1         -0.0850    0.0420   -0.0120 c3        1 C1R      0.163800
      2 C2          1.4420    0.0700   -0.0710 c3        1 C1R     -0.074900
      3 C3          2.0420    0.0320    1.3270 c3        1 C1R     -0.064700
      4 C4          1.4620    1.1660    2.1600 c3        1 C1R     -0.074900
      5 C5         -0.0650    1.1160    2.1670 c3        1 C1R      0.163800
      6 N6         -0.6420    1.0760    0.8380 n3        1 C1R     -0.819200
      7 C7          3.5580    0.1360    1.2880 c3        1 C1R     -0.075400
      8 C8          4.2080   -1.1470    0.8150 c3        1 C1R     -0.076400
      9 C9          5.7150   -1.0220    0.8170 c3        1 C1R     -0.204400
     10 O12         7.4870   -2.3170   -0.1580 o         1 C1R     -0.527100
     11 C10         6.3780   -2.2900    0.3760 c         1 C1R      0.564900
     12 H11        -0.4920    0.2090   -1.0490 h1        1 C1R      0.026700
     13 H12        -0.4040   -0.9920    0.3160 h1        1 C1R      0.026700
     14 H21         1.7840    0.9960   -0.6020 hc        1 C1R      0.047950
     15 H22         1.7900   -0.8150   -0.6640 hc        1 C1R      0.047950
     16 H3          1.7580   -0.9460    1.8100 hc        1 C1R      0.045700
     17 H41         1.8250    1.0890    3.2170 hc        1 C1R      0.047950
     18 H42         1.8080    2.1480    1.7470 hc        1 C1R      0.047950
     19 H51        -0.3830    0.2280    2.7920 h1        1 C1R      0.026700
     20 H52        -0.4580    2.0430    2.6720 h1        1 C1R      0.026700
     21 HN6        -1.6370    0.9650    0.9010 hn        1 C1R      0.361800
     22 H71         3.8590    0.9820    0.6150 hc        1 C1R      0.044200
     23 H72         3.9350    0.3800    2.3170 hc        1 C1R      0.044200
     24 H81         3.8970   -1.9960    1.4810 hc        1 C1R      0.044200
     25 H82         3.8530   -1.3920   -0.2220 hc        1 C1R      0.044200
     26 H91         6.0800   -0.7850    1.8540 hc        1 C1R      0.074200
     27 H92         6.0350   -0.1740    0.1540 hc        1 C1R      0.074200
     28 H10         5.8060   -3.2260    0.5730 h4        1 C1R     -0.006800
@<TRIPOS>BOND
     1    1    2 1   
     2    1    6 1   
     3    1   12 1   
     4    1   13 1   
     5    2    3 1   
     6    2   14 1   
     7    2   15 1   
     8    3    4 1   
     9    3    7 1   
    10    3   16 1   
    11    4    5 1   
    12    4   17 1   
    13    4   18 1   
    14    5    6 1   
    15    5   19 1   
    16    5   20 1   
    17    6   21 1   
    18    7    8 1   
    19    7   22 1   
    20    7   23 1   
    21    8    9 1   
    22    8   24 1   
    23    8   25 1   
    24    9   11 1   
    25    9   26 1   
    26    9   27 1   
    27   10   11 2   
    28   11   28 1   
@<TRIPOS>SUBSTRUCTURE
     1 C1R         1 TEMP              0 ****  ****    0 ROOT
