@<TRIPOS>MOLECULE
C1R
   28    28     1     0     0
SMALL
bcc


@<TRIPOS>ATOM
      1 C1         -0.0780    0.0600   -0.0250 c3        1 C1R      0.163800
      2 C2          1.4490    0.0840   -0.0740 c3        1 C1R     -0.074900
      3 C3          2.0400    0.0300    1.3260 c3        1 C1R     -0.064700
      4 C4          1.4590    1.1570    2.1670 c3        1 C1R     -0.074900
      5 C5         -0.0680    1.1120    2.1650 c3        1 C1R      0.163800
      6 N6         -0.6370    1.0870    0.8320 n7        1 C1R     -0.819200
      7 C7          3.5570    0.1290    1.2970 c3        1 C1R     -0.075400
      8 C8          4.2050   -1.1510    0.8140 c3        1 C1R     -0.076400
      9 C9          5.7140   -1.0300    0.8270 c3        1 C1R     -0.204400
     10 O12         7.4880   -2.3200   -0.1490 o         1 C1R     -0.527100
     11 C10         6.3750   -2.2960    0.3770 c         1 C1R      0.564900
     12 H11        -0.4790    0.2390   -1.0620 h1        1 C1R      0.026700
     13 H12        -0.4020   -0.9760    0.2910 h1        1 C1R      0.026700
     14 H21         1.7970   -0.7960   -0.6740 hc        1 C1R      0.047950
     15 H22         1.7970    1.0140   -0.5940 hc        1 C1R      0.047950
     16 H3          1.7510   -0.9520    1.7980 hc        1 C1R      0.045700
     17 H41         1.8110    2.1430    1.7660 hc        1 C1R      0.047950
     18 H42         1.8150    1.0690    3.2260 hc        1 C1R      0.047950
     19 H51        -0.4610    2.0350    2.6770 h1        1 C1R      0.026700
     20 H52        -0.3920    0.2190    2.7800 h1        1 C1R      0.026700
     21 HN6        -1.6330    0.9790    0.8890 hn        1 C1R      0.361800
     22 H71         3.8640    0.9810    0.6350 hc        1 C1R      0.044200
     23 H72         3.9290    0.3620    2.3300 hc        1 C1R      0.044200
     24 H81         3.8570   -1.3830   -0.2270 hc        1 C1R      0.044200
     25 H82         3.8880   -2.0050    1.4690 hc        1 C1R      0.044200
     26 H91         6.0400   -0.1770    0.1750 hc        1 C1R      0.074200
     27 H92         6.0720   -0.8060    1.8680 hc        1 C1R      0.074200
     28 H10         5.7980   -3.2310    0.5570 h4        1 C1R     -0.006800
@<TRIPOS>BOND
     1    1    2 1   
     2    1    6 1   
     3    1   12 1   
     4    1   13 1   
     5    2    3 1   
     6    2   14 1   
     7    2   15 1   
     8    3    4 1   
     9    3    7 1   
    10    3   16 1   
    11    4    5 1   
    12    4   17 1   
    13    4   18 1   
    14    5    6 1   
    15    5   19 1   
    16    5   20 1   
    17    6   21 1   
    18    7    8 1   
    19    7   22 1   
    20    7   23 1   
    21    8    9 1   
    22    8   24 1   
    23    8   25 1   
    24    9   11 1   
    25    9   26 1   
    26    9   27 1   
    27   10   11 2   
    28   11   28 1   
@<TRIPOS>SUBSTRUCTURE
     1 C1R         1 TEMP              0 ****  ****    0 ROOT
