@<TRIPOS>MOLECULE
C1R
   28    28     1     0     0
SMALL
bcc


@<TRIPOS>ATOM
      1 C1         -2.6100    0.0240   -1.4180 c3        1 C1R      0.163800
      2 C2         -1.0970    0.0380   -1.4230 c3        1 C1R     -0.074900
      3 C3         -0.5280    0.1120   -0.0530 c3        1 C1R     -0.064700
      4 C4         -1.1100    1.2270    0.7380 c3        1 C1R     -0.074900
      5 C5         -2.6230    1.2080    0.7340 c3        1 C1R      0.163800
      6 N6         -3.1820    1.1280   -0.6280 n3        1 C1R     -0.819200
      7 C7          1.0190    0.3210   -0.1580 c3        1 C1R     -0.075400
      8 C8          1.7300   -0.8450    0.4930 c3        1 C1R     -0.076400
      9 C9          3.2260   -0.6650    0.3520 c3        1 C1R     -0.204400
     10 O12         4.5580   -2.6230    0.3690 o         1 C1R     -0.527100
     11 C10         3.9380   -1.8140    1.0320 c         1 C1R      0.564900
     12 H11        -2.9170   -0.8260   -1.0430 h1        1 C1R      0.026700
     13 H12        -2.9290    0.0960   -2.3400 h1        1 C1R      0.026700
     14 H21        -0.7890    0.8120   -1.9360 hc        1 C1R      0.047950
     15 H22        -0.7740   -0.7780   -1.8560 hc        1 C1R      0.047950
     16 H3         -0.7040   -0.7290    0.4100 hc        1 C1R      0.045700
     17 H41        -0.8030    2.0760    0.3610 hc        1 C1R      0.047950
     18 H42        -0.7950    1.1580    1.6620 hc        1 C1R      0.047950
     19 H51        -2.9300    0.4350    1.2480 h1        1 C1R      0.026700
     20 H52        -2.9500    2.0240    1.1630 h1        1 C1R      0.026700
     21 HN6        -4.0900    1.0300   -0.5790 hn        1 C1R      0.361800
     22 H71         1.2680    1.1500    0.2970 hc        1 C1R      0.044200
     23 H72         1.2770    0.3760   -1.1000 hc        1 C1R      0.044200
     24 H81         1.4950   -0.8820    1.4420 hc        1 C1R      0.043700
     25 H82         1.4590   -1.6770    0.0570 hc        1 C1R      0.043700
     26 H91         3.4640   -0.6500   -0.5970 hc        1 C1R      0.074200
     27 H92         3.4940    0.1780    0.7690 hc        1 C1R      0.074200
     28 H10         3.9030   -1.9030    2.0050 h4        1 C1R     -0.006800
@<TRIPOS>BOND
     1    1    2 1   
     2    1    6 1   
     3    1   12 1   
     4    1   13 1   
     5    2    3 1   
     6    2   14 1   
     7    2   15 1   
     8    3    4 1   
     9    3    7 1   
    10    3   16 1   
    11    4    5 1   
    12    4   17 1   
    13    4   18 1   
    14    5    6 1   
    15    5   19 1   
    16    5   20 1   
    17    6   21 1   
    18    7    8 1   
    19    7   22 1   
    20    7   23 1   
    21    8    9 1   
    22    8   24 1   
    23    8   25 1   
    24    9   11 1   
    25    9   26 1   
    26    9   27 1   
    27   10   11 2   
    28   11   28 1   
@<TRIPOS>SUBSTRUCTURE
     1 C1R         1 TEMP              0 ****  ****    0 ROOT
