@<TRIPOS>MOLECULE
C1R
   28    28     1     0     0
SMALL
bcc


@<TRIPOS>ATOM
      1 C1          2.6450   -1.5230   -0.1630 c3        1 C1R      0.163800
      2 C2          1.2650   -1.0730    0.3140 c3        1 C1R     -0.074900
      3 C3          0.9290    0.3120   -0.2180 c3        1 C1R     -0.064700
      4 C4          2.0340    1.2860    0.1660 c3        1 C1R     -0.074900
      5 C5          3.3970    0.7830   -0.3050 c3        1 C1R      0.163800
      6 N6          3.6920   -0.5660    0.1360 n3        1 C1R     -0.819200
      7 C7         -0.4080    0.8050    0.3110 c3        1 C1R     -0.075400
      8 C8         -1.5780    0.1060   -0.3480 c3        1 C1R     -0.076400
      9 C9         -2.8920    0.6420    0.1750 c3        1 C1R     -0.204400
     10 O12        -5.1640   -0.1280    0.0580 o         1 C1R     -0.527100
     11 C10        -4.0630   -0.0200   -0.4830 c         1 C1R      0.564900
     12 H11         2.5770   -1.7430   -1.2700 h1        1 C1R      0.026700
     13 H12         2.9150   -2.4850    0.3570 h1        1 C1R      0.026700
     14 H21         1.2360   -1.0620    1.4350 hc        1 C1R      0.047950
     15 H22         0.5070   -1.8170   -0.0420 hc        1 C1R      0.047950
     16 H3          0.8770    0.2590   -1.3420 hc        1 C1R      0.045700
     17 H41         1.8430    2.2860   -0.3010 hc        1 C1R      0.047950
     18 H42         2.0420    1.4220    1.2790 hc        1 C1R      0.047950
     19 H51         3.4340    0.8760   -1.4320 h1        1 C1R      0.026700
     20 H52         4.1990    1.4530    0.1160 h1        1 C1R      0.026700
     21 HN6         4.5590   -0.8740   -0.2650 hn        1 C1R      0.361800
     22 H71        -0.4900    1.9100    0.1270 hc        1 C1R      0.044200
     23 H72        -0.4530    0.6500    1.4210 hc        1 C1R      0.044200
     24 H81        -1.5190   -0.9970   -0.1530 hc        1 C1R      0.043700
     25 H82        -1.5250    0.2500   -1.4600 hc        1 C1R      0.043700
     26 H91        -2.9640    1.7460   -0.0260 hc        1 C1R      0.074200
     27 H92        -2.9520    0.5040    1.2870 hc        1 C1R      0.074200
     28 H10        -3.8820   -0.4070   -1.5120 h4        1 C1R     -0.006800
@<TRIPOS>BOND
     1    1    2 1   
     2    1    6 1   
     3    1   12 1   
     4    1   13 1   
     5    2    3 1   
     6    2   14 1   
     7    2   15 1   
     8    3    4 1   
     9    3    7 1   
    10    3   16 1   
    11    4    5 1   
    12    4   17 1   
    13    4   18 1   
    14    5    6 1   
    15    5   19 1   
    16    5   20 1   
    17    6   21 1   
    18    7    8 1   
    19    7   22 1   
    20    7   23 1   
    21    8    9 1   
    22    8   24 1   
    23    8   25 1   
    24    9   11 1   
    25    9   26 1   
    26    9   27 1   
    27   10   11 2   
    28   11   28 1   
@<TRIPOS>SUBSTRUCTURE
     1 C1R         1 TEMP              0 ****  ****    0 ROOT
