@<TRIPOS>MOLECULE
C1S
   22    21     1     0     0
SMALL
bcc


@<TRIPOS>ATOM
      1 O           0.1010    0.1930   -0.3190 o         1 C1S     -0.749300
      2 C           1.3290   -0.0460   -0.2120 c         1 C1S      0.940600
      3 CA          1.9040    0.0700    1.3000 c3        1 C1S     -0.082500
      4 N           0.8310    0.5910    2.1960 nz        1 C1S     -0.843600
      5 CB          2.4190   -1.2920    1.6910 c3        1 C1S     -0.040300
      6 SG          3.3230   -1.3790    3.1980 ss        1 C1S     -0.136100
      7 SD          1.8340   -1.1780    4.6940 ss        1 C1S     -0.274100
      8 CE          1.2220   -2.8010    5.0950 c3        1 C1S      0.051900
      9 CZ          2.2440   -3.6660    5.7060 c2        1 C1S     -0.182200
     10 CH          2.2050   -4.0780    6.9730 c2        1 C1S     -0.184000
     11 OXT         2.1800   -0.3560   -1.0590 o         1 C1S     -0.749300
     12 H1          2.7430    0.8180    1.2800 hx        1 C1S      0.103700
     13 H2         -0.0590    0.5320    1.6520 hn        1 C1S      0.450133
     14 H3          1.0090    1.5650    2.4240 hn        1 C1S      0.450133
     15 H5          3.1740   -1.5830    0.8990 h1        1 C1S      0.123200
     16 H6          1.6030   -2.0560    1.6570 h1        1 C1S      0.123200
     17 H7          0.7970   -3.2880    4.1820 h1        1 C1S      0.084200
     18 H8          0.3810   -2.5750    5.8030 h1        1 C1S      0.084200
     19 H9          3.0670   -3.9630    5.0340 ha        1 C1S      0.140000
     20 H11         1.4030   -3.8000    7.6690 ha        1 C1S      0.119500
     21 H12         2.9830   -4.7280    7.3950 ha        1 C1S      0.119500
     22 HN3         0.7570    0.0400    3.0620 hn        1 C1S      0.450133
@<TRIPOS>BOND
     1    1    2 1   
     2    2    3 1   
     3    2   11 1   
     4    3    4 1   
     5    3    5 1   
     6    3   12 1   
     7    4   13 1   
     8    4   14 1   
     9    4   22 1   
    10    5    6 1   
    11    5   15 1   
    12    5   16 1   
    13    6    7 1   
    14    7    8 1   
    15    8    9 1   
    16    8   17 1   
    17    8   18 1   
    18    9   10 2   
    19    9   19 1   
    20   10   20 1   
    21   10   21 1   
@<TRIPOS>SUBSTRUCTURE
     1 C1S         1 TEMP              0 ****  ****    0 ROOT
