@<TRIPOS>MOLECULE
C1S
   21    20     1     0     0
SMALL
bcc


@<TRIPOS>ATOM
      1 O           0.6780    0.8340   -0.7150 o         1 C1S     -0.833800
      2 C           1.6130    0.1110   -0.2730 c         1 C1S      0.890600
      3 CA          1.9230    0.1840    1.2690 c3        1 C1S      0.011500
      4 N           0.9340    0.9180    2.0440 n3        1 C1S     -0.881800
      5 CB          2.1500   -1.2340    1.7550 c3        1 C1S      0.032700
      6 SG          3.1350   -1.4440    3.2140 ss        1 C1S     -0.224100
      7 SD          1.9550   -1.1550    4.9310 ss        1 C1S     -0.180100
      8 CE          1.2450   -2.7360    5.2870 c3        1 C1S      0.002900
      9 CZ          2.2360   -3.7260    5.7450 c2        1 C1S     -0.141200
     10 CH          2.1870   -4.3460    6.9220 c2        1 C1S     -0.243000
     11 OXT         2.3310   -0.6530   -0.9730 o         1 C1S     -0.833800
     12 H1          2.8940    0.7540    1.3620 h1        1 C1S      0.060700
     13 H2          0.7440    1.7720    1.5450 hn        1 C1S      0.333300
     14 H3          0.0750    0.3960    2.0460 hn        1 C1S      0.333300
     15 H5          1.1890   -1.7900    1.8510 h1        1 C1S      0.089700
     16 H6          2.7900   -1.7540    0.9830 h1        1 C1S      0.089700
     17 H7          0.7050   -3.1320    4.3900 h1        1 C1S      0.075200
     18 H8          0.4830   -2.5130    6.0790 h1        1 C1S      0.075200
     19 H9          3.0540   -3.9240    5.0280 ha        1 C1S      0.136000
     20 H11         1.3920   -4.1660    7.6570 ha        1 C1S      0.103500
     21 H12         2.9470   -5.0740    7.2310 ha        1 C1S      0.103500
@<TRIPOS>BOND
     1    1    2 1   
     2    2    3 1   
     3    2   11 1   
     4    3    4 1   
     5    3    5 1   
     6    3   12 1   
     7    4   13 1   
     8    4   14 1   
     9    5    6 1   
    10    5   15 1   
    11    5   16 1   
    12    6    7 1   
    13    7    8 1   
    14    8    9 1   
    15    8   17 1   
    16    8   18 1   
    17    9   10 2   
    18    9   19 1   
    19   10   20 1   
    20   10   21 1   
@<TRIPOS>SUBSTRUCTURE
     1 C1S         1 TEMP              0 ****  ****    0 ROOT
