@<TRIPOS>MOLECULE
C1S
   22    21     1     0     0
SMALL
bcc


@<TRIPOS>ATOM
      1 O           0.1720    0.3700   -0.2610 o         1 C1S     -0.749300
      2 C           1.3840    0.0490   -0.1760 c         1 C1S      0.940600
      3 CA          1.9830    0.0940    1.3300 c3        1 C1S     -0.082500
      4 N           0.9580    0.6640    2.2520 n4        1 C1S     -0.843600
      5 CB          2.4120   -1.3070    1.6850 c3        1 C1S     -0.040300
      6 SG          3.3270   -1.4860    3.1780 ss        1 C1S     -0.136100
      7 SD          1.8730   -1.2200    4.6980 ss        1 C1S     -0.274100
      8 CE          1.1610   -2.8080    5.0730 c3        1 C1S      0.051900
      9 CZ          2.1310   -3.7500    5.6540 c2        1 C1S     -0.182200
     10 CH          2.0800   -4.1850    6.9120 c2        1 C1S     -0.184000
     11 OXT         2.2010   -0.2980   -1.0410 o         1 C1S     -0.749300
     12 H1          2.8690    0.7850    1.3140 hx        1 C1S      0.103700
     13 H2          1.2020    1.6200    2.4970 hn        1 C1S      0.450133
     14 H3          0.8590    0.1000    3.1070 hn        1 C1S      0.450133
     15 H5          1.5480   -2.0150    1.6470 h1        1 C1S      0.123200
     16 H6          3.1370   -1.6290    0.8780 h1        1 C1S      0.123200
     17 H7          0.6960   -3.2470    4.1560 h1        1 C1S      0.084200
     18 H8          0.3450   -2.5430    5.7960 h1        1 C1S      0.084200
     19 H9          2.9260   -4.0860    4.9650 ha        1 C1S      0.140000
     20 H11         1.3050   -3.8700    7.6240 ha        1 C1S      0.119500
     21 H12         2.8190   -4.8930    7.3120 ha        1 C1S      0.119500
     22 HN3         0.0590    0.6750    1.7180 hn        1 C1S      0.450133
@<TRIPOS>BOND
     1    1    2 1   
     2    2    3 1   
     3    2   11 1   
     4    3    4 1   
     5    3    5 1   
     6    3   12 1   
     7    4   13 1   
     8    4   14 1   
     9    4   22 1   
    10    5    6 1   
    11    5   15 1   
    12    5   16 1   
    13    6    7 1   
    14    7    8 1   
    15    8    9 1   
    16    8   17 1   
    17    8   18 1   
    18    9   10 2   
    19    9   19 1   
    20   10   20 1   
    21   10   21 1   
@<TRIPOS>SUBSTRUCTURE
     1 C1S         1 TEMP              0 ****  ****    0 ROOT
