@<TRIPOS>MOLECULE
C1T
   30    30     1     0     0
SMALL
bcc


@<TRIPOS>ATOM
      1 C          -4.3480    1.1500    0.3490 c         1 C1T      0.896600
      2 N          -3.5390   -1.1420    1.1230 n3        1 C1T     -0.885800
      3 O          -5.5150    0.6960    0.4960 o         1 C1T     -0.826800
      4 C1          0.6960    0.3790   -0.6590 c3        1 C1T     -0.101600
      5 C2          1.7140    1.2180    0.1000 c3        1 C1T      0.068100
      6 C3          2.9720    0.5000    0.5780 c         1 C1T      0.557300
      7 C4          3.1080   -0.9460    0.3650 ce        1 C1T     -0.205400
      8 C5          2.3090   -1.5650   -0.5390 cf        1 C1T      0.065900
      9 C6          1.2570   -0.8400   -1.3090 c         1 C1T      0.570300
     10 C7          4.1490   -1.6640    1.1330 c3        1 C1T     -0.042900
     11 O8          2.4840   -2.8980   -0.8000 oh        1 C1T     -0.484100
     12 O9          2.0970    2.2820   -0.7660 oh        1 C1T     -0.591800
     13 CA         -3.1530    0.2250    0.8020 c3        1 C1T      0.013500
     14 CB         -2.0700    0.3160   -0.2590 c3        1 C1T      0.028700
     15 SG         -0.5400   -0.2130    0.4840 ss        1 C1T     -0.292200
     16 O10         3.8590    1.1770    1.1210 o         1 C1T     -0.551100
     17 O11         0.8790   -1.2880   -2.3980 o         1 C1T     -0.530100
     18 OXT        -4.0560    2.2870   -0.1070 o         1 C1T     -0.826800
     19 H          -4.3640   -1.0870    1.6980 hn        1 C1T      0.336300
     20 H2         -3.8150   -1.6060    0.2750 hn        1 C1T      0.336300
     21 H1          0.2160    1.0330   -1.4420 h1        1 C1T      0.135700
     22 H20         1.2060    1.6480    1.0170 h1        1 C1T      0.094700
     23 H7          3.7240   -2.0150    2.1070 hc        1 C1T      0.051700
     24 H7A         4.5120   -2.5570    0.5660 hc        1 C1T      0.051700
     25 HO8         1.8660   -3.1440   -1.5120 ho        1 C1T      0.443000
     26 HO9         2.7130    2.8360   -0.2680 ho        1 C1T      0.416000
     27 HA         -2.7600    0.6830    1.7570 h1        1 C1T      0.060700
     28 HB2        -2.2990   -0.3180   -1.1470 h1        1 C1T      0.080200
     29 HB3        -1.9950    1.3840   -0.5890 h1        1 C1T      0.080200
     30 H13         5.0120   -0.9860    1.3470 hc        1 C1T      0.051700
@<TRIPOS>BOND
     1    1    3 1   
     2    1   13 1   
     3    1   18 1   
     4    2   13 1   
     5    2   19 1   
     6    2   20 1   
     7    4    5 1   
     8    4    9 1   
     9    4   15 1   
    10    4   21 1   
    11    5    6 1   
    12    5   12 1   
    13    5   22 1   
    14    6    7 1   
    15    6   16 2   
    16    7    8 2   
    17    7   10 1   
    18    8    9 1   
    19    8   11 1   
    20    9   17 2   
    21   10   23 1   
    22   10   24 1   
    23   10   30 1   
    24   11   25 1   
    25   12   26 1   
    26   13   14 1   
    27   13   27 1   
    28   14   15 1   
    29   14   28 1   
    30   14   29 1   
@<TRIPOS>SUBSTRUCTURE
     1 C1T         1 TEMP              0 ****  ****    0 ROOT
