@<TRIPOS>MOLECULE
C1V
   38    41     1     0     0
SMALL
bcc


@<TRIPOS>ATOM
      1 OAD         0.0780    0.1090   -0.1990 oh        1 C1V     -0.462100
      2 CAT         1.4370    0.0690   -0.1600 cc        1 C1V      0.323900
      3 CAZ         2.0390   -0.0040    1.1390 cc        1 C1V     -0.198800
      4 CAU         2.2320    0.0990   -1.2950 cd        1 C1V     -0.230900
      5 CAE         1.6790    0.1670   -2.5930 ch        1 C1V      0.211500
      6 NAA         1.2360    0.2230   -3.6680 n1        1 C1V     -0.361800
      7 CAX         3.6930    0.0610   -1.2020 c         1 C1V      0.733700
      8 OAB         4.4870    0.0910   -2.1580 o         1 C1V     -0.611500
      9 NAO         4.2500   -0.0160    0.0960 n         1 C1V     -0.415100
     10 CAY         3.4560   -0.0540    1.2070 cd        1 C1V      0.103500
     11 SAP         3.9810   -0.1750    2.8120 ss        1 C1V      0.023200
     12 CAN         2.4230   -0.1710    3.4240 cd        1 C1V     -0.187100
     13 CAW         1.4510   -0.0690    2.4530 cc        1 C1V      0.040000
     14 CAS         0.0320   -0.0390    2.7680 ca        1 C1V     -0.035000
     15 CAL        -0.5000   -0.9960    3.6460 ca        1 C1V     -0.103500
     16 CAJ        -1.8460   -0.9630    3.9930 ca        1 C1V     -0.117000
     17 CAK        -0.8090    0.9570    2.2570 ca        1 C1V     -0.103500
     18 CAI        -2.1540    0.9960    2.6130 ca        1 C1V     -0.117000
     19 CAR        -2.6900    0.0350    3.4810 cp        1 C1V     -0.013000
     20 CAV        -4.1060    0.0470    3.8400 cp        1 C1V     -0.065000
     21 CAM        -4.8160   -1.1610    3.9100 ca        1 C1V     -0.088000
     22 CAG        -6.1640   -1.1900    4.2560 ca        1 C1V     -0.164000
     23 CAF        -6.8380   -0.0040    4.5440 ca        1 C1V     -0.087000
     24 CAH        -6.1650    1.2120    4.4810 ca        1 C1V     -0.214000
     25 CAQ        -4.8070    1.2390    4.1260 ca        1 C1V      0.137100
     26 OAC        -4.1150    2.4270    4.0410 oh        1 C1V     -0.495100
     27 HAD        -0.2180    0.1140   -1.1260 ho        1 C1V      0.445000
     28 HAO         5.2420   -0.0470    0.1840 hn        1 C1V      0.343500
     29 HAN         2.2300   -0.2330    4.4960 h4        1 C1V      0.187000
     30 HAL         0.1540   -1.7790    4.0580 ha        1 C1V      0.136500
     31 HAK        -0.4040    1.7070    1.5600 ha        1 C1V      0.136500
     32 HAJ        -2.2490   -1.7190    4.6830 ha        1 C1V      0.142000
     33 HAI        -2.8030    1.7940    2.2200 ha        1 C1V      0.142000
     34 HAM        -4.2910   -2.1020    3.6790 ha        1 C1V      0.139000
     35 HAG        -6.6970   -2.1510    4.3010 ha        1 C1V      0.136000
     36 HAF        -7.9030   -0.0250    4.8190 ha        1 C1V      0.135000
     37 HAH        -6.6900    2.1510    4.7070 ha        1 C1V      0.135000
     38 HAC        -4.6990    3.1340    4.3530 ho        1 C1V      0.420000
@<TRIPOS>BOND
     1    1    2 1   
     2    1   27 1   
     3    2    3 1   
     4    2    4 2   
     5    3   10 2   
     6    3   13 1   
     7    4    5 1   
     8    4    7 1   
     9    5    6 3   
    10    7    8 2   
    11    7    9 1   
    12    9   10 1   
    13    9   28 1   
    14   10   11 1   
    15   11   12 1   
    16   12   13 2   
    17   12   29 1   
    18   13   14 1   
    19   14   15 ar  
    20   14   17 ar  
    21   15   16 ar  
    22   15   30 1   
    23   16   19 ar  
    24   16   32 1   
    25   17   18 ar  
    26   17   31 1   
    27   18   19 ar  
    28   18   33 1   
    29   19   20 1   
    30   20   21 ar  
    31   20   25 ar  
    32   21   22 ar  
    33   21   34 1   
    34   22   23 ar  
    35   22   35 1   
    36   23   24 ar  
    37   23   36 1   
    38   24   25 ar  
    39   24   37 1   
    40   25   26 1   
    41   26   38 1   
@<TRIPOS>SUBSTRUCTURE
     1 C1V         1 TEMP              0 ****  ****    0 ROOT
