@<TRIPOS>MOLECULE
C1V
   38    34     1     0     0
SMALL
bcc


@<TRIPOS>ATOM
      1 OAD        -0.2410    0.3420   -4.2480 oh        1 C1V     -0.216000
      2 CAT         1.1520    0.5330   -4.2090 c2        1 C1V      0.268000
      3 CAZ         1.8330    0.7770   -2.9100 c2        1 C1V     -0.187000
      4 CAU         1.9140    0.5990   -5.4520 c1        1 C1V     -0.246000
      5 CAE         1.2160    0.3960   -6.7800 c1        1 C1V     -0.081000
      6 NAA         0.6910    0.2440   -7.7800 n1        1 C1V     -0.037000
      7 CAX         3.3740    0.9120   -5.4150 c2        1 C1V      0.372000
      8 OAB         4.0090    0.9670   -6.4490 o         1 C1V     -0.336000
      9 NAO         4.0340    1.1500   -4.1430 n         1 C1V     -0.269000
     10 CAY         3.2620    1.0830   -2.8800 c2        1 C1V     -0.159000
     11 SAP         3.6760    1.2860   -1.3900 ss        1 C1V      0.563000
     12 CAN         2.4000    1.0820   -0.5150 c1        1 C1V     -0.458000
     13 CAW         1.2880    0.7770   -1.4080 c1        1 C1V      0.041000
     14 CAS         0.4220    0.3630   -0.2380 c1        1 C1V     -0.035000
     15 CAL        -0.3880    1.2970    0.3880 c2        1 C1V     -0.115000
     16 CAJ        -1.1220    0.9380    1.5080 c1        1 C1V     -0.128000
     17 CAK         0.4990   -0.9300    0.2560 c1        1 C1V     -0.093000
     18 CAI        -0.2340   -1.2890    1.3760 c1        1 C1V     -0.106000
     19 CAR        -1.0450   -0.3550    2.0020 c1        1 C1V     -0.014000
     20 CAV        -1.7520   -0.7130    3.2910 c2        1 C1V     -0.065000
     21 CAM        -1.1540   -0.4360    4.5100 c2        1 C1V     -0.089000
     22 CAG        -1.7980   -0.7700    5.6910 c1        1 C1V     -0.165000
     23 CAF        -3.0410   -1.3830    5.6530 c1        1 C1V     -0.150500
     24 CAH        -3.6400   -1.6600    4.4340 c1        1 C1V     -0.150500
     25 CAQ        -2.9950   -1.3250    3.2530 c1        1 C1V      0.093000
     26 OAC        -3.6020   -1.6100    2.0160 oh        1 C1V     -0.249000
     27 HAD        -0.6360    1.0930   -4.5160 ho        1 C1V      0.244000
     28 HAO         4.9260    1.3410   -4.1220 hn        1 C1V      0.257000
     29 HAN         2.3440    1.1950    0.4530 DU        1 C1V      0.186000
     30 HAL        -0.4420    2.2070    0.0400 ha        1 C1V      0.134000
     31 HAK         1.0700   -1.5880   -0.1850 ha        1 C1V      0.140000
     32 HAJ        -1.6920    1.5960    1.9490 ha        1 C1V      0.135000
     33 HAI        -0.1800   -2.1990    1.7240 ha        1 C1V      0.149000
     34 HAM        -0.2780   -0.0040    4.5370 ha        1 C1V      0.138000
     35 HAG        -1.3760   -0.5750    6.5500 ha        1 C1V      0.136000
     36 HAF        -3.4950   -1.6180    6.4840 ha        1 C1V      0.135000
     37 HAH        -4.5150   -2.0910    4.4070 ha        1 C1V      0.135000
     38 HAC        -4.4850   -1.6300    2.1160 ho        1 C1V      0.219000
@<TRIPOS>BOND
     1    1    2 1   
     2    1   27 1   
     3    2    3 1   
     4    2    4 1   
     5    3   10 1   
     6    3   13 1   
     7    4    7 1   
     8    5    6 1   
     9    7    8 1   
    10    7    9 1   
    11    9   10 1   
    12    9   28 1   
    13   10   11 1   
    14   11   12 1   
    15   12   13 1   
    16   14   15 1   
    17   14   17 1   
    18   15   16 1   
    19   15   30 1   
    20   16   32 1   
    21   17   31 1   
    22   18   19 1   
    23   18   33 1   
    24   19   20 1   
    25   20   21 1   
    26   20   25 1   
    27   21   22 1   
    28   21   34 1   
    29   22   35 1   
    30   23   24 1   
    31   23   36 1   
    32   24   37 1   
    33   25   26 1   
    34   26   38 1   
@<TRIPOS>SUBSTRUCTURE
     1 C1V         1 TEMP              0 ****  ****    0 ROOT
