@<TRIPOS>MOLECULE
C1V
   38    41     1     0     0
SMALL
bcc


@<TRIPOS>ATOM
      1 OAD        -1.2590    1.6980    0.1400 oh        1 C1V     -0.465100
      2 CAT        -2.4390    1.0240    0.0750 cc        1 C1V      0.321900
      3 CAZ        -2.3570   -0.4040   -0.0070 cc        1 C1V     -0.197800
      4 CAU        -3.6750    1.6510    0.0790 cd        1 C1V     -0.226900
      5 CAE        -3.8000    3.0560    0.1630 ch        1 C1V      0.209500
      6 NAA        -3.9170    4.2120    0.2320 n1        1 C1V     -0.357800
      7 CAX        -4.9190    0.8820   -0.0020 c         1 C1V      0.733700
      8 OAB        -6.0690    1.3530   -0.0120 o         1 C1V     -0.608500
      9 NAO        -4.7980   -0.5250   -0.0770 n         1 C1V     -0.415100
     10 CAY        -3.5750   -1.1320   -0.0710 cd        1 C1V      0.103500
     11 SAP        -3.2810   -2.7990   -0.1250 ss        1 C1V      0.030200
     12 CAN        -1.6190   -2.6070   -0.0600 cd        1 C1V     -0.187100
     13 CAW        -1.2210   -1.2890   -0.0060 cc        1 C1V      0.034000
     14 CAS         0.1790   -0.8990    0.0480 ca        1 C1V     -0.031000
     15 CAL         1.0330   -1.5190    0.9730 ca        1 C1V     -0.098500
     16 CAJ         2.3840   -1.1920    1.0150 ca        1 C1V     -0.132000
     17 CAK         0.7060    0.0510   -0.8360 ca        1 C1V     -0.098500
     18 CAI         2.0610    0.3710   -0.8000 ca        1 C1V     -0.132000
     19 CAR         2.9150   -0.2480    0.1230 cp        1 C1V     -0.030000
     20 CAV         4.3330    0.1000    0.1840 cp        1 C1V     -0.127000
     21 CAM         4.8980    0.4750    1.4130 ca        1 C1V     -0.081000
     22 CAG         6.2390    0.8310    1.5040 ca        1 C1V     -0.166000
     23 CAF         7.0470    0.8140    0.3650 ca        1 C1V     -0.092000
     24 CAH         6.5210    0.4350   -0.8630 ca        1 C1V     -0.160000
     25 CAQ         5.1630    0.0760   -0.9530 ca        1 C1V      0.141100
     26 OAC         4.7330   -0.2870   -2.2070 oh        1 C1V     -0.501100
     27 HAD        -1.4360    2.6500    0.2390 ho        1 C1V      0.446000
     28 HAO        -5.6310   -1.0700   -0.1290 hn        1 C1V      0.344500
     29 HAN        -0.9450   -3.4640   -0.0720 h4        1 C1V      0.186000
     30 HAL         0.6260   -2.2650    1.6730 ha        1 C1V      0.140500
     31 HAK         0.0400    0.5590   -1.5510 ha        1 C1V      0.140500
     32 HAJ         3.0450   -1.6760    1.7500 ha        1 C1V      0.142500
     33 HAI         2.4630    1.1280   -1.4910 ha        1 C1V      0.142500
     34 HAM         4.2600    0.4920    2.3100 ha        1 C1V      0.137000
     35 HAG         6.6630    1.1290    2.4740 ha        1 C1V      0.136000
     36 HAF         8.1070    1.1000    0.4390 ha        1 C1V      0.136000
     37 HAH         7.1420    0.4090   -1.7700 ha        1 C1V      0.152000
     38 HAC         3.8310   -0.6340   -2.1340 ho        1 C1V      0.427000
@<TRIPOS>BOND
     1    1    2 1   
     2    1   27 1   
     3    2    3 1   
     4    2    4 2   
     5    3   10 2   
     6    3   13 1   
     7    4    5 1   
     8    4    7 1   
     9    5    6 3   
    10    7    8 2   
    11    7    9 1   
    12    9   10 1   
    13    9   28 1   
    14   10   11 1   
    15   11   12 1   
    16   12   13 2   
    17   12   29 1   
    18   13   14 1   
    19   14   15 ar  
    20   14   17 ar  
    21   15   16 ar  
    22   15   30 1   
    23   16   19 ar  
    24   16   32 1   
    25   17   18 ar  
    26   17   31 1   
    27   18   19 ar  
    28   18   33 1   
    29   19   20 1   
    30   20   21 ar  
    31   20   25 ar  
    32   21   22 ar  
    33   21   34 1   
    34   22   23 ar  
    35   22   35 1   
    36   23   24 ar  
    37   23   36 1   
    38   24   25 ar  
    39   24   37 1   
    40   25   26 1   
    41   26   38 1   
@<TRIPOS>SUBSTRUCTURE
     1 C1V         1 TEMP              0 ****  ****    0 ROOT
