@<TRIPOS>MOLECULE
C1V
   38    41     1     0     0
SMALL
bcc


@<TRIPOS>ATOM
      1 OAD         0.0660    0.0340   -0.1740 oh        1 C1V     -0.462100
      2 CAT         1.4260    0.0210   -0.1450 cc        1 C1V      0.323900
      3 CAZ         2.0390   -0.0040    1.1500 cc        1 C1V     -0.198800
      4 CAU         2.2120    0.0330   -1.2870 cd        1 C1V     -0.230900
      5 CAE         1.6470    0.0530   -2.5820 ch        1 C1V      0.211500
      6 NAA         1.1960    0.0700   -3.6550 n1        1 C1V     -0.361800
      7 CAX         3.6740    0.0250   -1.2040 c         1 C1V      0.733700
      8 OAB         4.4590    0.0420   -2.1670 o         1 C1V     -0.611500
      9 NAO         4.2420   -0.0040    0.0910 ns        1 C1V     -0.415100
     10 CAY         3.4570   -0.0250    1.2080 cd        1 C1V      0.103500
     11 SAP         3.9960   -0.0900    2.8120 ss        1 C1V      0.023200
     12 CAN         2.4430   -0.0960    3.4370 cd        1 C1V     -0.187100
     13 CAW         1.4620   -0.0410    2.4710 cc        1 C1V      0.040000
     14 CAS         0.0460   -0.0280    2.7960 ca        1 C1V     -0.035000
     15 CAL        -0.4610   -0.9690    3.7060 ca        1 C1V     -0.103500
     16 CAJ        -1.8050   -0.9510    4.0630 ca        1 C1V     -0.117000
     17 CAK        -0.8180    0.9360    2.2630 ca        1 C1V     -0.103500
     18 CAI        -2.1610    0.9600    2.6290 ca        1 C1V     -0.117000
     19 CAR        -2.6720    0.0150    3.5280 cp        1 C1V     -0.013000
     20 CAV        -4.0850    0.0110    3.8990 cp        1 C1V     -0.065000
     21 CAM        -4.7710   -1.2080    4.0100 ca        1 C1V     -0.088000
     22 CAG        -6.1160   -1.2520    4.3670 ca        1 C1V     -0.164000
     23 CAF        -6.8110   -0.0700    4.6250 ca        1 C1V     -0.087000
     24 CAH        -6.1610    1.1550    4.5210 ca        1 C1V     -0.214000
     25 CAQ        -4.8060    1.1980    4.1550 ca        1 C1V      0.137100
     26 OAC        -4.1390    2.3950    4.0300 oh        1 C1V     -0.495100
     27 HAD        -0.2370    0.0060   -1.0980 ho        1 C1V      0.445000
     28 HAO         5.2350   -0.0150    0.1720 hn        1 C1V      0.343500
     29 HAN         2.2590   -0.1310    4.5110 h4        1 C1V      0.187000
     30 HAL         0.2110   -1.7270    4.1360 ha        1 C1V      0.136500
     31 HAK        -0.4330    1.6730    1.5410 ha        1 C1V      0.136500
     32 HAJ        -2.1890   -1.6940    4.7780 ha        1 C1V      0.142000
     33 HAI        -2.8280    1.7340    2.2170 ha        1 C1V      0.142000
     34 HAM        -4.2310   -2.1450    3.8020 ha        1 C1V      0.139000
     35 HAG        -6.6310   -2.2200    4.4440 ha        1 C1V      0.136000
     36 HAF        -7.8730   -0.1040    4.9100 ha        1 C1V      0.135000
     37 HAH        -6.7020    2.0910    4.7240 ha        1 C1V      0.135000
     38 HAC        -4.7340    3.1000    4.3260 ho        1 C1V      0.420000
@<TRIPOS>BOND
     1    1    2 1   
     2    1   27 1   
     3    2    3 1   
     4    2    4 2   
     5    3   10 2   
     6    3   13 1   
     7    4    5 1   
     8    4    7 1   
     9    5    6 3   
    10    7    8 2   
    11    7    9 1   
    12    9   10 1   
    13    9   28 1   
    14   10   11 1   
    15   11   12 1   
    16   12   13 2   
    17   12   29 1   
    18   13   14 1   
    19   14   15 ar  
    20   14   17 ar  
    21   15   16 ar  
    22   15   30 1   
    23   16   19 ar  
    24   16   32 1   
    25   17   18 ar  
    26   17   31 1   
    27   18   19 ar  
    28   18   33 1   
    29   19   20 1   
    30   20   21 ar  
    31   20   25 ar  
    32   21   22 ar  
    33   21   34 1   
    34   22   23 ar  
    35   22   35 1   
    36   23   24 ar  
    37   23   36 1   
    38   24   25 ar  
    39   24   37 1   
    40   25   26 1   
    41   26   38 1   
@<TRIPOS>SUBSTRUCTURE
     1 C1V         1 TEMP              0 ****  ****    0 ROOT
