@<TRIPOS>MOLECULE
C1X
   48    48     1     0     0
SMALL
bcc


@<TRIPOS>ATOM
      1 O4         -8.3530   -0.8030   -0.7780 o         1 C1X     -0.868300
      2 C11        -7.9740   -1.0340   -1.9650 c         1 C1X      0.905600
      3 O3         -8.7910   -1.1900   -2.9230 o         1 C1X     -0.868300
      4 C10        -6.4770   -1.1950   -2.2590 c3        1 C1X     -0.185400
      5 C9         -5.6310   -0.0590   -1.7240 c3        1 C1X     -0.062400
      6 C8         -4.1680   -0.4700   -1.5580 c3        1 C1X     -0.059700
      7 C7         -3.9970   -1.1990   -0.2420 c3        1 C1X      0.027700
      8 C5         -1.3280   -0.5260   -0.4830 c3        1 C1X     -0.026600
      9 C3         -3.1980    0.7140   -1.6840 c3        1 C1X     -0.140000
     10 C2         -3.3800    1.7670   -0.6070 c3        1 C1X     -0.186400
     11 C1         -2.6920    3.1050   -0.9230 c         1 C1X      0.909600
     12 O1         -2.3920    3.8470    0.0610 o         1 C1X     -0.861300
     13 O2         -2.4800    3.4340   -2.1260 o         1 C1X     -0.861300
     14 C4         -1.7690    0.1940   -1.7320 c2        1 C1X      0.445300
     15 NZ         -0.9050    0.3180   -2.6820 n2        1 C1X     -0.610900
     16 CE         -1.1630    1.0610   -3.8830 c3        1 C1X      0.104800
     17 CD         -0.2210    0.7000   -5.0340 c3        1 C1X     -0.060400
     18 CG          1.2260    1.0800   -4.7980 c3        1 C1X     -0.076400
     19 CB          2.0400    0.9210   -6.0680 c3        1 C1X     -0.091400
     20 CA          3.5520    1.0850   -5.8640 c3        1 C1X      0.037500
     21 N           3.9780    2.3780   -5.3540 n3        1 C1X     -0.905800
     22 C           4.2430    0.7150   -7.2170 c         1 C1X      0.906600
     23 O           4.5410    1.6450   -8.0250 o         1 C1X     -0.859300
     24 S6         -2.3740   -1.8900   -0.0460 ss        1 C1X     -0.413200
     25 OXT         4.4740   -0.5060   -7.4440 o         1 C1X     -0.859300
     26 H101       -6.3300   -1.2920   -3.3640 hc        1 C1X      0.017200
     27 H102       -6.1570   -2.1630   -1.7900 hc        1 C1X      0.017200
     28 H9C1       -6.0510    0.2750   -0.7390 hc        1 C1X      0.050700
     29 H9C2       -5.6920    0.8140   -2.4250 hc        1 C1X      0.050700
     30 H8         -3.9160   -1.1870   -2.3920 hc        1 C1X      0.044700
     31 H7C1       -4.2140   -0.5060    0.6070 h1        1 C1X      0.068200
     32 H7C2       -4.7000   -2.0650   -0.1820 h1        1 C1X      0.068200
     33 H5C1       -0.3060   -0.9710   -0.5850 h1        1 C1X      0.076700
     34 H5C2       -1.3070    0.2170    0.3520 h1        1 C1X      0.076700
     35 HA         -3.4310    1.2360   -2.6610 hc        1 C1X      0.087700
     36 H2C1       -4.4770    1.9810   -0.5030 hc        1 C1X      0.031700
     37 H2C2       -3.0150    1.4020    0.3850 hc        1 C1X      0.031700
     38 HEC1       -1.0720    2.1630   -3.6390 h1        1 C1X      0.064700
     39 HEC2       -2.2170    0.9020   -4.2630 h1        1 C1X      0.064700
     40 HDC1       -0.5990    1.2410   -5.9430 hc        1 C1X      0.023200
     41 HDC2       -0.2830   -0.3990   -5.2510 hc        1 C1X      0.023200
     42 HGC1        1.6570    0.4370   -3.9880 hc        1 C1X      0.042200
     43 HGC2        1.2700    2.1400   -4.4350 hc        1 C1X      0.042200
     44 HBC1        1.6860    1.6580   -6.8350 hc        1 C1X      0.036200
     45 HBC2        1.8750   -0.1060   -6.4900 hc        1 C1X      0.036200
     46 HB          3.8800    0.3220   -5.0990 h1        1 C1X      0.044700
     47 HN1         4.3900    2.9050   -6.1070 hn        1 C1X      0.331800
     48 HN2         3.1860    2.8950   -5.0220 hn        1 C1X      0.331800
@<TRIPOS>BOND
     1    1    2 1   
     2    2    3 1   
     3    2    4 1   
     4    4    5 1   
     5    4   26 1   
     6    4   27 1   
     7    5    6 1   
     8    5   28 1   
     9    5   29 1   
    10    6    7 1   
    11    6    9 1   
    12    6   30 1   
    13    7   24 1   
    14    7   31 1   
    15    7   32 1   
    16    8   14 1   
    17    8   24 1   
    18    8   33 1   
    19    8   34 1   
    20    9   10 1   
    21    9   14 1   
    22    9   35 1   
    23   10   11 1   
    24   10   36 1   
    25   10   37 1   
    26   11   12 1   
    27   11   13 1   
    28   14   15 2   
    29   15   16 1   
    30   16   17 1   
    31   16   38 1   
    32   16   39 1   
    33   17   18 1   
    34   17   40 1   
    35   17   41 1   
    36   18   19 1   
    37   18   42 1   
    38   18   43 1   
    39   19   20 1   
    40   19   44 1   
    41   19   45 1   
    42   20   21 1   
    43   20   22 1   
    44   20   46 1   
    45   21   47 1   
    46   21   48 1   
    47   22   23 1   
    48   22   25 1   
@<TRIPOS>SUBSTRUCTURE
     1 C1X         1 TEMP              0 ****  ****    0 ROOT
