@<TRIPOS>MOLECULE
C20
   92    91     1     0     0
SMALL
bcc


@<TRIPOS>ATOM
      1 C1         -5.7240    5.6990    1.8820 c3        1 C20     -0.242000
      2 C2         -4.5470    4.7850    2.2540 c2        1 C20      0.308000
      3 O3         -3.4950    5.2690    2.6210 o         1 C20     -0.396000
      4 N4         -4.6850    3.3610    2.1520 n         1 C20     -0.375000
      5 C5         -3.7190    2.5130    2.7380 c3        1 C20      0.016000
      6 C6         -4.2770    1.9180    4.0220 c3        1 C20     -0.105000
      7 C7         -3.9100    2.8150    5.2000 c3        1 C20     -0.214000
      8 C8         -5.7930    1.8160    3.9170 c3        1 C20     -0.214000
      9 C9         -3.3680    1.3870    1.7620 c2        1 C20      0.287000
     10 O10        -4.2060    0.5500    1.4710 o         1 C20     -0.363000
     11 N11        -2.0180    1.3040    1.1900 n         1 C20     -0.380000
     12 C12        -1.7450    0.3790    0.1120 c3        1 C20     -0.003000
     13 C13        -1.9060    1.0830   -1.2080 c3        1 C20     -0.142000
     14 C14        -3.2260    0.6250   -1.8830 c2        1 C20     -0.072000
     15 C15        -4.2250    1.5570   -2.1470 c2        1 C20     -0.130000
     16 C16        -5.3120    1.2050   -2.9300 c1        1 C20     -0.135000
     17 C17        -5.4060   -0.0800   -3.4520 c1        1 C20     -0.128000
     18 C18        -4.4130   -1.0100   -3.1900 c1        1 C20     -0.128000
     19 C19        -3.3230   -0.6590   -2.4060 c1        1 C20     -0.118000
     20 C20        -0.3120   -0.1500    0.2400 c3        1 C20     -0.017000
     21 O21        -0.0340   -0.4180    1.5740 oh        1 C20     -0.331000
     22 C22        -0.1690   -1.4300   -0.5770 c3        1 C20     -0.088000
     23 N23         1.2920   -1.7250   -0.8080 n3        1 C20     -0.157000
     24 C24         1.5900   -1.6200   -2.2370 c3        1 C20     -0.066000
     25 C25         1.5160   -2.8630   -2.8120 c3        1 C20     -0.096000
     26 C26         1.3980   -2.7770   -4.3940 c3        1 C20     -0.155500
     27 C27         1.3430   -4.1370   -5.0610 c3        1 C20     -0.152500
     28 C28         1.8120   -5.1070   -4.2480 c3        1 C20     -0.155000
     29 C29         2.8750   -4.9870   -3.4240 c3        1 C20     -0.152500
     30 C30         2.9200   -3.6230   -2.7720 c3        1 C20     -0.155500
     31 N31         2.0920   -0.7850   -0.0820 n         1 C20     -0.277000
     32 C32         3.4290   -1.1700    0.3920 c2        1 C20      0.271000
     33 O33         3.8040   -2.3180    0.2820 o         1 C20     -0.338000
     34 C34         4.3540   -0.1180    1.0130 c3        1 C20      0.005000
     35 N35         4.8860   -0.6140    2.2300 n         1 C20     -0.365000
     36 C36         5.4880    0.1910    0.0540 c3        1 C20     -0.106000
     37 C37         5.7450    1.6920    0.0390 c3        1 C20     -0.214000
     38 C38         6.7530   -0.5380    0.5060 c3        1 C20     -0.214000
     39 C39         5.2750    0.2980    3.2670 c2        1 C20      0.302000
     40 O40         4.8120    1.4190    3.2920 o         1 C20     -0.369000
     41 C41         6.2030   -0.1700    4.3860 c3        1 C20     -0.242000
     42 H11        -6.5310    5.3840    2.3250 hc        1 C20      0.109333
     43 H12A       -5.8580    5.6820    0.8990 hc        1 C20      0.109333
     44 H13        -5.5290    6.6200    2.1710 hc        1 C20      0.109333
     45 HN4        -5.3790    3.0050    1.6850 hn        1 C20      0.236000
     46 H5         -2.9130    3.0300    2.9410 h1        1 C20      0.128000
     47 H6         -3.8990    1.0290    4.1590 hc        1 C20      0.122000
     48 H71        -4.4480    3.6300    5.1690 hc        1 C20      0.079833
     49 H72        -2.9600    3.0490    5.1490 hc        1 C20      0.079833
     50 H73        -4.0860    2.3380    6.0430 hc        1 C20      0.079833
     51 H81        -6.0290    1.2860    3.1310 hc        1 C20      0.079833
     52 H82        -6.1510    1.3790    4.7290 hc        1 C20      0.079833
     53 H83        -6.1750    2.7120    3.8320 hc        1 C20      0.079833
     54 HN1        -1.3680    1.8680    1.4800 hn        1 C20      0.248000
     55 H12        -2.3760   -0.3730    0.1600 h1        1 C20      0.138000
     56 H131       -1.1530    0.8650   -1.7860 hc        1 C20      0.096500
     57 H132       -1.9340    2.0490   -1.0610 hc        1 C20      0.096500
     58 H15        -4.1600    2.4580   -1.7820 ha        1 C20      0.131000
     59 H16        -6.0140    1.8610   -3.1150 ha        1 C20      0.128000
     60 H17        -6.1790   -0.3290   -4.0070 ha        1 C20      0.133000
     61 H18        -4.4800   -1.9080   -3.5560 ha        1 C20      0.133000
     62 H19        -2.6250   -1.3130   -2.2230 ha        1 C20      0.138000
     63 H20         0.3120    0.5190   -0.0940 h1        1 C20      0.077000
     64 HO1         0.2280    0.3270    1.9760 ho        1 C20      0.213000
     65 H221       -0.5780   -2.1720   -0.0910 h1        1 C20      0.118000
     66 H222       -0.6200   -1.3190   -1.4390 h1        1 C20      0.118000
     67 H241        0.9350   -1.0180   -2.6670 h1        1 C20      0.079500
     68 H242        2.4900   -1.2600   -2.3560 h1        1 C20      0.079500
     69 H25         0.8030   -3.4030   -2.4270 hc        1 C20      0.090000
     70 H261        2.1700   -2.2890   -4.7400 hc        1 C20      0.085750
     71 H262        0.5900   -2.2860   -4.6200 hc        1 C20      0.085750
     72 H271        1.8810   -4.1150   -5.8730 hc        1 C20      0.077000
     73 H272        0.4130   -4.3400   -5.2990 hc        1 C20      0.077000
     74 H281        2.0070   -5.8730   -4.8280 hc        1 C20      0.075000
     75 H282        1.0580   -5.3690   -3.6780 hc        1 C20      0.075000
     76 H291        3.7010   -5.1230   -3.9420 hc        1 C20      0.077000
     77 H292        2.8180   -5.6710   -2.7270 hc        1 C20      0.077000
     78 H301        3.5860   -3.0770   -3.2330 hc        1 C20      0.085750
     79 H302        3.1910   -3.7300   -1.8430 hc        1 C20      0.085750
     80 HN3         1.7930    0.0690    0.0430 hn        1 C20      0.222000
     81 H34         3.8460    0.6990    1.1900 h1        1 C20      0.141000
     82 HN5         4.9390   -1.5180    2.3720 hn        1 C20      0.234000
     83 H36         5.2460   -0.1050   -0.8400 hc        1 C20      0.099000
     84 H371        4.8880    2.1710    0.0080 hc        1 C20      0.080333
     85 H372        6.2320    1.9470    0.8490 hc        1 C20      0.080333
     86 H373        6.2790    1.9240   -0.7500 hc        1 C20      0.080333
     87 H381        7.1860   -0.0260    1.2300 hc        1 C20      0.080333
     88 H382        7.3710   -0.6210   -0.2510 hc        1 C20      0.080333
     89 H383        6.5160   -1.4280    0.8330 hc        1 C20      0.080333
     90 H411        7.0050   -0.5580    4.0010 hc        1 C20      0.106667
     91 H412        5.7420   -0.8470    4.9340 hc        1 C20      0.106667
     92 H413        6.4490    0.5990    4.9520 hc        1 C20      0.106667
@<TRIPOS>BOND
     1    1    2 1   
     2    1   42 1   
     3    1   43 1   
     4    1   44 1   
     5    2    3 1   
     6    2    4 1   
     7    4    5 1   
     8    4   45 1   
     9    5    6 1   
    10    5    9 1   
    11    5   46 1   
    12    6    7 1   
    13    6    8 1   
    14    6   47 1   
    15    7   48 1   
    16    7   49 1   
    17    7   50 1   
    18    8   51 1   
    19    8   52 1   
    20    8   53 1   
    21    9   10 1   
    22    9   11 1   
    23   11   12 1   
    24   11   54 1   
    25   12   13 1   
    26   12   20 1   
    27   12   55 1   
    28   13   14 1   
    29   13   56 1   
    30   13   57 1   
    31   14   15 1   
    32   14   19 1   
    33   15   16 1   
    34   15   58 1   
    35   16   59 1   
    36   17   18 1   
    37   17   60 1   
    38   18   61 1   
    39   19   62 1   
    40   20   21 1   
    41   20   22 1   
    42   20   63 1   
    43   21   64 1   
    44   22   23 1   
    45   22   65 1   
    46   22   66 1   
    47   23   24 1   
    48   23   31 1   
    49   24   25 1   
    50   24   67 1   
    51   24   68 1   
    52   25   26 1   
    53   25   30 1   
    54   25   69 1   
    55   26   27 1   
    56   26   70 1   
    57   26   71 1   
    58   27   28 1   
    59   27   72 1   
    60   27   73 1   
    61   28   29 1   
    62   28   74 1   
    63   28   75 1   
    64   29   30 1   
    65   29   76 1   
    66   29   77 1   
    67   30   78 1   
    68   30   79 1   
    69   31   32 1   
    70   31   80 1   
    71   32   33 1   
    72   32   34 1   
    73   34   35 1   
    74   34   36 1   
    75   34   81 1   
    76   35   39 1   
    77   35   82 1   
    78   36   37 1   
    79   36   38 1   
    80   36   83 1   
    81   37   84 1   
    82   37   85 1   
    83   37   86 1   
    84   38   87 1   
    85   38   88 1   
    86   38   89 1   
    87   39   40 1   
    88   39   41 1   
    89   41   90 1   
    90   41   91 1   
    91   41   92 1   
@<TRIPOS>SUBSTRUCTURE
     1 C20         1 TEMP              0 ****  ****    0 ROOT
