@<TRIPOS>MOLECULE
C20
   97    98     1     0     0
SMALL
bcc


@<TRIPOS>ATOM
      1 C1         -0.7650   -1.1350   -2.2260 c3        1 C20     -0.198100
      2 C2          0.5730   -0.5020   -2.1750 c         1 C20      0.600100
      3 O3          1.0590    0.4150   -2.8100 o         1 C20     -0.436100
      4 N4          1.5440   -1.0990   -1.1170 n4        1 C20     -0.710800
      5 C5          2.6820   -0.2040   -0.7350 c3        1 C20      0.065500
      6 C6          3.3080   -0.6110    0.6280 c3        1 C20     -0.079700
      7 C7          2.2710   -0.5710    1.7330 c3        1 C20     -0.138100
      8 C8          3.9780   -1.9630    0.5590 c3        1 C20     -0.138100
      9 C9          3.7680   -0.1770   -1.8240 c         1 C20      0.548100
     10 O10         3.8270   -0.9000   -2.8050 o         1 C20     -0.396100
     11 N11         4.8720    0.8410   -1.6310 n4        1 C20     -0.663800
     12 C12         5.5810    1.2790   -2.8930 c3        1 C20      0.125500
     13 C13         5.5410    2.8180   -3.0400 c3        1 C20     -0.037100
     14 C14         4.2280    3.4200   -2.6990 ca        1 C20     -0.226300
     15 C15         4.0510    4.0370   -1.4490 ca        1 C20     -0.133000
     16 C16         2.8780    4.7350   -1.1730 ca        1 C20     -0.101500
     17 C17         1.8730    4.8300   -2.1420 ca        1 C20     -0.061000
     18 C18         2.0410    4.2090   -3.3820 ca        1 C20     -0.101500
     19 C19         3.2140    3.5080   -3.6610 ca        1 C20     -0.133000
     20 C20         7.0890    0.8290   -2.9560 c3        1 C20      0.119100
     21 O21         7.1940   -0.4120   -2.3040 oh        1 C20     -0.597800
     22 C22         7.4640    0.6520   -4.4590 c3        1 C20      0.061800
     23 N23         8.9590    0.4810   -4.7470 n4        1 C20     -0.532200
     24 C24         9.2720   -0.9800   -5.2090 c3        1 C20      0.126800
     25 C25         9.1750   -1.9830   -4.0640 c3        1 C20     -0.108700
     26 C26         9.4060   -3.3690   -4.6960 c3        1 C20     -0.077900
     27 C27         9.3150   -4.4380   -3.6220 c3        1 C20     -0.078900
     28 C28        10.2980   -4.1890   -2.5000 c3        1 C20     -0.095400
     29 C29        10.1210   -2.8080   -1.9040 c3        1 C20     -0.078900
     30 C30        10.2050   -1.7310   -2.9740 c3        1 C20     -0.077900
     31 N31         9.4910    1.4560   -5.6840 n4        1 C20     -0.545600
     32 C32        11.0820    1.6100   -5.7780 c         1 C20      0.570100
     33 O33        11.7050    1.0980   -4.8820 o         1 C20     -0.321100
     34 C34        11.5670    2.3880   -7.0130 c3        1 C20      0.092500
     35 N35        12.6070    3.3890   -6.6070 n4        1 C20     -0.719800
     36 C36        12.0980    1.3740   -8.0760 c3        1 C20     -0.078700
     37 C37        13.3380    0.6440   -7.6200 c3        1 C20     -0.144600
     38 C38        10.9800    0.4290   -8.4480 c3        1 C20     -0.144600
     39 C39        12.0920    4.4080   -5.5620 c         1 C20      0.646100
     40 O40        11.0490    4.0240   -5.0430 o         1 C20     -0.542100
     41 C41        12.9020    5.6240   -5.3670 c3        1 C20     -0.208100
     42 H11        -1.1200   -1.1310   -3.2980 hc        1 C20      0.151033
     43 H12A       -1.4910   -0.5110   -1.6280 hc        1 C20      0.151033
     44 H13        -0.7920   -2.1870   -1.8440 hc        1 C20      0.151033
     45 HN4         1.0020   -1.2980   -0.2580 hn        1 C20      0.488300
     46 H5          2.2490    0.8450   -0.6410 hx        1 C20      0.157700
     47 H6          4.0780    0.1800    0.8640 hc        1 C20      0.069700
     48 H71         2.7950   -0.5460    2.7280 hc        1 C20      0.082867
     49 H72         1.6320    0.3420    1.6670 hc        1 C20      0.082867
     50 H73         1.6260   -1.4840    1.7400 hc        1 C20      0.082867
     51 H81         4.5230   -2.1590    1.5220 hc        1 C20      0.082867
     52 H82         3.2380   -2.7920    0.4360 hc        1 C20      0.082867
     53 H83         4.7150   -2.0060   -0.2800 hc        1 C20      0.082867
     54 HN1         5.5540    0.4190   -0.9830 hn        1 C20      0.490800
     55 H12         5.0220    0.8030   -3.7560 hx        1 C20      0.134700
     56 H131        5.7860    3.0450   -4.1130 hc        1 C20      0.075200
     57 H132        6.3380    3.2790   -2.3940 hc        1 C20      0.075200
     58 H15         4.8640    4.0390   -0.7060 ha        1 C20      0.134500
     59 H16         2.7550    5.2490   -0.2030 ha        1 C20      0.186500
     60 H17         0.9590    5.4170   -1.9350 ha        1 C20      0.196000
     61 H18         1.2550    4.2990   -4.1540 ha        1 C20      0.186500
     62 H19         3.3480    3.0540   -4.6550 ha        1 C20      0.134500
     63 H20         7.7340    1.6150   -2.4730 h1        1 C20      0.090700
     64 HO1         8.0320   -0.4640   -1.8120 ho        1 C20      0.467000
     65 H221        6.9600   -0.2950   -4.8310 hx        1 C20      0.147700
     66 H222        7.0500    1.5320   -5.0330 hx        1 C20      0.147700
     67 H241        8.5450   -1.2320   -6.0330 hx        1 C20      0.122700
     68 H242       10.3320   -0.9840   -5.6000 hx        1 C20      0.122700
     69 H25         8.1380   -1.9780   -3.6240 hc        1 C20      0.088700
     70 H261       10.4210   -3.4030   -5.1710 hc        1 C20      0.049200
     71 H262        8.6340   -3.5620   -5.4860 hc        1 C20      0.049200
     72 H271        8.2700   -4.4830   -3.2180 hc        1 C20      0.075700
     73 H272        9.5330   -5.4350   -4.0980 hc        1 C20      0.075700
     74 H281       10.1510   -4.9620   -1.6970 hc        1 C20      0.093200
     75 H282       11.3490   -4.3080   -2.8770 hc        1 C20      0.093200
     76 H291       10.9200   -2.6280   -1.1350 hc        1 C20      0.075700
     77 H292        9.1270   -2.7400   -1.3880 hc        1 C20      0.075700
     78 H301       10.0360   -0.7290   -2.4950 hc        1 C20      0.049200
     79 H302       11.2390   -1.7350   -3.4100 hc        1 C20      0.049200
     80 HN3         9.1580    1.1940   -6.6370 hn        1 C20      0.502800
     81 H34        10.7120    2.9740   -7.4750 hx        1 C20      0.145700
     82 HN5        13.4420    2.9030   -6.2330 hn        1 C20      0.509300
     83 H36        12.3560    1.9870   -8.9980 hc        1 C20      0.149700
     84 H371       14.2370    1.3090   -7.6050 hc        1 C20      0.083200
     85 H372       13.5740   -0.1810   -8.3510 hc        1 C20      0.083200
     86 H373       13.2040    0.1770   -6.6140 hc        1 C20      0.083200
     87 H381       11.3140   -0.2010   -9.3230 hc        1 C20      0.083200
     88 H382       10.7380   -0.2690   -7.6100 hc        1 C20      0.083200
     89 H383       10.0630    0.9770   -8.7770 hc        1 C20      0.083200
     90 H411       13.0920    5.7620   -4.2590 hc        1 C20      0.169033
     91 H412       13.8890    5.6280   -5.9010 hc        1 C20      0.169033
     92 H413       12.3050    6.5230   -5.7110 hc        1 C20      0.169033
     93 H42         1.9040   -1.9940   -1.4750 hn        1 C20      0.488300
     94 H112        4.4590    1.6900   -1.1880 hn        1 C20      0.490800
     95 H231        9.4870    0.6130   -3.8540 hn        1 C20      0.493800
     96 H312        9.1290    2.4020   -5.4440 hn        1 C20      0.502800
     97 H352       12.9100    3.8970   -7.4600 hn        1 C20      0.509300
@<TRIPOS>BOND
     1    1    2 1   
     2    1   42 1   
     3    1   43 1   
     4    1   44 1   
     5    2    3 2   
     6    2    4 1   
     7    4    5 1   
     8    4   45 1   
     9    4   93 1   
    10    5    6 1   
    11    5    9 1   
    12    5   46 1   
    13    6    7 1   
    14    6    8 1   
    15    6   47 1   
    16    7   48 1   
    17    7   49 1   
    18    7   50 1   
    19    8   51 1   
    20    8   52 1   
    21    8   53 1   
    22    9   10 2   
    23    9   11 1   
    24   11   12 1   
    25   11   54 1   
    26   11   94 1   
    27   12   13 1   
    28   12   20 1   
    29   12   55 1   
    30   13   14 1   
    31   13   56 1   
    32   13   57 1   
    33   14   15 ar  
    34   14   19 ar  
    35   15   16 ar  
    36   15   58 1   
    37   16   17 ar  
    38   16   59 1   
    39   17   18 ar  
    40   17   60 1   
    41   18   19 ar  
    42   18   61 1   
    43   19   62 1   
    44   20   21 1   
    45   20   22 1   
    46   20   63 1   
    47   21   64 1   
    48   22   23 1   
    49   22   65 1   
    50   22   66 1   
    51   23   24 1   
    52   23   31 1   
    53   23   95 1   
    54   24   25 1   
    55   24   67 1   
    56   24   68 1   
    57   25   26 1   
    58   25   30 1   
    59   25   69 1   
    60   26   27 1   
    61   26   70 1   
    62   26   71 1   
    63   27   28 1   
    64   27   72 1   
    65   27   73 1   
    66   28   29 1   
    67   28   74 1   
    68   28   75 1   
    69   29   30 1   
    70   29   76 1   
    71   29   77 1   
    72   30   78 1   
    73   30   79 1   
    74   31   32 1   
    75   31   80 1   
    76   31   96 1   
    77   32   33 2   
    78   32   34 1   
    79   34   35 1   
    80   34   36 1   
    81   34   81 1   
    82   35   39 1   
    83   35   82 1   
    84   35   97 1   
    85   36   37 1   
    86   36   38 1   
    87   36   83 1   
    88   37   84 1   
    89   37   85 1   
    90   37   86 1   
    91   38   87 1   
    92   38   88 1   
    93   38   89 1   
    94   39   40 2   
    95   39   41 1   
    96   41   90 1   
    97   41   91 1   
    98   41   92 1   
@<TRIPOS>SUBSTRUCTURE
     1 C20         1 TEMP              0 ****  ****    0 ROOT
