@<TRIPOS>MOLECULE
C20
   92    93     1     0     0
SMALL
bcc


@<TRIPOS>ATOM
      1 C1          0.5280    1.5360   -7.4100 c3        1 C20     -0.174100
      2 C2          0.5720    0.4560   -6.3570 c         1 C20      0.658100
      3 O3          0.2560   -0.7220   -6.6160 o         1 C20     -0.607100
      4 N4          1.0340    0.8210   -5.1010 n         1 C20     -0.550900
      5 C5          0.9300   -0.0580   -3.9660 c3        1 C20      0.034700
      6 C6          2.2600   -0.2360   -3.1940 c3        1 C20     -0.069700
      7 C7          3.2210   -1.0900   -3.9900 c3        1 C20     -0.097600
      8 C8          2.8940    1.0860   -2.8230 c3        1 C20     -0.097600
      9 C9         -0.1150    0.4690   -2.9440 c         1 C20      0.632100
     10 O10        -0.2810    1.6950   -2.7630 o         1 C20     -0.635100
     11 N11        -0.8440   -0.4740   -2.2590 n         1 C20     -0.534900
     12 C12        -1.7060   -0.1310   -1.1530 c3        1 C20      0.104700
     13 C13        -2.9890   -0.9840   -1.1300 c3        1 C20     -0.043100
     14 C14        -3.8190   -0.8070   -2.3500 ca        1 C20     -0.076300
     15 C15        -3.9390   -1.8410   -3.2840 ca        1 C20     -0.123000
     16 C16        -4.7330   -1.6760   -4.4190 ca        1 C20     -0.127000
     17 C17        -5.4130   -0.4770   -4.6290 ca        1 C20     -0.131000
     18 C18        -5.2980    0.5580   -3.7010 ca        1 C20     -0.127000
     19 C19        -4.5060    0.3950   -2.5660 ca        1 C20     -0.123000
     20 C20        -1.0160   -0.2840    0.2350 c3        1 C20      0.130100
     21 O21        -0.5380   -1.6140    0.3280 oh        1 C20     -0.618800
     22 C22         0.1220    0.7420    0.3640 c3        1 C20      0.128800
     23 N23         0.8400    0.6630    1.6530 n3        1 C20     -0.503600
     24 C24         2.0920    1.4550    1.5890 c3        1 C20      0.147800
     25 C25         3.2670    0.6280    1.0470 c3        1 C20     -0.057700
     26 C26         4.4350    1.5680    0.7760 c3        1 C20     -0.075400
     27 C27         5.6520    0.8040    0.2950 c3        1 C20     -0.076400
     28 C28         6.0470   -0.2820    1.2740 c3        1 C20     -0.078400
     29 C29         4.8870   -1.2160    1.5490 c3        1 C20     -0.076400
     30 C30         3.6670   -0.4590    2.0320 c3        1 C20     -0.075400
     31 N31         0.0380    0.9470    2.7400 n         1 C20     -0.409300
     32 C32        -0.2740   -0.0690    3.6630 c         1 C20      0.638100
     33 O33        -0.2700   -1.2780    3.3710 o         1 C20     -0.590100
     34 C34        -0.7610    0.4170    5.0560 c3        1 C20      0.033700
     35 N35        -1.9050   -0.3410    5.4880 n         1 C20     -0.561900
     36 C36         0.4240    0.3370    6.0500 c3        1 C20     -0.070700
     37 C37         0.8640   -1.0850    6.3190 c3        1 C20     -0.103100
     38 C38         1.5830    1.1720    5.5490 c3        1 C20     -0.103100
     39 C39        -3.1720    0.2160    5.5700 c         1 C20      0.661100
     40 O40        -3.3480    1.4420    5.4280 o         1 C20     -0.608100
     41 C41        -4.3130   -0.7200    5.8830 c3        1 C20     -0.173100
     42 H11         1.5380    1.9920   -7.5500 hc        1 C20      0.067367
     43 H12A        0.1970    1.0830   -8.3750 hc        1 C20      0.067367
     44 H13        -0.1950    2.3340   -7.1150 hc        1 C20      0.067367
     45 HN4         1.1160    1.7900   -4.8850 hn        1 C20      0.319500
     46 H5          0.6110   -1.0770   -4.3490 h1        1 C20      0.104700
     47 H6          2.0020   -0.7850   -2.2410 hc        1 C20      0.054700
     48 H71         4.1570   -1.2550   -3.4030 hc        1 C20      0.041700
     49 H72         2.7660   -2.0830   -4.2210 hc        1 C20      0.041700
     50 H73         3.4910   -0.5930   -4.9530 hc        1 C20      0.041700
     51 H81         3.3590    1.5710   -3.7150 hc        1 C20      0.041700
     52 H82         2.1270    1.7810   -2.3990 hc        1 C20      0.041700
     53 H83         3.6920    0.9250   -2.0570 hc        1 C20      0.041700
     54 HN1        -0.5890   -1.4320   -2.3300 hn        1 C20      0.321500
     55 H12        -1.9970    0.9570   -1.2650 h1        1 C20      0.088700
     56 H131       -2.7110   -2.0630   -0.9890 hc        1 C20      0.062200
     57 H132       -3.5850   -0.6720   -0.2300 hc        1 C20      0.062200
     58 H15        -3.4030   -2.7890   -3.1240 ha        1 C20      0.130000
     59 H16        -4.8180   -2.4930   -5.1500 ha        1 C20      0.130000
     60 H17        -6.0370   -0.3480   -5.5250 ha        1 C20      0.129000
     61 H18        -5.8320    1.5050   -3.8640 ha        1 C20      0.130000
     62 H19        -4.4140    1.2140   -1.8370 ha        1 C20      0.130000
     63 H20        -1.7920   -0.1030    1.0310 h1        1 C20      0.049700
     64 HO1        -0.1920   -1.7310    1.2250 ho        1 C20      0.441000
     65 H221        0.8980    0.5230   -0.4250 h1        1 C20      0.058700
     66 H222       -0.3020    1.7670    0.1600 h1        1 C20      0.058700
     67 H241        1.9580    2.3650    0.9350 h1        1 C20      0.041700
     68 H242        2.3810    1.8210    2.6160 h1        1 C20      0.041700
     69 H25         2.9730    0.1410    0.0740 hc        1 C20      0.060700
     70 H261        4.1380    2.3210   -0.0000 hc        1 C20      0.043450
     71 H262        4.6910    2.1280    1.7130 hc        1 C20      0.043450
     72 H271        5.4310    0.3440   -0.7050 hc        1 C20      0.041200
     73 H272        6.5070    1.5160    0.1560 hc        1 C20      0.041200
     74 H281        6.9100   -0.8650    0.8590 hc        1 C20      0.039700
     75 H282        6.3860    0.1860    2.2340 hc        1 C20      0.039700
     76 H291        4.6300   -1.7790    0.6130 hc        1 C20      0.041200
     77 H292        5.1870   -1.9700    2.3230 hc        1 C20      0.041200
     78 H301        3.8850    0.0040    3.0310 hc        1 C20      0.043450
     79 H302        2.8140   -1.1750    2.1700 hc        1 C20      0.043450
     80 HN3         0.1710    1.8560    3.1500 hn        1 C20      0.287500
     81 H34        -1.0790    1.5050    4.9970 h1        1 C20      0.100700
     82 HN5        -1.8080   -1.3300    5.4650 hn        1 C20      0.323500
     83 H36         0.0630    0.7860    7.0200 hc        1 C20      0.065700
     84 H371        1.8260   -1.0860    6.8870 hc        1 C20      0.043033
     85 H372        0.1010   -1.6280    6.9260 hc        1 C20      0.043033
     86 H373        1.0160   -1.6420    5.3610 hc        1 C20      0.043033
     87 H381        2.0780    0.6860    4.6710 hc        1 C20      0.043033
     88 H382        1.2390    2.1920    5.2510 hc        1 C20      0.043033
     89 H383        2.3450    1.2810    6.3590 hc        1 C20      0.043033
     90 H411       -5.2570   -0.1260    5.9440 hc        1 C20      0.069700
     91 H412       -4.4180   -1.4890    5.0800 hc        1 C20      0.069700
     92 H413       -4.1420   -1.2330    6.8600 hc        1 C20      0.069700
@<TRIPOS>BOND
     1    1    2 1   
     2    1   42 1   
     3    1   43 1   
     4    1   44 1   
     5    2    3 2   
     6    2    4 1   
     7    4    5 1   
     8    4   45 1   
     9    5    6 1   
    10    5    9 1   
    11    5   46 1   
    12    6    7 1   
    13    6    8 1   
    14    6   47 1   
    15    7   48 1   
    16    7   49 1   
    17    7   50 1   
    18    8   51 1   
    19    8   52 1   
    20    8   53 1   
    21    9   10 2   
    22    9   11 1   
    23   11   12 1   
    24   11   54 1   
    25   12   13 1   
    26   12   20 1   
    27   12   55 1   
    28   13   14 1   
    29   13   56 1   
    30   13   57 1   
    31   14   15 ar  
    32   14   19 ar  
    33   15   16 ar  
    34   15   58 1   
    35   16   17 ar  
    36   16   59 1   
    37   17   18 ar  
    38   17   60 1   
    39   18   19 ar  
    40   18   61 1   
    41   19   62 1   
    42   20   21 1   
    43   20   22 1   
    44   20   63 1   
    45   21   64 1   
    46   22   23 1   
    47   22   65 1   
    48   22   66 1   
    49   23   24 1   
    50   23   31 1   
    51   24   25 1   
    52   24   67 1   
    53   24   68 1   
    54   25   26 1   
    55   25   30 1   
    56   25   69 1   
    57   26   27 1   
    58   26   70 1   
    59   26   71 1   
    60   27   28 1   
    61   27   72 1   
    62   27   73 1   
    63   28   29 1   
    64   28   74 1   
    65   28   75 1   
    66   29   30 1   
    67   29   76 1   
    68   29   77 1   
    69   30   78 1   
    70   30   79 1   
    71   31   32 1   
    72   31   80 1   
    73   32   33 2   
    74   32   34 1   
    75   34   35 1   
    76   34   36 1   
    77   34   81 1   
    78   35   39 1   
    79   35   82 1   
    80   36   37 1   
    81   36   38 1   
    82   36   83 1   
    83   37   84 1   
    84   37   85 1   
    85   37   86 1   
    86   38   87 1   
    87   38   88 1   
    88   38   89 1   
    89   39   40 2   
    90   39   41 1   
    91   41   90 1   
    92   41   91 1   
    93   41   92 1   
@<TRIPOS>SUBSTRUCTURE
     1 C20         1 TEMP              0 ****  ****    0 ROOT
