@<TRIPOS>MOLECULE
C20
   97    98     1     0     0
SMALL
bcc


@<TRIPOS>ATOM
      1 C1         -0.7950   -1.0760   -2.3130 c3        1 C20     -0.198100
      2 C2          0.5490   -0.4590   -2.2430 c         1 C20      0.600100
      3 O3          1.0490    0.4660   -2.8570 o         1 C20     -0.436100
      4 N4          1.5080   -1.0860   -1.1920 n4        1 C20     -0.710800
      5 C5          2.6540   -0.2110   -0.7860 c3        1 C20      0.065500
      6 C6          3.2690   -0.6510    0.5710 c3        1 C20     -0.079700
      7 C7          2.2270   -0.6220    1.6720 c3        1 C20     -0.138100
      8 C8          3.9250   -2.0090    0.4790 c3        1 C20     -0.138100
      9 C9          3.7450   -0.1740   -1.8700 c         1 C20      0.548100
     10 O10         3.8020   -0.8790   -2.8640 o         1 C20     -0.396100
     11 N11         4.8580    0.8290   -1.6520 n4        1 C20     -0.663800
     12 C12         5.5790    1.2830   -2.9020 c3        1 C20      0.125500
     13 C13         5.5560    2.8250   -3.0200 c3        1 C20     -0.037100
     14 C14         4.2470    3.4340   -2.6740 ca        1 C20     -0.226300
     15 C15         4.0700    4.0290   -1.4130 ca        1 C20     -0.133000
     16 C16         2.9030    4.7340   -1.1310 ca        1 C20     -0.101500
     17 C17         1.9040    4.8570   -2.1020 ca        1 C20     -0.061000
     18 C18         2.0720    4.2590   -3.3530 ca        1 C20     -0.101500
     19 C19         3.2390    3.5510   -3.6400 ca        1 C20     -0.133000
     20 C20         7.0820    0.8190   -2.9660 c3        1 C20      0.119100
     21 O21         7.1710   -0.4350   -2.3350 oh        1 C20     -0.597800
     22 C22         7.4620    0.6640   -4.4700 c3        1 C20      0.061800
     23 N23         8.9570    0.4860   -4.7560 n4        1 C20     -0.532200
     24 C24         9.2630   -0.9700   -5.2370 c3        1 C20      0.126800
     25 C25         9.1540   -1.9890   -4.1070 c3        1 C20     -0.108700
     26 C26         9.3810   -3.3670   -4.7580 c3        1 C20     -0.077900
     27 C27         9.2780   -4.4510   -3.7010 c3        1 C20     -0.078900
     28 C28        10.2550   -4.2230   -2.5690 c3        1 C20     -0.095400
     29 C29        10.0820   -2.8510   -1.9540 c3        1 C20     -0.078900
     30 C30        10.1790   -1.7590   -3.0080 c3        1 C20     -0.077900
     31 N31         9.4990    1.4720   -5.6760 n4        1 C20     -0.545600
     32 C32        11.0920    1.6170   -5.7620 c         1 C20      0.570100
     33 O33        11.7070    1.0890   -4.8700 o         1 C20     -0.321100
     34 C34        11.5870    2.4080   -6.9840 c3        1 C20      0.092500
     35 N35        12.6300    3.3980   -6.5590 n4        1 C20     -0.719800
     36 C36        12.1180    1.4050   -8.0570 c3        1 C20     -0.078700
     37 C37        13.3510    0.6630   -7.6050 c3        1 C20     -0.144600
     38 C38        10.9970    0.4720   -8.4480 c3        1 C20     -0.144600
     39 C39        12.1150    4.4070   -5.5040 c         1 C20      0.646100
     40 O40        11.0670    4.0210   -4.9950 o         1 C20     -0.542100
     41 C41        12.9300    5.6160   -5.2890 c3        1 C20     -0.208100
     42 H11        -1.1410   -1.0530   -3.3880 hc        1 C20      0.151033
     43 H12A       -0.8370   -2.1330   -1.9460 hc        1 C20      0.151033
     44 H13        -1.5190   -0.4520   -1.7120 hc        1 C20      0.151033
     45 HN4         1.8600   -1.9780   -1.5650 hn        1 C20      0.488300
     46 H5          2.2310    0.8410   -0.6740 hx        1 C20      0.157700
     47 H6          4.0460    0.1270    0.8260 hc        1 C20      0.069700
     48 H71         1.5720   -1.5280    1.6580 hc        1 C20      0.082867
     49 H72         1.5980    0.2990    1.6200 hc        1 C20      0.082867
     50 H73         2.7460   -0.6220    2.6690 hc        1 C20      0.082867
     51 H81         3.1770   -2.8270    0.3360 hc        1 C20      0.082867
     52 H82         4.4630   -2.2300    1.4400 hc        1 C20      0.082867
     53 H83         4.6650   -2.0440   -0.3570 hc        1 C20      0.082867
     54 HN1         5.5330    0.3880   -1.0080 hn        1 C20      0.490800
     55 H12         5.0200    0.8300   -3.7760 hx        1 C20      0.134700
     56 H131        5.8090    3.0690   -4.0880 hc        1 C20      0.075200
     57 H132        6.3540    3.2650   -2.3610 hc        1 C20      0.075200
     58 H15         4.8800    4.0090   -0.6670 ha        1 C20      0.134500
     59 H16         2.7800    5.2310   -0.1510 ha        1 C20      0.186500
     60 H17         0.9950    5.4510   -1.8880 ha        1 C20      0.196000
     61 H18         1.2910    4.3720   -4.1270 ha        1 C20      0.186500
     62 H19         3.3730    3.1140   -4.6410 ha        1 C20      0.134500
     63 H20         7.7340    1.5900   -2.4670 h1        1 C20      0.090700
     64 HO1         8.0070   -0.5030   -1.8410 ho        1 C20      0.467000
     65 H221        6.9530   -0.2740   -4.8590 hx        1 C20      0.147700
     66 H222        7.0570    1.5550   -5.0320 hx        1 C20      0.147700
     67 H241        8.5380   -1.2050   -6.0680 hx        1 C20      0.122700
     68 H242       10.3250   -0.9750   -5.6230 hx        1 C20      0.122700
     69 H25         8.1140   -1.9850   -3.6730 hc        1 C20      0.088700
     70 H261       10.3990   -3.4000   -5.2280 hc        1 C20      0.049200
     71 H262        8.6140   -3.5440   -5.5550 hc        1 C20      0.049200
     72 H271        9.4940   -5.4420   -4.1900 hc        1 C20      0.075700
     73 H272        8.2310   -4.4960   -3.3040 hc        1 C20      0.075700
     74 H281       10.1000   -5.0080   -1.7780 hc        1 C20      0.093200
     75 H282       11.3080   -4.3430   -2.9420 hc        1 C20      0.093200
     76 H291        9.0860   -2.7840   -1.4430 hc        1 C20      0.075700
     77 H292       10.8780   -2.6860   -1.1780 hc        1 C20      0.075700
     78 H301       11.2160   -1.7620   -3.4380 hc        1 C20      0.049200
     79 H302       10.0120   -0.7620   -2.5150 hc        1 C20      0.049200
     80 HN3         9.1690    1.2240   -6.6340 hn        1 C20      0.502800
     81 H34        10.7370    3.0050   -7.4420 hx        1 C20      0.145700
     82 HN5        12.9400    3.9160   -7.4040 hn        1 C20      0.509300
     83 H36        12.3830    2.0290   -8.9690 hc        1 C20      0.149700
     84 H371       13.5870   -0.1530   -8.3450 hc        1 C20      0.083200
     85 H372       14.2540    1.3230   -7.5760 hc        1 C20      0.083200
     86 H373       13.2100    0.1830   -6.6060 hc        1 C20      0.083200
     87 H381       10.7460   -0.2350   -7.6200 hc        1 C20      0.083200
     88 H382       11.3320   -0.1490   -9.3290 hc        1 C20      0.083200
     89 H383       10.0850    1.0290   -8.7740 hc        1 C20      0.083200
     90 H411       13.1160    5.7390   -4.1790 hc        1 C20      0.169033
     91 H412       12.3390    6.5220   -5.6240 hc        1 C20      0.169033
     92 H413       13.9190    5.6220   -5.8180 hc        1 C20      0.169033
     93 H42         0.9600   -1.2960   -0.3390 hn        1 C20      0.488300
     94 H112        4.4520    1.6740   -1.1950 hn        1 C20      0.490800
     95 H231        9.4820    0.6030   -3.8590 hn        1 C20      0.493800
     96 H312        9.1410    2.4160   -5.4250 hn        1 C20      0.502800
     97 H352       13.4610    2.9040   -6.1870 hn        1 C20      0.509300
@<TRIPOS>BOND
     1    1    2 1   
     2    1   42 1   
     3    1   43 1   
     4    1   44 1   
     5    2    3 2   
     6    2    4 1   
     7    4    5 1   
     8    4   45 1   
     9    4   93 1   
    10    5    6 1   
    11    5    9 1   
    12    5   46 1   
    13    6    7 1   
    14    6    8 1   
    15    6   47 1   
    16    7   48 1   
    17    7   49 1   
    18    7   50 1   
    19    8   51 1   
    20    8   52 1   
    21    8   53 1   
    22    9   10 2   
    23    9   11 1   
    24   11   12 1   
    25   11   54 1   
    26   11   94 1   
    27   12   13 1   
    28   12   20 1   
    29   12   55 1   
    30   13   14 1   
    31   13   56 1   
    32   13   57 1   
    33   14   15 ar  
    34   14   19 ar  
    35   15   16 ar  
    36   15   58 1   
    37   16   17 ar  
    38   16   59 1   
    39   17   18 ar  
    40   17   60 1   
    41   18   19 ar  
    42   18   61 1   
    43   19   62 1   
    44   20   21 1   
    45   20   22 1   
    46   20   63 1   
    47   21   64 1   
    48   22   23 1   
    49   22   65 1   
    50   22   66 1   
    51   23   24 1   
    52   23   31 1   
    53   23   95 1   
    54   24   25 1   
    55   24   67 1   
    56   24   68 1   
    57   25   26 1   
    58   25   30 1   
    59   25   69 1   
    60   26   27 1   
    61   26   70 1   
    62   26   71 1   
    63   27   28 1   
    64   27   72 1   
    65   27   73 1   
    66   28   29 1   
    67   28   74 1   
    68   28   75 1   
    69   29   30 1   
    70   29   76 1   
    71   29   77 1   
    72   30   78 1   
    73   30   79 1   
    74   31   32 1   
    75   31   80 1   
    76   31   96 1   
    77   32   33 2   
    78   32   34 1   
    79   34   35 1   
    80   34   36 1   
    81   34   81 1   
    82   35   39 1   
    83   35   82 1   
    84   35   97 1   
    85   36   37 1   
    86   36   38 1   
    87   36   83 1   
    88   37   84 1   
    89   37   85 1   
    90   37   86 1   
    91   38   87 1   
    92   38   88 1   
    93   38   89 1   
    94   39   40 2   
    95   39   41 1   
    96   41   90 1   
    97   41   91 1   
    98   41   92 1   
@<TRIPOS>SUBSTRUCTURE
     1 C20         1 TEMP              0 ****  ****    0 ROOT
