@<TRIPOS>MOLECULE
C20
   97    98     1     0     0
SMALL
bcc


@<TRIPOS>ATOM
      1 C1         -0.7760   -1.1480   -2.2810 c3        1 C20     -0.198100
      2 C2          0.5610   -0.5130   -2.2240 c         1 C20      0.600100
      3 O3          1.0480    0.4060   -2.8540 o         1 C20     -0.436100
      4 N4          1.5280   -1.1100   -1.1630 ny        1 C20     -0.710800
      5 C5          2.6630   -0.2150   -0.7730 c3        1 C20      0.065500
      6 C6          3.2840   -0.6240    0.5920 c3        1 C20     -0.079700
      7 C7          2.2420   -0.5870    1.6920 c3        1 C20     -0.138100
      8 C8          3.9560   -1.9750    0.5230 c3        1 C20     -0.138100
      9 C9          3.7530   -0.1840   -1.8580 c         1 C20      0.548100
     10 O10         3.8190   -0.9050   -2.8390 o         1 C20     -0.396100
     11 N11         4.8540    0.8360   -1.6580 ny        1 C20     -0.663800
     12 C12         5.5690    1.2770   -2.9160 c3        1 C20      0.125500
     13 C13         5.5280    2.8160   -3.0610 c3        1 C20     -0.037100
     14 C14         4.2120    3.4150   -2.7250 ca        1 C20     -0.226300
     15 C15         4.0270    4.0300   -1.4750 ca        1 C20     -0.133000
     16 C16         2.8520    4.7260   -1.2040 ca        1 C20     -0.101500
     17 C17         1.8510    4.8200   -2.1770 ca        1 C20     -0.061000
     18 C18         2.0270    4.2020   -3.4170 ca        1 C20     -0.101500
     19 C19         3.2020    3.5030   -3.6920 ca        1 C20     -0.133000
     20 C20         7.0780    0.8300   -2.9720 c3        1 C20      0.119100
     21 O21         7.1820   -0.4120   -2.3210 oh        1 C20     -0.597800
     22 C22         7.4600    0.6550   -4.4740 c3        1 C20      0.061800
     23 N23         8.9570    0.4870   -4.7550 nx        1 C20     -0.532200
     24 C24         9.2760   -0.9730   -5.2160 c3        1 C20      0.126800
     25 C25         9.1760   -1.9770   -4.0720 c3        1 C20     -0.108700
     26 C26         9.4140   -3.3620   -4.7030 c3        1 C20     -0.077900
     27 C27         9.3220   -4.4310   -3.6300 c3        1 C20     -0.078900
     28 C28        10.2980   -4.1790   -2.5030 c3        1 C20     -0.095400
     29 C29        10.1140   -2.8000   -1.9080 c3        1 C20     -0.078900
     30 C30        10.2000   -1.7220   -2.9770 c3        1 C20     -0.077900
     31 N31         9.4910    1.4640   -5.6900 ny        1 C20     -0.545600
     32 C32        11.0820    1.6220   -5.7770 c         1 C20      0.570100
     33 O33        11.7020    1.1110   -4.8780 o         1 C20     -0.321100
     34 C34        11.5710    2.4010   -7.0090 c3        1 C20      0.092500
     35 N35        12.6050    3.4050   -6.5980 ny        1 C20     -0.719800
     36 C36        12.1090    1.3890   -8.0700 c3        1 C20     -0.078700
     37 C37        13.3490    0.6630   -7.6080 c3        1 C20     -0.144600
     38 C38        10.9960    0.4420   -8.4470 c3        1 C20     -0.144600
     39 C39        12.0830    4.4230   -5.5560 c         1 C20      0.646100
     40 O40        11.0380    4.0360   -5.0420 o         1 C20     -0.542100
     41 C41        12.8890    5.6410   -5.3560 c3        1 C20     -0.208100
     42 H11        -0.8030   -2.2020   -1.9040 hc        1 C20      0.151033
     43 H12A       -1.1270   -1.1410   -3.3550 hc        1 C20      0.151033
     44 H13        -1.5060   -0.5280   -1.6840 hc        1 C20      0.151033
     45 HN4         1.8910   -2.0050   -1.5210 hn        1 C20      0.488300
     46 H5          2.2280    0.8330   -0.6790 hx        1 C20      0.157700
     47 H6          4.0520    0.1670    0.8320 hc        1 C20      0.069700
     48 H71         1.6020    0.3260    1.6250 hc        1 C20      0.082867
     49 H72         2.7610   -0.5640    2.6890 hc        1 C20      0.082867
     50 H73         1.5970   -1.5010    1.6940 hc        1 C20      0.082867
     51 H81         3.2170   -2.8050    0.3950 hc        1 C20      0.082867
     52 H82         4.4960   -2.1730    1.4870 hc        1 C20      0.082867
     53 H83         4.6950   -2.0160   -0.3130 hc        1 C20      0.082867
     54 HN1         4.4390    1.6840   -1.2150 hn        1 C20      0.490800
     55 H12         5.0160    0.8020   -3.7820 hx        1 C20      0.134700
     56 H131        5.7770    3.0450   -4.1320 hc        1 C20      0.075200
     57 H132        6.3210    3.2770   -2.4100 hc        1 C20      0.075200
     58 H15         4.8370    4.0320   -0.7280 ha        1 C20      0.134500
     59 H16         2.7230    5.2370   -0.2330 ha        1 C20      0.186500
     60 H17         0.9350    5.4060   -1.9730 ha        1 C20      0.196000
     61 H18         1.2450    4.2920   -4.1930 ha        1 C20      0.186500
     62 H19         3.3410    3.0510   -4.6860 ha        1 C20      0.134500
     63 H20         7.7200    1.6160   -2.4850 h1        1 C20      0.090700
     64 HO1         8.0180   -0.4630   -1.8260 ho        1 C20      0.467000
     65 H221        6.9600   -0.2930   -4.8480 hx        1 C20      0.147700
     66 H222        7.0470    1.5340   -5.0490 hx        1 C20      0.147700
     67 H241        8.5530   -1.2260   -6.0430 hx        1 C20      0.122700
     68 H242       10.3380   -0.9740   -5.6030 hx        1 C20      0.122700
     69 H25         8.1370   -1.9740   -3.6360 hc        1 C20      0.088700
     70 H261       10.4310   -3.3930   -5.1740 hc        1 C20      0.049200
     71 H262        8.6470   -3.5560   -5.4970 hc        1 C20      0.049200
     72 H271        9.5450   -5.4270   -4.1050 hc        1 C20      0.075700
     73 H272        8.2750   -4.4790   -3.2310 hc        1 C20      0.075700
     74 H281       10.1500   -4.9530   -1.7010 hc        1 C20      0.093200
     75 H282       11.3510   -4.2960   -2.8750 hc        1 C20      0.093200
     76 H291        9.1180   -2.7340   -1.3960 hc        1 C20      0.075700
     77 H292       10.9090   -2.6170   -1.1350 hc        1 C20      0.075700
     78 H301       11.2370   -1.7230   -3.4080 hc        1 C20      0.049200
     79 H302       10.0260   -0.7200   -2.4980 hc        1 C20      0.049200
     80 HN3         9.1630    1.2010   -6.6440 hn        1 C20      0.502800
     81 H34        10.7160    2.9860   -7.4750 hx        1 C20      0.145700
     82 HN5        13.4400    2.9220   -6.2200 hn        1 C20      0.509300
     83 H36        12.3690    2.0030   -8.9900 hc        1 C20      0.149700
     84 H371       14.2460    1.3300   -7.5890 hc        1 C20      0.083200
     85 H372       13.2120    0.1950   -6.6030 hc        1 C20      0.083200
     86 H373       13.5910   -0.1610   -8.3380 hc        1 C20      0.083200
     87 H381       10.7510   -0.2570   -7.6110 hc        1 C20      0.083200
     88 H382       10.0790    0.9870   -8.7800 hc        1 C20      0.083200
     89 H383       11.3350   -0.1880   -9.3210 hc        1 C20      0.083200
     90 H411       12.2910    6.5390   -5.7040 hc        1 C20      0.169033
     91 H412       13.8780    5.6480   -5.8840 hc        1 C20      0.169033
     92 H413       13.0720    5.7810   -4.2480 hc        1 C20      0.169033
     93 H42         0.9830   -1.3130   -0.3060 hn        1 C20      0.488300
     94 H112        5.5350    0.4140   -1.0070 hn        1 C20      0.490800
     95 H231        9.4810    0.6210   -3.8600 hn        1 C20      0.493800
     96 H312        9.1250    2.4090   -5.4510 hn        1 C20      0.502800
     97 H352       12.9110    3.9140   -7.4490 hn        1 C20      0.509300
@<TRIPOS>BOND
     1    1    2 1   
     2    1   42 1   
     3    1   43 1   
     4    1   44 1   
     5    2    3 2   
     6    2    4 1   
     7    4    5 1   
     8    4   45 1   
     9    4   93 1   
    10    5    6 1   
    11    5    9 1   
    12    5   46 1   
    13    6    7 1   
    14    6    8 1   
    15    6   47 1   
    16    7   48 1   
    17    7   49 1   
    18    7   50 1   
    19    8   51 1   
    20    8   52 1   
    21    8   53 1   
    22    9   10 2   
    23    9   11 1   
    24   11   12 1   
    25   11   54 1   
    26   11   94 1   
    27   12   13 1   
    28   12   20 1   
    29   12   55 1   
    30   13   14 1   
    31   13   56 1   
    32   13   57 1   
    33   14   15 ar  
    34   14   19 ar  
    35   15   16 ar  
    36   15   58 1   
    37   16   17 ar  
    38   16   59 1   
    39   17   18 ar  
    40   17   60 1   
    41   18   19 ar  
    42   18   61 1   
    43   19   62 1   
    44   20   21 1   
    45   20   22 1   
    46   20   63 1   
    47   21   64 1   
    48   22   23 1   
    49   22   65 1   
    50   22   66 1   
    51   23   24 1   
    52   23   31 1   
    53   23   95 1   
    54   24   25 1   
    55   24   67 1   
    56   24   68 1   
    57   25   26 1   
    58   25   30 1   
    59   25   69 1   
    60   26   27 1   
    61   26   70 1   
    62   26   71 1   
    63   27   28 1   
    64   27   72 1   
    65   27   73 1   
    66   28   29 1   
    67   28   74 1   
    68   28   75 1   
    69   29   30 1   
    70   29   76 1   
    71   29   77 1   
    72   30   78 1   
    73   30   79 1   
    74   31   32 1   
    75   31   80 1   
    76   31   96 1   
    77   32   33 2   
    78   32   34 1   
    79   34   35 1   
    80   34   36 1   
    81   34   81 1   
    82   35   39 1   
    83   35   82 1   
    84   35   97 1   
    85   36   37 1   
    86   36   38 1   
    87   36   83 1   
    88   37   84 1   
    89   37   85 1   
    90   37   86 1   
    91   38   87 1   
    92   38   88 1   
    93   38   89 1   
    94   39   40 2   
    95   39   41 1   
    96   41   90 1   
    97   41   91 1   
    98   41   92 1   
@<TRIPOS>SUBSTRUCTURE
     1 C20         1 TEMP              0 ****  ****    0 ROOT
