@<TRIPOS>MOLECULE
C21
   11    11     1     0     0
SMALL
bcc


@<TRIPOS>ATOM
      1 O8          0.0220   -0.0020   -0.0340 o         1 C21     -0.825300
      2 C6          1.2840   -0.0010   -0.0110 c         1 C21      0.932200
      3 O7          1.9760    0.0010    1.0460 o         1 C21     -0.825300
      4 C4          2.0080   -0.0020   -1.3370 cc        1 C21     -0.102700
      5 S5          3.6850   -0.0000   -1.5020 ss        1 C21     -0.007800
      6 C3          1.3960   -0.0040   -2.5740 cd        1 C21     -0.180000
      7 C2          2.3440   -0.0040   -3.6440 cd        1 C21     -0.174000
      8 C1          3.6400   -0.0020   -3.1720 cc        1 C21     -0.232100
      9 H3          0.3130   -0.0050   -2.7090 ha        1 C21      0.157000
     10 H2          2.0580   -0.0050   -4.6960 ha        1 C21      0.119000
     11 H1          4.5350   -0.0020   -3.7870 h4        1 C21      0.137000
@<TRIPOS>BOND
     1    1    2 1   
     2    2    3 1   
     3    2    4 1   
     4    4    5 1   
     5    4    6 2   
     6    5    8 1   
     7    6    7 1   
     8    6    9 1   
     9    7    8 2   
    10    7   10 1   
    11    8   11 1   
@<TRIPOS>SUBSTRUCTURE
     1 C21         1 TEMP              0 ****  ****    0 ROOT
