@<TRIPOS>MOLECULE
C21
   11    11     1     0     0
SMALL
bcc


@<TRIPOS>ATOM
      1 O8          2.2960   -1.1230   -0.0010 o         1 C21     -0.825300
      2 C6          1.6140   -0.0610   -0.0000 c         1 C21      0.932200
      3 O7          2.1070    1.1030    0.0000 o         1 C21     -0.825300
      4 C4          0.1090   -0.1970    0.0000 cc        1 C21     -0.102700
      5 S5         -0.9610    1.1060    0.0010 ss        1 C21     -0.007800
      6 C3         -0.5790   -1.3920   -0.0000 cd        1 C21     -0.180000
      7 C2         -1.9950   -1.1990    0.0000 cd        1 C21     -0.174000
      8 C1         -2.3240    0.1400    0.0010 cc        1 C21     -0.232100
      9 H3         -0.0890   -2.3680   -0.0010 ha        1 C21      0.157000
     10 H2         -2.7100   -2.0220   -0.0000 ha        1 C21      0.119000
     11 H1         -3.3320    0.5420    0.0020 h4        1 C21      0.137000
@<TRIPOS>BOND
     1    1    2 1   
     2    2    3 1   
     3    2    4 1   
     4    4    5 1   
     5    4    6 2   
     6    5    8 1   
     7    6    7 1   
     8    6    9 1   
     9    7    8 2   
    10    7   10 1   
    11    8   11 1   
@<TRIPOS>SUBSTRUCTURE
     1 C21         1 TEMP              0 ****  ****    0 ROOT
