@<TRIPOS>MOLECULE
C21
   11     7     1     0     0
SMALL
bcc


@<TRIPOS>ATOM
      1 O8         -2.2650    0.4620    1.9490 o         1 C21     -0.568000
      2 C6         -1.2020   -0.2040    1.8440 c1        1 C21      0.381000
      3 O7         -0.7960   -0.8980    2.8130 os        1 C21     -0.552000
      4 C4         -0.4170   -0.1780    0.5510 c2        1 C21     -0.352000
      5 S5         -0.6820   -1.0640   -0.6950 ss        1 C21      0.532000
      6 C3          0.6630    0.7350    0.2270 c1        1 C21     -0.180000
      7 C2          1.1270    0.4510   -1.2690 c1        1 C21     -0.174000
      8 C1          0.3130   -0.6260   -1.8020 c1        1 C21     -0.502000
      9 H3          1.0400    1.4090    0.8250 DU        1 C21      0.137667
     10 H2          1.8380    0.9200   -1.7460 DU        1 C21      0.137667
     11 H1          0.3800   -1.0070   -2.6980 DU        1 C21      0.137667
@<TRIPOS>BOND
     1    1    2 1   
     2    2    4 1   
     3    4    5 1   
     4    4    6 1   
     5    5    8 1   
     6    6    7 1   
     7    7    8 1   
@<TRIPOS>SUBSTRUCTURE
     1 C21         1 TEMP              0 ****  ****    0 ROOT
