@<TRIPOS>MOLECULE
C22
   12    10     1     0     0
SMALL
bcc


@<TRIPOS>ATOM
      1 C          -1.4230   -0.2020   -0.1940 c1        1 C22      0.314000
      2 N           0.5310    0.9690   -0.9350 n3        1 C22     -0.327000
      3 O          -2.1090   -1.2250   -0.4580 o         1 C22     -0.572000
      4 CL          0.1050    0.8280    2.0950 cl        1 C22     -0.188000
      5 CA          0.0810   -0.2420   -0.3410 c3        1 C22     -0.141000
      6 CB          0.7160   -0.4020    1.0210 c3        1 C22     -0.073000
      7 OXT        -1.9900    0.8530    0.1930 os        1 C22     -0.572000
      8 HN          0.1290    1.0770   -1.7510 hn        1 C22      0.135500
      9 HNA         1.4400    0.9360   -1.0440 hn        1 C22      0.135500
     10 HA          0.3330   -0.9970   -0.9080 h1        1 C22      0.086000
     11 HB          0.4990   -1.2850    1.3810 h1        1 C22      0.100500
     12 HBA         1.6870   -0.3120    0.9410 h1        1 C22      0.100500
@<TRIPOS>BOND
     1    1    3 1   
     2    1    5 1   
     3    2    5 1   
     4    2    8 1   
     5    2    9 1   
     6    4    6 1   
     7    5    6 1   
     8    5   10 1   
     9    6   11 1   
    10    6   12 1   
@<TRIPOS>SUBSTRUCTURE
     1 C22         1 TEMP              0 ****  ****    0 ROOT
