@<TRIPOS>MOLECULE
C22
   12    11     1     0     0
SMALL
bcc


@<TRIPOS>ATOM
      1 C          -1.5770   -0.0390    0.1250 c         1 C22      0.889600
      2 N           0.2730    1.6500   -0.3440 n3        1 C22     -0.881800
      3 O          -2.3090    0.9520    0.3990 o         1 C22     -0.834800
      4 CL          2.4580   -0.7290   -0.3000 cl        1 C22     -0.283400
      5 CA         -0.1210    0.2500   -0.3970 c3        1 C22      0.002500
      6 CB          0.8110   -0.6780    0.3630 c3        1 C22      0.085000
      7 OXT        -1.9270   -1.2460    0.2200 o         1 C22     -0.834800
      8 HN         -0.5230    2.1920   -0.6420 hn        1 C22      0.332300
      9 HNA         0.4430    1.9010    0.6140 hn        1 C22      0.332300
     10 HA         -0.1160   -0.0430   -1.4870 h1        1 C22      0.058700
     11 HB          0.4170   -1.7220    0.2980 h1        1 C22      0.066700
     12 HBA         0.9290   -0.3710    1.4280 h1        1 C22      0.066700
@<TRIPOS>BOND
     1    1    3 1   
     2    1    5 1   
     3    1    7 1   
     4    2    5 1   
     5    2    8 1   
     6    2    9 1   
     7    4    6 1   
     8    5    6 1   
     9    5   10 1   
    10    6   11 1   
    11    6   12 1   
@<TRIPOS>SUBSTRUCTURE
     1 C22         1 TEMP              0 ****  ****    0 ROOT
