@<TRIPOS>MOLECULE
C23
   52    55     1     0     0
SMALL
bcc


@<TRIPOS>ATOM
      1 O2          2.0720   -2.5300   -0.0220 o         1 C23     -0.534100
      2 C14         2.0870   -1.2920   -0.0370 c         1 C23      0.608300
      3 C15         3.3470   -0.4790   -0.0460 c3        1 C23     -0.167400
      4 C16         4.5920   -1.3430   -0.0220 c3        1 C23     -0.033100
      5 C17         5.8290   -0.5160    0.0110 ca        1 C23     -0.079300
      6 C22         6.1940    0.1570    1.1840 ca        1 C23     -0.126500
      7 C21         7.3580    0.9220    1.2220 ca        1 C23     -0.128500
      8 C20         8.1670    1.0220    0.0900 ca        1 C23     -0.132000
      9 C19         7.8090    0.3530   -1.0800 ca        1 C23     -0.128500
     10 C18         6.6450   -0.4130   -1.1200 ca        1 C23     -0.126500
     11 C2          0.8450   -0.5220   -0.0510 cc        1 C23     -0.111100
     12 O           0.9900    0.8910   -0.0730 os        1 C23     -0.194200
     13 C3         -0.3020    1.4010   -0.1010 ca        1 C23      0.118100
     14 C13        -1.2570    0.3420   -0.0970 ca        1 C23     -0.165800
     15 C1         -0.4890   -0.8910   -0.0600 cd        1 C23      0.019600
     16 C          -1.0440   -2.2450   -0.0260 c3        1 C23     -0.054900
     17 C7         -2.6250    0.6740   -0.1320 ca        1 C23      0.202100
     18 C6         -2.9850    2.0270   -0.1590 ca        1 C23     -0.244000
     19 C5         -2.0100    3.0350   -0.1600 ca        1 C23     -0.059000
     20 C4         -0.6490    2.7510   -0.1320 ca        1 C23     -0.171000
     21 O1         -3.4940   -0.3900   -0.1390 os        1 C23     -0.321900
     22 C8         -4.9000   -0.1030   -0.2550 c3        1 C23      0.141100
     23 C12        -5.5240   -1.3960   -0.7760 c3        1 C23     -0.094400
     24 C11        -7.0460   -1.2660   -0.8020 c3        1 C23      0.165800
     25 N          -7.6070   -0.8620    0.4720 n3        1 C23     -0.822200
     26 C10        -7.0050    0.3340    1.0270 c3        1 C23      0.165800
     27 C9         -5.4820    0.2580    1.1060 c3        1 C23     -0.094400
     28 H151        3.3390    0.1720   -0.9620 hc        1 C23      0.080700
     29 H152        3.3320    0.2080    0.8430 hc        1 C23      0.080700
     30 H161        4.5590   -2.0110    0.8810 hc        1 C23      0.061700
     31 H162        4.5920   -2.0150   -0.9220 hc        1 C23      0.061700
     32 H22         5.5580    0.0760    2.0780 ha        1 C23      0.131500
     33 H18         6.3690   -0.9410   -2.0450 ha        1 C23      0.131500
     34 H21         7.6380    1.4480    2.1470 ha        1 C23      0.130000
     35 H20         9.0860    1.6260    0.1210 ha        1 C23      0.130000
     36 H19         8.4460    0.4280   -1.9730 ha        1 C23      0.130000
     37 H4          0.1150    3.5380   -0.1340 ha        1 C23      0.155000
     38 HC1        -1.3090   -2.5180    1.0280 hc        1 C23      0.065700
     39 HC2        -1.9780   -2.2960   -0.6420 hc        1 C23      0.065700
     40 HC3        -0.2990   -2.9900   -0.4070 hc        1 C23      0.065700
     41 H6         -4.0430    2.3220   -0.1750 ha        1 C23      0.141000
     42 H5         -2.3390    4.0860   -0.1820 ha        1 C23      0.137000
     43 H8         -5.0650    0.7260   -0.9970 h1        1 C23      0.051700
     44 H121       -5.1540   -1.6070   -1.8100 hc        1 C23      0.064200
     45 H122       -5.2140   -2.2470   -0.1170 hc        1 C23      0.064200
     46 H91C       -5.1700   -0.5170    1.8540 hc        1 C23      0.064200
     47 H92C       -5.0830    1.2450    1.4500 hc        1 C23      0.064200
     48 H111       -7.3220   -0.5510   -1.6330 h1        1 C23      0.030950
     49 H112       -7.4870   -2.2710   -1.0580 h1        1 C23      0.030950
     50 H          -8.5990   -0.7410    0.3880 hn        1 C23      0.367800
     51 H101       -7.2790    1.2600    0.4370 h1        1 C23      0.030950
     52 H102       -7.4150    0.4620    2.0680 h1        1 C23      0.030950
@<TRIPOS>BOND
     1    1    2 2   
     2    2    3 1   
     3    2   11 1   
     4    3    4 1   
     5    3   28 1   
     6    3   29 1   
     7    4    5 1   
     8    4   30 1   
     9    4   31 1   
    10    5    6 ar  
    11    5   10 ar  
    12    6    7 ar  
    13    6   32 1   
    14    7    8 ar  
    15    7   34 1   
    16    8    9 ar  
    17    8   35 1   
    18    9   10 ar  
    19    9   36 1   
    20   10   33 1   
    21   11   12 1   
    22   11   15 2   
    23   12   13 1   
    24   13   14 ar  
    25   13   20 ar  
    26   14   15 1   
    27   14   17 ar  
    28   15   16 1   
    29   16   38 1   
    30   16   39 1   
    31   16   40 1   
    32   17   18 ar  
    33   17   21 1   
    34   18   19 ar  
    35   18   41 1   
    36   19   20 ar  
    37   19   42 1   
    38   20   37 1   
    39   21   22 1   
    40   22   23 1   
    41   22   27 1   
    42   22   43 1   
    43   23   24 1   
    44   23   44 1   
    45   23   45 1   
    46   24   25 1   
    47   24   48 1   
    48   24   49 1   
    49   25   26 1   
    50   25   50 1   
    51   26   27 1   
    52   26   51 1   
    53   26   52 1   
    54   27   46 1   
    55   27   47 1   
@<TRIPOS>SUBSTRUCTURE
     1 C23         1 TEMP              0 ****  ****    0 ROOT
