@<TRIPOS>MOLECULE
C23
   52    47     1     0     0
SMALL
bcc


@<TRIPOS>ATOM
      1 O2         -2.0590    0.7160    2.5100 o         1 C23     -0.295000
      2 C14        -0.8830    0.3380    2.4310 c1        1 C23      0.300000
      3 C15        -0.1200   -0.1350    3.7220 c2        1 C23     -0.196000
      4 C16        -1.0550   -0.0500    4.9200 c3        1 C23     -0.119000
      5 C17        -0.3010   -0.5240    6.2050 c2        1 C23     -0.072000
      6 C22         0.3040    0.4120    7.0460 c1        1 C23     -0.125000
      7 C21         0.9280   -0.0050    8.2160 c1        1 C23     -0.141000
      8 C20         0.9500   -1.3620    8.5500 c1        1 C23     -0.141000
      9 C19         0.3460   -2.2960    7.7090 c1        1 C23     -0.128000
     10 C18        -0.2780   -1.8780    6.5390 c2        1 C23     -0.128000
     11 C2         -0.1730    0.3180    1.0670 c2        1 C23     -0.136000
     12 O           1.1960    0.2730    1.1340 os        1 C23     -0.105000
     13 C3          1.6890    0.2180   -0.1650 c1        1 C23      0.073000
     14 C13         0.6210    0.2290   -1.0250 c1        1 C23     -0.154000
     15 C1         -0.5370    0.2910   -0.2680 c1        1 C23      0.012000
     16 C          -2.0490    0.2610   -0.4680 c2        1 C23     -0.177000
     17 C7          0.8400    0.3220   -2.4180 c1        1 C23      0.157000
     18 C6          2.1270    0.4020   -2.9110 c1        1 C23     -0.141000
     19 C5          3.2140    0.3900   -2.0330 c1        1 C23     -0.141000
     20 C4          3.0030    0.2990   -0.6710 c1        1 C23     -0.171000
     21 O1         -0.2950    0.7700   -3.1580 os        1 C23     -0.205000
     22 C8         -0.1380    0.4110   -4.5650 c3        1 C23      0.030000
     23 C12        -1.1460   -0.6480   -4.9100 c3        1 C23     -0.173000
     24 C11        -1.1870   -0.9420   -6.4030 c3        1 C23     -0.071000
     25 N          -1.3410    0.2670   -7.2070 n3        1 C23     -0.301000
     26 C10        -0.3480    1.3160   -6.8720 c3        1 C23     -0.071000
     27 C9         -0.3020    1.6230   -5.3850 c3        1 C23     -0.173000
     28 H151        0.1800   -1.0590    3.6050 ha        1 C23      0.119500
     29 H152        0.6960    0.4730    3.8810 ha        1 C23      0.119500
     30 H161       -1.3540    0.8880    5.0360 hc        1 C23      0.101000
     31 H162       -1.8710   -0.6530    4.7620 hc        1 C23      0.101000
     32 H22         0.2890    1.3650    6.8120 ha        1 C23      0.132000
     33 H18        -0.6840   -2.5070    5.9730 ha        1 C23      0.131000
     34 H21         1.3460    0.6440    8.7980 ha        1 C23      0.134750
     35 H20         1.4000   -1.6630    9.3940 ha        1 C23      0.134750
     36 H19         0.3620   -3.2660    7.9490 ha        1 C23      0.130000
     37 H4          3.7400    0.2920   -0.0790 ha        1 C23      0.155000
     38 HC1        -2.2540    0.0000   -1.4000 ha        1 C23      0.105000
     39 HC2        -2.4110    1.1320   -0.2930 ha        1 C23      0.105000
     40 HC3        -2.4600   -0.4090    0.1670 ha        1 C23      0.105000
     41 H6          2.2740    0.4640   -3.8440 ha        1 C23      0.134750
     42 H5          4.1490    0.4480   -2.3920 ha        1 C23      0.134750
     43 H8          0.7570    0.0560   -4.7020 h1        1 C23      0.091000
     44 H121       -0.9130   -1.4740   -4.4300 hc        1 C23      0.103500
     45 H122       -2.0180   -0.3570   -4.6250 hc        1 C23      0.103500
     46 H91C       -1.1520    2.0790   -5.1260 hc        1 C23      0.103500
     47 H92C        0.4720    2.2470   -5.2060 hc        1 C23      0.103500
     48 H111       -0.3420   -1.3970   -6.6620 h1        1 C23      0.070250
     49 H112       -1.9300   -1.5330   -6.5870 h1        1 C23      0.070250
     50 H          -1.2740    0.0600   -8.0780 hn        1 C23      0.163000
     51 H101       -0.5830    2.1510   -7.3680 h1        1 C23      0.070250
     52 H102        0.5780    1.0020   -7.1720 h1        1 C23      0.070250
@<TRIPOS>BOND
     1    1    2 1   
     2    2   11 1   
     3    3    4 1   
     4    3   28 1   
     5    3   29 1   
     6    4    5 1   
     7    4   30 1   
     8    4   31 1   
     9    5    6 1   
    10    5   10 1   
    11    6   32 1   
    12    7    8 1   
    13    7   34 1   
    14    8   35 1   
    15    9   10 1   
    16    9   36 1   
    17   10   33 1   
    18   11   12 1   
    19   11   15 1   
    20   12   13 1   
    21   13   20 1   
    22   14   17 1   
    23   16   38 1   
    24   16   39 1   
    25   16   40 1   
    26   17   21 1   
    27   18   19 1   
    28   18   41 1   
    29   19   42 1   
    30   20   37 1   
    31   21   22 1   
    32   22   23 1   
    33   22   27 1   
    34   22   43 1   
    35   23   24 1   
    36   23   44 1   
    37   23   45 1   
    38   24   25 1   
    39   24   48 1   
    40   24   49 1   
    41   25   26 1   
    42   25   50 1   
    43   26   27 1   
    44   26   51 1   
    45   26   52 1   
    46   27   46 1   
    47   27   47 1   
@<TRIPOS>SUBSTRUCTURE
     1 C23         1 TEMP              0 ****  ****    0 ROOT
