@<TRIPOS>MOLECULE
C23
   52    55     1     0     0
SMALL
bcc


@<TRIPOS>ATOM
      1 O2         -0.4350    0.0520    0.1110 o         1 C23     -0.534100
      2 C14         0.8010    0.0260    0.0510 c         1 C23      0.608300
      3 C15         1.6900    0.0520    1.2590 c3        1 C23     -0.167400
      4 C16         0.9020    0.1040    2.5530 c3        1 C23     -0.033100
      5 C17         1.8020    0.0850    3.7390 ca        1 C23     -0.079300
      6 C22         1.9950    1.2420    4.5020 ca        1 C23     -0.126500
      7 C21         2.8300    1.2160    5.6190 ca        1 C23     -0.128500
      8 C20         3.4770    0.0350    5.9820 ca        1 C23     -0.132000
      9 C19         3.2870   -1.1210    5.2260 ca        1 C23     -0.128500
     10 C18         2.4530   -1.0980    4.1100 ca        1 C23     -0.126500
     11 C2          1.4940   -0.0300   -1.2350 cc        1 C23     -0.111100
     12 O           2.9130   -0.0600   -1.1750 os        1 C23     -0.194200
     13 C3          3.3440   -0.0920   -2.4950 ca        1 C23      0.117100
     14 C13         2.2290   -0.0850   -3.3850 ca        1 C23     -0.165800
     15 C1          1.0450   -0.0470   -2.5430 cd        1 C23      0.019600
     16 C          -0.3400   -0.0410   -3.0150 c3        1 C23     -0.054900
     17 C7          2.4790   -0.1050   -4.7700 ca        1 C23      0.202100
     18 C6          3.8070   -0.1350   -5.2110 ca        1 C23     -0.244000
     19 C5          4.8720   -0.1490   -4.2990 ca        1 C23     -0.060000
     20 C4          4.6700   -0.1270   -2.9230 ca        1 C23     -0.171000
     21 O1          1.3650   -0.0850   -5.5750 os        1 C23     -0.321900
     22 C8          1.5650   -0.2090   -6.9950 c3        1 C23      0.141100
     23 C12         0.2320   -0.7180   -7.5390 c3        1 C23     -0.094400
     24 C11         0.2690   -0.7480   -9.0650 c3        1 C23      0.165800
     25 N           0.6510    0.5210   -9.6530 n7        1 C23     -0.822200
     26 C10         1.8870    1.0650   -9.1260 c3        1 C23      0.165800
     27 C9          1.9030    1.1470   -7.6010 c3        1 C23     -0.094400
     28 H151        2.3440   -0.8610    1.2370 hc        1 C23      0.080700
     29 H152        2.3690    0.9440    1.1770 hc        1 C23      0.080700
     30 H161        0.2030   -0.7760    2.5950 hc        1 C23      0.061700
     31 H162        0.2630    1.0270    2.5590 hc        1 C23      0.061700
     32 H22         1.4850    2.1750    4.2210 ha        1 C23      0.131500
     33 H18         2.3020   -2.0110    3.5160 ha        1 C23      0.131500
     34 H21         2.9760    2.1290    6.2140 ha        1 C23      0.130500
     35 H20         4.1340    0.0160    6.8640 ha        1 C23      0.130000
     36 H19         3.7950   -2.0540    5.5110 ha        1 C23      0.130500
     37 H4          5.5020   -0.1350   -2.2080 ha        1 C23      0.155000
     38 HC1        -0.4240    0.5480   -3.9630 hc        1 C23      0.065367
     39 HC2        -0.6730   -1.0890   -3.2280 hc        1 C23      0.065367
     40 HC3        -1.0220    0.3930   -2.2400 hc        1 C23      0.065367
     41 H6          4.0380   -0.1430   -6.2850 ha        1 C23      0.141000
     42 H5          5.9010   -0.1750   -4.6900 ha        1 C23      0.137000
     43 H8          2.3750   -0.9590   -7.2070 h1        1 C23      0.051700
     44 H121       -0.5930   -0.0500   -7.1790 hc        1 C23      0.064200
     45 H122        0.0330   -1.7490   -7.1540 hc        1 C23      0.064200
     46 H91C        1.1560    1.9040   -7.2450 hc        1 C23      0.064200
     47 H92C        2.9160    1.4830   -7.2630 hc        1 C23      0.064200
     48 H111       -0.7630   -0.9940   -9.4440 h1        1 C23      0.030950
     49 H112        0.9570   -1.5870   -9.3830 h1        1 C23      0.030950
     50 H           0.7110    0.4340  -10.6500 hn        1 C23      0.367800
     51 H101        2.0000    2.1040   -9.5460 h1        1 C23      0.030950
     52 H102        2.7880    0.4650   -9.4540 h1        1 C23      0.030950
@<TRIPOS>BOND
     1    1    2 2   
     2    2    3 1   
     3    2   11 1   
     4    3    4 1   
     5    3   28 1   
     6    3   29 1   
     7    4    5 1   
     8    4   30 1   
     9    4   31 1   
    10    5    6 ar  
    11    5   10 ar  
    12    6    7 ar  
    13    6   32 1   
    14    7    8 ar  
    15    7   34 1   
    16    8    9 ar  
    17    8   35 1   
    18    9   10 ar  
    19    9   36 1   
    20   10   33 1   
    21   11   12 1   
    22   11   15 2   
    23   12   13 1   
    24   13   14 ar  
    25   13   20 ar  
    26   14   15 1   
    27   14   17 ar  
    28   15   16 1   
    29   16   38 1   
    30   16   39 1   
    31   16   40 1   
    32   17   18 ar  
    33   17   21 1   
    34   18   19 ar  
    35   18   41 1   
    36   19   20 ar  
    37   19   42 1   
    38   20   37 1   
    39   21   22 1   
    40   22   23 1   
    41   22   27 1   
    42   22   43 1   
    43   23   24 1   
    44   23   44 1   
    45   23   45 1   
    46   24   25 1   
    47   24   48 1   
    48   24   49 1   
    49   25   26 1   
    50   25   50 1   
    51   26   27 1   
    52   26   51 1   
    53   26   52 1   
    54   27   46 1   
    55   27   47 1   
@<TRIPOS>SUBSTRUCTURE
     1 C23         1 TEMP              0 ****  ****    0 ROOT
