@<TRIPOS>MOLECULE
C23
   52    55     1     0     0
SMALL
bcc


@<TRIPOS>ATOM
      1 O2         -0.4330    0.0420    0.1130 o         1 C23     -0.534100
      2 C14         0.8030    0.0190    0.0520 c         1 C23      0.608300
      3 C15         1.6930    0.0470    1.2600 c3        1 C23     -0.167400
      4 C16         0.9070    0.0920    2.5540 c3        1 C23     -0.033100
      5 C17         1.8070    0.0760    3.7390 ca        1 C23     -0.079300
      6 C22         1.9940    1.2310    4.5060 ca        1 C23     -0.126500
      7 C21         2.8290    1.2080    5.6220 ca        1 C23     -0.128500
      8 C20         3.4840    0.0300    5.9810 ca        1 C23     -0.132000
      9 C19         3.3010   -1.1250    5.2210 ca        1 C23     -0.128500
     10 C18         2.4670   -1.1040    4.1060 ca        1 C23     -0.126500
     11 C2          1.4960   -0.0330   -1.2340 cc        1 C23     -0.111100
     12 O           2.9140   -0.0600   -1.1760 os        1 C23     -0.194200
     13 C3          3.3450   -0.0900   -2.4960 ca        1 C23      0.117100
     14 C13         2.2280   -0.0840   -3.3850 ca        1 C23     -0.165800
     15 C1          1.0450   -0.0500   -2.5420 cd        1 C23      0.019600
     16 C          -0.3410   -0.0450   -3.0130 c3        1 C23     -0.054900
     17 C7          2.4770   -0.1010   -4.7710 ca        1 C23      0.202100
     18 C6          3.8050   -0.1280   -5.2130 ca        1 C23     -0.244000
     19 C5          4.8700   -0.1410   -4.3020 ca        1 C23     -0.060000
     20 C4          4.6700   -0.1210   -2.9250 ca        1 C23     -0.171000
     21 O1          1.3630   -0.0830   -5.5740 os        1 C23     -0.321900
     22 C8          1.5620   -0.2030   -6.9950 c3        1 C23      0.141100
     23 C12         0.2290   -0.7140   -7.5380 c3        1 C23     -0.094400
     24 C11         0.2650   -0.7410   -9.0650 c3        1 C23      0.165800
     25 N           0.6440    0.5290   -9.6500 n3        1 C23     -0.822200
     26 C10         1.8790    1.0750   -9.1240 c3        1 C23      0.165800
     27 C9          1.8970    1.1550   -7.5990 c3        1 C23     -0.094400
     28 H151        2.3510   -0.8640    1.2340 hc        1 C23      0.080700
     29 H152        2.3680    0.9410    1.1790 hc        1 C23      0.080700
     30 H161        0.2630    1.0120    2.5630 hc        1 C23      0.061700
     31 H162        0.2120   -0.7910    2.5950 hc        1 C23      0.061700
     32 H22         1.4770    2.1620    4.2280 ha        1 C23      0.131500
     33 H18         2.3210   -2.0160    3.5090 ha        1 C23      0.131500
     34 H21         2.9700    2.1200    6.2200 ha        1 C23      0.130500
     35 H20         4.1430    0.0130    6.8620 ha        1 C23      0.130000
     36 H19         3.8160   -2.0560    5.5030 ha        1 C23      0.130500
     37 H4          5.5020   -0.1290   -2.2110 ha        1 C23      0.155000
     38 HC1        -0.4260    0.5450   -3.9610 hc        1 C23      0.065367
     39 HC2        -0.6710   -1.0950   -3.2280 hc        1 C23      0.065367
     40 HC3        -1.0230    0.3860   -2.2370 hc        1 C23      0.065367
     41 H6          4.0350   -0.1340   -6.2870 ha        1 C23      0.141000
     42 H5          5.8990   -0.1640   -4.6940 ha        1 C23      0.137000
     43 H8          2.3730   -0.9520   -7.2100 h1        1 C23      0.051700
     44 H121        0.0330   -1.7470   -7.1550 hc        1 C23      0.064200
     45 H122       -0.5970   -0.0490   -7.1770 hc        1 C23      0.064200
     46 H91C        1.1480    1.9090   -7.2410 hc        1 C23      0.064200
     47 H92C        2.9090    1.4910   -7.2610 hc        1 C23      0.064200
     48 H111        0.9550   -1.5780   -9.3850 h1        1 C23      0.030950
     49 H112       -0.7670   -0.9890   -9.4440 h1        1 C23      0.030950
     50 H           0.7030    0.4450  -10.6480 hn        1 C23      0.367800
     51 H101        2.7810    0.4770   -9.4540 h1        1 C23      0.030950
     52 H102        1.9900    2.1150   -9.5420 h1        1 C23      0.030950
@<TRIPOS>BOND
     1    1    2 2   
     2    2    3 1   
     3    2   11 1   
     4    3    4 1   
     5    3   28 1   
     6    3   29 1   
     7    4    5 1   
     8    4   30 1   
     9    4   31 1   
    10    5    6 ar  
    11    5   10 ar  
    12    6    7 ar  
    13    6   32 1   
    14    7    8 ar  
    15    7   34 1   
    16    8    9 ar  
    17    8   35 1   
    18    9   10 ar  
    19    9   36 1   
    20   10   33 1   
    21   11   12 1   
    22   11   15 2   
    23   12   13 1   
    24   13   14 ar  
    25   13   20 ar  
    26   14   15 1   
    27   14   17 ar  
    28   15   16 1   
    29   16   38 1   
    30   16   39 1   
    31   16   40 1   
    32   17   18 ar  
    33   17   21 1   
    34   18   19 ar  
    35   18   41 1   
    36   19   20 ar  
    37   19   42 1   
    38   20   37 1   
    39   21   22 1   
    40   22   23 1   
    41   22   27 1   
    42   22   43 1   
    43   23   24 1   
    44   23   44 1   
    45   23   45 1   
    46   24   25 1   
    47   24   48 1   
    48   24   49 1   
    49   25   26 1   
    50   25   50 1   
    51   26   27 1   
    52   26   51 1   
    53   26   52 1   
    54   27   46 1   
    55   27   47 1   
@<TRIPOS>SUBSTRUCTURE
     1 C23         1 TEMP              0 ****  ****    0 ROOT
