@<TRIPOS>MOLECULE
C24
   66    69     1     0     0
SMALL
bcc


@<TRIPOS>ATOM
      1 C2         -0.1150    0.2370   -6.2900 ca        1 C24      0.148600
      2 N10         0.2400    0.6170   -4.9840 nh        1 C24     -0.732600
      3 C11        -0.7660    0.4860   -3.9510 c3        1 C24      0.170500
      4 C12        -0.1840    0.6690   -2.5720 cc        1 C24      0.390800
      5 N16        -0.2370   -0.2470   -1.5840 nd        1 C24     -0.551100
      6 C15         0.3950    0.3540   -0.4790 ca        1 C24      0.047400
      7 C18         0.6270   -0.1260    0.8170 ca        1 C24     -0.024000
      8 C19         1.2940    0.7030    1.7120 ca        1 C24     -0.148600
      9 C40         1.6240    0.2460    3.0880 c         1 C24      0.687700
     10 O21         2.7380    0.4680    3.5970 o         1 C24     -0.583100
     11 N22         0.6820   -0.5350    3.7940 n         1 C24     -0.457300
     12 C23        -0.7180   -0.3220    3.5900 ca        1 C24      0.497200
     13 C24        -1.5730   -1.4560    3.5150 ca        1 C24     -0.237300
     14 C25        -2.9380   -1.2550    3.3090 ca        1 C24     -0.083000
     15 C26        -3.4270    0.0430    3.1810 ca        1 C24     -0.251300
     16 C27        -2.5120    1.1090    3.2700 ca        1 C24      0.413200
     17 N28        -1.1960    0.9560    3.4760 nb        1 C24     -0.685000
     18 C29         1.0570   -1.0510    5.0960 c3        1 C24      0.090000
     19 C30         1.1010   -0.0120    6.2200 c3        1 C24     -0.163400
     20 C31         1.2690   -0.6930    7.5400 c         1 C24      0.638100
     21 O32         1.0400   -1.8670    7.8430 o         1 C24     -0.553000
     22 O33         1.7240    0.1510    8.5120 os        1 C24     -0.439900
     23 C34         1.9050   -0.4150    9.8230 c3        1 C24      0.138400
     24 C35         2.4190    0.7020   10.6980 c3        1 C24     -0.100100
     25 C20         1.7370    1.9940    1.3430 ca        1 C24     -0.059000
     26 C21         1.5180    2.5030    0.0750 ca        1 C24     -0.143000
     27 C14         0.8450    1.6870   -0.8460 ca        1 C24     -0.051200
     28 N13         0.4620    1.8710   -2.1780 na        1 C24     -0.153300
     29 C17         0.7270    3.0090   -2.9920 c3        1 C24      0.032600
     30 C3          0.9040   -0.0600   -7.2290 ca        1 C24     -0.192000
     31 C4          0.5870   -0.3370   -8.5520 ca        1 C24     -0.064000
     32 C5         -0.7470   -0.3490   -8.9740 ca        1 C24     -0.179900
     33 C7         -1.0740   -0.6530  -10.4020 ce        1 C24      0.655800
     34 N9         -0.4260   -0.0230  -11.3350 n2        1 C24     -0.828100
     35 N8         -2.1350   -1.5720  -10.5720 nh        1 C24     -0.958800
     36 C6         -1.7610   -0.0610   -8.0590 ca        1 C24     -0.064000
     37 C1         -1.4570    0.2240   -6.7320 ca        1 C24     -0.192000
     38 H10N        1.1370    0.2700   -4.7080 hn        1 C24      0.403800
     39 H111       -1.2920   -0.5140   -3.9910 h1        1 C24      0.069700
     40 H112       -1.5420    1.2910   -4.1170 h1        1 C24      0.069700
     41 H18         0.2900   -1.1340    1.1020 ha        1 C24      0.158000
     42 H24        -1.1660   -2.4720    3.6150 ha        1 C24      0.156000
     43 H25        -3.6160   -2.1180    3.2460 ha        1 C24      0.144000
     44 H26        -4.4940    0.2390    3.0130 ha        1 C24      0.148000
     45 H27        -2.8530    2.1560    3.1760 h4        1 C24      0.026100
     46 H291        2.0830   -1.5080    4.9910 h1        1 C24      0.079200
     47 H292        0.3300   -1.8660    5.3750 h1        1 C24      0.079200
     48 H301        0.1530    0.5870    6.2580 hc        1 C24      0.096700
     49 H302        1.9520    0.7020    6.0500 hc        1 C24      0.096700
     50 H341        2.6360   -1.2630    9.7510 h1        1 C24      0.051200
     51 H342        0.9190   -0.8110   10.1820 h1        1 C24      0.051200
     52 H351        2.5790    0.3100   11.7310 hc        1 C24      0.047700
     53 H352        3.3850    1.0970   10.3020 hc        1 C24      0.047700
     54 H353        1.6850    1.5420   10.7340 hc        1 C24      0.047700
     55 H20         2.2770    2.5960    2.0910 ha        1 C24      0.154000
     56 H21         1.8620    3.5090   -0.2020 ha        1 C24      0.142000
     57 H171        1.6540    2.8450   -3.6060 h1        1 C24      0.057700
     58 H172       -0.1370    3.1860   -3.6880 h1        1 C24      0.057700
     59 H173        0.8730    3.9100   -2.3390 h1        1 C24      0.057700
     60 H3          1.9600   -0.0590   -6.9190 ha        1 C24      0.136000
     61 H4          1.3940   -0.5430   -9.2730 ha        1 C24      0.147000
     62 HN9        -0.6660   -0.2520  -12.2770 hn        1 C24      0.381400
     63 HN81       -2.1840   -2.0390  -11.4470 hn        1 C24      0.396800
     64 HN82       -2.3210   -2.1550   -9.7890 hn        1 C24      0.396800
     65 H6         -2.8140   -0.0450   -8.3830 ha        1 C24      0.147000
     66 H1         -2.2790    0.4500   -6.0360 ha        1 C24      0.136000
@<TRIPOS>BOND
     1    1    2 1   
     2    1   30 ar  
     3    1   37 ar  
     4    2    3 1   
     5    2   38 1   
     6    3    4 1   
     7    3   39 1   
     8    3   40 1   
     9    4    5 2   
    10    4   28 1   
    11    5    6 1   
    12    6    7 ar  
    13    6   27 ar  
    14    7    8 ar  
    15    7   41 1   
    16    8    9 1   
    17    8   25 ar  
    18    9   10 2   
    19    9   11 1   
    20   11   12 1   
    21   11   18 1   
    22   12   13 ar  
    23   12   17 ar  
    24   13   14 ar  
    25   13   42 1   
    26   14   15 ar  
    27   14   43 1   
    28   15   16 ar  
    29   15   44 1   
    30   16   17 ar  
    31   16   45 1   
    32   18   19 1   
    33   18   46 1   
    34   18   47 1   
    35   19   20 1   
    36   19   48 1   
    37   19   49 1   
    38   20   21 2   
    39   20   22 1   
    40   22   23 1   
    41   23   24 1   
    42   23   50 1   
    43   23   51 1   
    44   24   52 1   
    45   24   53 1   
    46   24   54 1   
    47   25   26 ar  
    48   25   55 1   
    49   26   27 ar  
    50   26   56 1   
    51   27   28 1   
    52   28   29 1   
    53   29   57 1   
    54   29   58 1   
    55   29   59 1   
    56   30   31 ar  
    57   30   60 1   
    58   31   32 ar  
    59   31   61 1   
    60   32   33 1   
    61   32   36 ar  
    62   33   34 2   
    63   33   35 1   
    64   34   62 1   
    65   35   63 1   
    66   35   64 1   
    67   36   37 ar  
    68   36   65 1   
    69   37   66 1   
@<TRIPOS>SUBSTRUCTURE
     1 C24         1 TEMP              0 ****  ****    0 ROOT
