@<TRIPOS>MOLECULE
C24
   67    70     1     0     0
SMALL
bcc


@<TRIPOS>ATOM
      1 C2         -0.2550   -1.2580    0.0330 ca        1 C24      0.242600
      2 N10        -0.2770   -2.6150   -0.2450 nu        1 C24     -0.722600
      3 C11        -1.4040   -3.2580   -0.8650 c3        1 C24      0.189500
      4 C12        -1.6130   -2.8790   -2.3130 cc        1 C24      0.349800
      5 N16        -1.7900   -1.6100   -2.7390 nd        1 C24     -0.574100
      6 C15        -1.9340   -1.6960   -4.1350 ca        1 C24      0.050400
      7 C18        -2.1360   -0.7010   -5.1010 ca        1 C24     -0.039000
      8 C19        -2.2170   -1.0910   -6.4310 ca        1 C24     -0.134600
      9 C40        -2.3370   -0.0400   -7.4840 c         1 C24      0.681700
     10 O21        -1.3330    0.4020   -8.0700 o         1 C24     -0.570100
     11 N22        -3.5970    0.5370   -7.7190 n         1 C24     -0.456300
     12 C23        -4.7970   -0.2040   -7.4760 ca        1 C24      0.499200
     13 C24        -5.9000    0.4670   -6.8790 ca        1 C24     -0.237300
     14 C25        -7.0740   -0.2480   -6.6490 ca        1 C24     -0.082000
     15 C26        -7.1390   -1.5950   -7.0020 ca        1 C24     -0.247300
     16 C27        -6.0000   -2.1810   -7.5850 ca        1 C24      0.414200
     17 N28        -4.8560   -1.5250   -7.8290 nb        1 C24     -0.693000
     18 C29        -3.6960    1.6030   -8.6980 c3        1 C24      0.090000
     19 C30        -3.6090    1.1570  -10.1590 c3        1 C24     -0.162400
     20 C31        -3.8580    2.3270  -11.0580 c         1 C24      0.637100
     21 O32        -4.1860    3.4770  -10.7530 o         1 C24     -0.552000
     22 O33        -3.6910    2.0200  -12.3760 os        1 C24     -0.437900
     23 C34        -3.9110    3.0870  -13.3190 c3        1 C24      0.139400
     24 C35        -3.6660    2.4980  -14.6860 c3        1 C24     -0.101100
     25 C20        -2.1130   -2.4420   -6.8240 ca        1 C24     -0.049000
     26 C21        -1.9270   -3.4530   -5.8950 ca        1 C24     -0.136000
     27 C14        -1.8340   -3.0860   -4.5450 ca        1 C24     -0.050200
     28 N13        -1.6230   -3.8210   -3.3710 na        1 C24     -0.150300
     29 C17        -1.5390   -5.2390   -3.2530 c3        1 C24      0.024600
     30 C3          0.9950   -0.6190    0.2850 ca        1 C24     -0.180000
     31 C4          1.0480    0.7210    0.6200 ca        1 C24     -0.046000
     32 C5         -0.1300    1.4750    0.7180 ca        1 C24     -0.345900
     33 C7         -0.0740    2.9010    1.0650 ce        1 C24      0.612800
     34 N9         -0.3870    3.5510    2.1180 n2        1 C24     -0.724100
     35 N8          0.4520    3.7150   -0.0970 nz        1 C24     -0.829600
     36 C6         -1.3700    0.8600    0.4930 ca        1 C24     -0.046000
     37 C1         -1.4380   -0.4800    0.1550 ca        1 C24     -0.180000
     38 H10N        0.6090   -3.0090   -0.4870 hn        1 C24      0.428800
     39 H111       -1.2380   -4.3720   -0.7800 h1        1 C24      0.086200
     40 H112       -2.3450   -3.0020   -0.2960 h1        1 C24      0.086200
     41 H18        -2.2200    0.3550   -4.8080 ha        1 C24      0.149000
     42 H24        -5.8310    1.5290   -6.6070 ha        1 C24      0.153000
     43 H25        -7.9410    0.2530   -6.1910 ha        1 C24      0.147000
     44 H26        -8.0480   -2.1870   -6.8380 ha        1 C24      0.153000
     45 H27        -6.0050   -3.2450   -7.8880 h4        1 C24      0.029100
     46 H291       -4.6720    2.1440   -8.5350 h1        1 C24      0.079200
     47 H292       -2.8530    2.3260   -8.4960 h1        1 C24      0.079200
     48 H301       -2.5910    0.7360  -10.3770 hc        1 C24      0.096200
     49 H302       -4.3670    0.3620  -10.3900 hc        1 C24      0.096200
     50 H341       -4.9630    3.4570  -13.2020 h1        1 C24      0.052700
     51 H342       -3.2000    3.9220  -13.0860 h1        1 C24      0.052700
     52 H351       -4.3680    1.6530  -14.8820 hc        1 C24      0.050700
     53 H352       -2.6210    2.1110  -14.7650 hc        1 C24      0.050700
     54 H353       -3.8220    3.2910  -15.4560 hc        1 C24      0.050700
     55 H20        -2.1880   -2.6930   -7.8960 ha        1 C24      0.162000
     56 H21        -1.8510   -4.5030   -6.2100 ha        1 C24      0.147000
     57 H171       -1.5980   -5.7040   -4.2740 h1        1 C24      0.060033
     58 H172       -0.5630   -5.5290   -2.7760 h1        1 C24      0.060033
     59 H173       -2.3840   -5.6310   -2.6240 h1        1 C24      0.060033
     60 H3          1.9330   -1.1930    0.2160 ha        1 C24      0.162000
     61 H4          2.0250    1.1880    0.8220 ha        1 C24      0.139500
     62 HN9        -0.7280    3.0380    2.9050 hn        1 C24      0.486400
     63 HN81        0.5690    4.7070    0.1380 hn        1 C24      0.466133
     64 HN82        1.3530    3.3150   -0.3780 hn        1 C24      0.466133
     65 H6         -2.3010    1.4420    0.5800 ha        1 C24      0.139500
     66 H1         -2.4240   -0.9280   -0.0450 ha        1 C24      0.162000
     67 H83        -0.2100    3.6220   -0.8740 hn        1 C24      0.466133
@<TRIPOS>BOND
     1    1    2 1   
     2    1   30 ar  
     3    1   37 ar  
     4    2    3 1   
     5    2   38 1   
     6    3    4 1   
     7    3   39 1   
     8    3   40 1   
     9    4    5 2   
    10    4   28 1   
    11    5    6 1   
    12    6    7 ar  
    13    6   27 ar  
    14    7    8 ar  
    15    7   41 1   
    16    8    9 1   
    17    8   25 ar  
    18    9   10 2   
    19    9   11 1   
    20   11   12 1   
    21   11   18 1   
    22   12   13 ar  
    23   12   17 ar  
    24   13   14 ar  
    25   13   42 1   
    26   14   15 ar  
    27   14   43 1   
    28   15   16 ar  
    29   15   44 1   
    30   16   17 ar  
    31   16   45 1   
    32   18   19 1   
    33   18   46 1   
    34   18   47 1   
    35   19   20 1   
    36   19   48 1   
    37   19   49 1   
    38   20   21 2   
    39   20   22 1   
    40   22   23 1   
    41   23   24 1   
    42   23   50 1   
    43   23   51 1   
    44   24   52 1   
    45   24   53 1   
    46   24   54 1   
    47   25   26 ar  
    48   25   55 1   
    49   26   27 ar  
    50   26   56 1   
    51   27   28 1   
    52   28   29 1   
    53   29   57 1   
    54   29   58 1   
    55   29   59 1   
    56   30   31 ar  
    57   30   60 1   
    58   31   32 ar  
    59   31   61 1   
    60   32   33 1   
    61   32   36 ar  
    62   33   34 2   
    63   33   35 1   
    64   34   62 1   
    65   35   63 1   
    66   35   64 1   
    67   35   67 1   
    68   36   37 ar  
    69   36   65 1   
    70   37   66 1   
@<TRIPOS>SUBSTRUCTURE
     1 C24         1 TEMP              0 ****  ****    0 ROOT
