@<TRIPOS>MOLECULE
C24
   67    70     1     0     0
SMALL
bcc


@<TRIPOS>ATOM
      1 C2         -0.3910   -1.2990    0.0750 ca        1 C24      0.242600
      2 N10        -0.4780   -2.6570   -0.1850 nh        1 C24     -0.722600
      3 C11        -1.6270   -3.2500   -0.8140 c3        1 C24      0.189500
      4 C12        -1.7960   -2.8810   -2.2700 cc        1 C24      0.349800
      5 N16        -1.8960   -1.6110   -2.7150 nd        1 C24     -0.574100
      6 C15        -2.0270   -1.7090   -4.1120 ca        1 C24      0.050400
      7 C18        -2.1610   -0.7180   -5.0950 ca        1 C24     -0.039000
      8 C19        -2.2470   -1.1230   -6.4200 ca        1 C24     -0.134600
      9 C40        -2.2940   -0.0820   -7.4890 c         1 C24      0.681700
     10 O21        -1.2590    0.2930   -8.0690 o         1 C24     -0.570100
     11 N22        -3.5160    0.5620   -7.7480 n         1 C24     -0.456300
     12 C23        -4.7590   -0.1060   -7.5110 ca        1 C24      0.499200
     13 C24        -5.8300    0.6340   -6.9390 ca        1 C24     -0.237300
     14 C25        -7.0460   -0.0100   -6.7130 ca        1 C24     -0.082000
     15 C26        -7.1820   -1.3560   -7.0480 ca        1 C24     -0.247300
     16 C27        -6.0710   -2.0140   -7.6080 ca        1 C24      0.414200
     17 N28        -4.8880   -1.4270   -7.8450 nb        1 C24     -0.693000
     18 C29        -3.5430    1.6180   -8.7430 c3        1 C24      0.090000
     19 C30        -3.4640    1.1460  -10.1960 c3        1 C24     -0.162400
     20 C31        -3.6350    2.3150  -11.1140 c         1 C24      0.637100
     21 O32        -3.9020    3.4850  -10.8300 o         1 C24     -0.552000
     22 O33        -3.4690    1.9800  -12.4260 os        1 C24     -0.437900
     23 C34        -3.6170    3.0440  -13.3860 c3        1 C24      0.139400
     24 C35        -3.3860    2.4220  -14.7420 c3        1 C24     -0.101100
     25 C20        -2.2130   -2.4830   -6.7930 ca        1 C24     -0.049000
     26 C21        -2.0960   -3.4890   -5.8470 ca        1 C24     -0.136000
     27 C14        -2.0000   -3.1080   -4.5010 ca        1 C24     -0.050200
     28 N13        -1.8450   -3.8370   -3.3140 na        1 C24     -0.150300
     29 C17        -1.8410   -5.2540   -3.1760 c3        1 C24      0.024600
     30 C3          0.8860   -0.7200    0.3390 ca        1 C24     -0.179500
     31 C4          1.0020    0.6200    0.6570 ca        1 C24     -0.046000
     32 C5         -0.1370    1.4340    0.7270 ca        1 C24     -0.345900
     33 C7         -0.0150    2.8590    1.0580 ce        1 C24      0.612800
     34 N9         -0.3100    3.5390    2.0960 n2        1 C24     -0.724100
     35 N8          0.5720    3.6300   -0.1050 n4        1 C24     -0.829600
     36 C6         -1.4030    0.8790    0.4920 ca        1 C24     -0.046000
     37 C1         -1.5340   -0.4600    0.1700 ca        1 C24     -0.179500
     38 H10N        0.3910   -3.0980   -0.4090 hn        1 C24      0.428800
     39 H111       -1.5200   -4.3700   -0.7120 h1        1 C24      0.086200
     40 H112       -2.5620   -2.9390   -0.2630 h1        1 C24      0.086200
     41 H18        -2.1890    0.3450   -4.8170 ha        1 C24      0.149000
     42 H24        -5.7040    1.6950   -6.6810 ha        1 C24      0.153000
     43 H25        -7.8890    0.5460   -6.2750 ha        1 C24      0.147000
     44 H26        -8.1250   -1.8930   -6.8880 ha        1 C24      0.153000
     45 H27        -6.1320   -3.0800   -7.8940 h4        1 C24      0.029100
     46 H291       -2.6630    2.2940   -8.5400 h1        1 C24      0.078700
     47 H292       -4.4880    2.2150   -8.6000 h1        1 C24      0.078700
     48 H301       -4.2620    0.3920  -10.4260 hc        1 C24      0.096200
     49 H302       -2.4680    0.6650  -10.3950 hc        1 C24      0.096200
     50 H341       -4.6490    3.4730  -13.2890 h1        1 C24      0.052700
     51 H342       -2.8640    3.8420  -13.1550 h1        1 C24      0.052700
     52 H351       -3.4890    3.2110  -15.5240 hc        1 C24      0.050700
     53 H352       -4.1310    1.6150  -14.9360 hc        1 C24      0.050700
     54 H353       -2.3640    1.9790  -14.8010 hc        1 C24      0.050700
     55 H20        -2.2890   -2.7450   -7.8610 ha        1 C24      0.162000
     56 H21        -2.0750   -4.5460   -6.1460 ha        1 C24      0.147000
     57 H171       -1.9150   -5.7310   -4.1900 h1        1 C24      0.059700
     58 H172       -0.8890   -5.5910   -2.6830 h1        1 C24      0.059700
     59 H173       -2.7130   -5.5900   -2.5510 h1        1 C24      0.059700
     60 H3          1.7940   -1.3420    0.2920 ha        1 C24      0.162000
     61 H4          1.9990    1.0390    0.8690 ha        1 C24      0.139500
     62 HN9        -0.6900    3.0540    2.8840 hn        1 C24      0.486400
     63 HN81        0.7370    4.6180    0.1190 hn        1 C24      0.466133
     64 HN82       -0.0810    3.5600   -0.8920 hn        1 C24      0.466133
     65 H6         -2.3050    1.5090    0.5570 ha        1 C24      0.139500
     66 H1         -2.5390   -0.8600   -0.0410 ha        1 C24      0.162000
     67 H83         1.4560    3.1810   -0.3650 hn        1 C24      0.466133
@<TRIPOS>BOND
     1    1    2 1   
     2    1   30 ar  
     3    1   37 ar  
     4    2    3 1   
     5    2   38 1   
     6    3    4 1   
     7    3   39 1   
     8    3   40 1   
     9    4    5 2   
    10    4   28 1   
    11    5    6 1   
    12    6    7 ar  
    13    6   27 ar  
    14    7    8 ar  
    15    7   41 1   
    16    8    9 1   
    17    8   25 ar  
    18    9   10 2   
    19    9   11 1   
    20   11   12 1   
    21   11   18 1   
    22   12   13 ar  
    23   12   17 ar  
    24   13   14 ar  
    25   13   42 1   
    26   14   15 ar  
    27   14   43 1   
    28   15   16 ar  
    29   15   44 1   
    30   16   17 ar  
    31   16   45 1   
    32   18   19 1   
    33   18   46 1   
    34   18   47 1   
    35   19   20 1   
    36   19   48 1   
    37   19   49 1   
    38   20   21 2   
    39   20   22 1   
    40   22   23 1   
    41   23   24 1   
    42   23   50 1   
    43   23   51 1   
    44   24   52 1   
    45   24   53 1   
    46   24   54 1   
    47   25   26 ar  
    48   25   55 1   
    49   26   27 ar  
    50   26   56 1   
    51   27   28 1   
    52   28   29 1   
    53   29   57 1   
    54   29   58 1   
    55   29   59 1   
    56   30   31 ar  
    57   30   60 1   
    58   31   32 ar  
    59   31   61 1   
    60   32   33 1   
    61   32   36 ar  
    62   33   34 2   
    63   33   35 1   
    64   34   62 1   
    65   35   63 1   
    66   35   64 1   
    67   35   67 1   
    68   36   37 ar  
    69   36   65 1   
    70   37   66 1   
@<TRIPOS>SUBSTRUCTURE
     1 C24         1 TEMP              0 ****  ****    0 ROOT
