@<TRIPOS>MOLECULE
C24
   69    72     1     0     0
SMALL
bcc


@<TRIPOS>ATOM
      1 C2         -0.2190    0.5720    0.3490 ca        1 C24     -0.009400
      2 N10        -0.9600    0.6010   -0.9170 n4        1 C24     -0.632400
      3 C11        -0.9120   -0.7090   -1.6490 c3        1 C24      0.119500
      4 C12        -1.6880   -0.6490   -2.9360 cc        1 C24      0.323800
      5 N16        -2.2900    0.4610   -3.4220 nd        1 C24     -0.563100
      6 C15        -2.8850    0.0620   -4.6290 ca        1 C24      0.051400
      7 C18        -3.6430    0.7850   -5.5620 ca        1 C24      0.030000
      8 C19        -4.1100    0.1130   -6.6950 ca        1 C24     -0.189600
      9 C40        -4.9060    0.9210   -7.6350 c         1 C24      0.579700
     10 O21        -5.4630    1.9820   -7.3690 o         1 C24     -0.438100
     11 N22        -5.0160    0.4370   -9.0640 n4        1 C24     -0.584900
     12 C23        -6.3440   -0.1990   -9.2810 ca        1 C24      0.439200
     13 C24        -7.5250    0.5540   -9.1170 ca        1 C24     -0.193300
     14 C25        -8.7460   -0.0890   -9.3670 ca        1 C24     -0.072000
     15 C26        -8.7500   -1.4250   -9.7580 ca        1 C24     -0.179300
     16 C27        -7.5110   -2.0970   -9.8790 ca        1 C24      0.430200
     17 N28        -6.3280   -1.5160   -9.6480 nb        1 C24     -0.666000
     18 C29        -4.7910    1.5670  -10.0330 c3        1 C24      0.136800
     19 C30        -4.4790    1.0980  -11.4460 c3        1 C24     -0.168400
     20 C31        -3.2080    0.3010  -11.4970 c         1 C24      0.640100
     21 O32        -2.6990   -0.3100  -10.5420 o         1 C24     -0.608000
     22 O33        -2.6280    0.2790  -12.7090 os        1 C24     -0.395900
     23 C34        -1.4140   -0.5070  -12.8530 c3        1 C24      0.144400
     24 C35        -1.0120   -0.3680  -14.2990 c3        1 C24     -0.110100
     25 C20        -3.8480   -1.2650   -6.8980 ca        1 C24     -0.051000
     26 C21        -3.1060   -2.0060   -5.9960 ca        1 C24     -0.112000
     27 C14        -2.6140   -1.3500   -4.8540 ca        1 C24     -0.008200
     28 N13        -1.8520   -1.7830   -3.7650 na        1 C24     -0.116300
     29 C17        -1.3290   -3.0920   -3.5340 c3        1 C24      0.006600
     30 C3          1.1500    0.8970    0.3650 ca        1 C24     -0.091000
     31 C4          1.8280    0.9560    1.5830 ca        1 C24     -0.067500
     32 C5          1.1510    0.6910    2.7790 ca        1 C24     -0.199900
     33 C7          1.8420    0.8970    4.0800 ce        1 C24      0.556800
     34 N9          1.9690    1.9500    4.7870 n2        1 C24     -0.654100
     35 N8          2.4810   -0.3500    4.6210 n4        1 C24     -0.818600
     36 C6         -0.2030    0.3370    2.7580 ca        1 C24     -0.067500
     37 C1         -0.8940    0.2750    1.5470 ca        1 C24     -0.091000
     38 H10N       -0.5660    1.3400   -1.5240 hn        1 C24      0.485300
     39 H111       -1.3450   -1.5080   -0.9760 hx        1 C24      0.123700
     40 H112        0.1700   -0.9540   -1.8660 hx        1 C24      0.123700
     41 H18        -3.8660    1.8550   -5.4000 ha        1 C24      0.188000
     42 H24        -7.5060    1.6080   -8.7950 ha        1 C24      0.179000
     43 H25        -9.6900    0.4710   -9.2550 ha        1 C24      0.186000
     44 H26        -9.6900   -1.9580   -9.9710 ha        1 C24      0.191000
     45 H27        -7.4650   -3.1630  -10.1830 h4        1 C24      0.067100
     46 H291       -5.7110    2.2190  -10.0410 hx        1 C24      0.112700
     47 H292       -3.9230    2.1670   -9.6330 hx        1 C24      0.112700
     48 H301       -5.3080    0.4690  -11.8720 hc        1 C24      0.128700
     49 H302       -4.3810    2.0100  -12.1020 hc        1 C24      0.128700
     50 H341       -0.6470   -0.0900  -12.1510 h1        1 C24      0.060200
     51 H342       -1.6490   -1.5660  -12.5720 h1        1 C24      0.060200
     52 H351       -0.0770   -0.9580  -14.4670 hc        1 C24      0.066700
     53 H352       -1.8140   -0.7560  -14.9730 hc        1 C24      0.066700
     54 H353       -0.8210    0.7010  -14.5570 hc        1 C24      0.066700
     55 H20        -4.2470   -1.7950   -7.7820 ha        1 C24      0.175000
     56 H21        -2.9120   -3.0760   -6.1700 ha        1 C24      0.177000
     57 H171       -1.6190   -3.7680   -4.3840 h1        1 C24      0.079033
     58 H172       -1.7480   -3.5100   -2.5780 h1        1 C24      0.079033
     59 H173       -0.2070   -3.0520   -3.4660 h1        1 C24      0.079033
     60 H3          1.7020    1.1290   -0.5650 ha        1 C24      0.186500
     61 H4          2.8970    1.2380    1.5860 ha        1 C24      0.187500
     62 HN9         1.5700    2.8190    4.4930 hn        1 C24      0.506400
     63 HN81        3.1820   -0.6850    3.9510 hn        1 C24      0.482133
     64 HN82        2.9450   -0.1730    5.5290 hn        1 C24      0.482133
     65 H6         -0.7500    0.1290    3.6960 ha        1 C24      0.187500
     66 H1         -1.9670    0.0100    1.5580 ha        1 C24      0.186500
     67 H102       -1.9460    0.8460   -0.7300 hn        1 C24      0.485300
     68 H221       -4.2600   -0.2660   -9.2340 hn        1 C24      0.503800
     69 H83         1.7590   -1.0670    4.7520 hn        1 C24      0.482133
@<TRIPOS>BOND
     1    1    2 1   
     2    1   30 ar  
     3    1   37 ar  
     4    2    3 1   
     5    2   38 1   
     6    2   67 1   
     7    3    4 1   
     8    3   39 1   
     9    3   40 1   
    10    4    5 2   
    11    4   28 1   
    12    5    6 1   
    13    6    7 ar  
    14    6   27 ar  
    15    7    8 ar  
    16    7   41 1   
    17    8    9 1   
    18    8   25 ar  
    19    9   10 2   
    20    9   11 1   
    21   11   12 1   
    22   11   18 1   
    23   11   68 1   
    24   12   13 ar  
    25   12   17 ar  
    26   13   14 ar  
    27   13   42 1   
    28   14   15 ar  
    29   14   43 1   
    30   15   16 ar  
    31   15   44 1   
    32   16   17 ar  
    33   16   45 1   
    34   18   19 1   
    35   18   46 1   
    36   18   47 1   
    37   19   20 1   
    38   19   48 1   
    39   19   49 1   
    40   20   21 2   
    41   20   22 1   
    42   22   23 1   
    43   23   24 1   
    44   23   50 1   
    45   23   51 1   
    46   24   52 1   
    47   24   53 1   
    48   24   54 1   
    49   25   26 ar  
    50   25   55 1   
    51   26   27 ar  
    52   26   56 1   
    53   27   28 1   
    54   28   29 1   
    55   29   57 1   
    56   29   58 1   
    57   29   59 1   
    58   30   31 ar  
    59   30   60 1   
    60   31   32 ar  
    61   31   61 1   
    62   32   33 1   
    63   32   36 ar  
    64   33   34 2   
    65   33   35 1   
    66   34   62 1   
    67   35   63 1   
    68   35   64 1   
    69   35   69 1   
    70   36   37 ar  
    71   36   65 1   
    72   37   66 1   
@<TRIPOS>SUBSTRUCTURE
     1 C24         1 TEMP              0 ****  ****    0 ROOT
