@<TRIPOS>MOLECULE
C24
   66    58     1     0     0
SMALL
bcc


@<TRIPOS>ATOM
      1 C2          4.3450   -1.3660    4.1210 c1        1 C24      0.069000
      2 N10         3.5980   -1.4340    2.8560 n2        1 C24     -0.264000
      3 C11         2.2710   -0.8660    2.7660 c3        1 C24      0.016000
      4 C12         1.8580   -0.7600    1.2820 c2        1 C24     -0.027000
      5 N16         1.1920    0.4050    1.1540 n2        1 C24     -0.137000
      6 C15         0.6270    0.4320   -0.0860 c1        1 C24     -0.076000
      7 C18        -0.2250    1.3670   -0.7190 c1        1 C24     -0.033000
      8 C19        -0.7360    1.0970   -2.0010 c1        1 C24     -0.138000
      9 C40        -2.0480    0.5000   -1.4210 c2        1 C24      0.352000
     10 O21        -2.2180    0.4500   -0.1890 o         1 C24     -0.327000
     11 N22        -3.1000    0.0700   -2.3140 n         1 C24     -0.274000
     12 C23        -4.2830   -0.3920   -1.8000 c2        1 C24      0.106000
     13 C24        -5.2900    0.5150   -1.4400 c2        1 C24     -0.162000
     14 C25        -6.4210    0.0680   -0.8460 c1        1 C24     -0.081000
     15 C26        -6.5810   -1.2710   -0.5980 c1        1 C24     -0.123500
     16 C27        -5.5910   -2.1610   -0.9520 c1        1 C24     -0.123500
     17 N28        -4.4430   -1.7080   -1.5550 n1        1 C24     -0.179000
     18 C29        -2.9780    0.3110   -3.7280 c3        1 C24     -0.013000
     19 C30        -3.8720    1.4620   -4.1130 c3        1 C24     -0.188000
     20 C31        -3.4390    2.0250   -5.5050 c2        1 C24      0.310000
     21 O32        -3.3200    1.2650   -6.4630 o         1 C24     -0.364000
     22 O33        -3.3240    3.4430   -5.6990 os        1 C24     -0.279000
     23 C34        -2.7820    3.8120   -6.9890 c3        1 C24     -0.011000
     24 C35        -2.8620    5.3170   -7.1670 c3        1 C24     -0.219000
     25 C20        -0.4040   -0.0840   -2.6420 c1        1 C24     -0.085000
     26 C21         0.4370   -1.0030   -2.0150 c1        1 C24     -0.130000
     27 C14         0.9520   -0.7270   -0.7190 c1        1 C24     -0.009000
     28 N13         1.7100   -1.4620    0.1220 n1        1 C24     -0.183000
     29 C17         1.3150   -2.8340    0.2070 c2        1 C24     -0.070000
     30 C3          4.9920   -2.5010    4.6100 c2        1 C24     -0.181000
     31 C4          5.7480   -2.4250    5.7890 c1        1 C24     -0.079000
     32 C5          5.8520   -1.2240    6.4670 c1        1 C24     -0.150000
     33 C7          6.7000   -1.1380    7.7480 c2        1 C24      0.120000
     34 N9          8.0040   -0.8680    7.6700 n1        1 C24     -0.306000
     35 N8          6.1100   -1.3410    8.9820 n3        1 C24     -0.332000
     36 C6          5.2010   -0.0800    5.9750 c1        1 C24     -0.064000
     37 C1          4.4500   -0.1550    4.8050 c1        1 C24     -0.185000
     38 H10N        3.9540   -1.8900    2.1320 hn        1 C24      0.208000
     39 H111        2.2680    0.0420    3.1750 h1        1 C24      0.117000
     40 H112        1.6430   -1.4350    3.2360 h1        1 C24      0.117000
     41 H18        -0.4450    2.1910   -0.2780 ha        1 C24      0.161000
     42 H24        -5.1720    1.4840   -1.6210 ha        1 C24      0.165000
     43 H25        -7.1180    0.6940   -0.5970 ha        1 C24      0.142000
     44 H26        -7.4040   -1.5970   -0.1660 ha        1 C24      0.153000
     45 H27        -5.7070   -3.1210   -0.7730 ha        1 C24      0.153000
     46 H291       -2.0530    0.5300   -3.9400 h1        1 C24      0.116500
     47 H292       -3.2490   -0.5070   -4.2320 h1        1 C24      0.116500
     48 H301       -3.7960    2.1710   -3.4390 hc        1 C24      0.135000
     49 H302       -4.7850    1.1590   -4.1590 hc        1 C24      0.135000
     50 H341       -3.3050    3.3670   -7.7070 h1        1 C24      0.089000
     51 H342       -1.8460    3.5270   -7.0440 h1        1 C24      0.089000
     52 H351       -2.5490    5.7610   -6.3500 hc        1 C24      0.087667
     53 H352       -2.2950    5.5860   -7.9220 hc        1 C24      0.087667
     54 H353       -3.7790    5.5730   -7.3450 hc        1 C24      0.087667
     55 H20        -0.7700   -0.2810   -3.5620 ha        1 C24      0.145000
     56 H21         0.6650   -1.8130   -2.4540 ha        1 C24      0.142000
     57 H171        1.9520   -3.3190    0.7520 ha        1 C24      0.095000
     58 H172        0.4360   -2.8940    0.6090 ha        1 C24      0.095000
     59 H173        1.2910   -3.2210   -0.6850 ha        1 C24      0.095000
     60 H3          4.9160   -3.3600    4.1250 ha        1 C24      0.140000
     61 H4          6.2120   -3.2360    6.1370 ha        1 C24      0.139000
     62 HN9         8.4000   -0.7320    6.8490 DU        1 C24      0.150000
     63 HN81        5.2280   -1.5270    9.0360 hn        1 C24      0.192500
     64 HN82        6.6120   -1.3230    9.7290 hn        1 C24      0.192500
     65 H6          5.2750    0.7600    6.4500 ha        1 C24      0.148000
     66 H1          3.9790    0.6730    4.4510 ha        1 C24      0.129000
@<TRIPOS>BOND
     1    1   30 1   
     2    1   37 1   
     3    2    3 1   
     4    2   38 1   
     5    3    4 1   
     6    3   39 1   
     7    3   40 1   
     8    4    5 1   
     9    4   28 1   
    10    5    6 1   
    11    6    7 1   
    12    7   41 1   
    13    8    9 1   
    14    8   25 1   
    15    9   10 1   
    16    9   11 1   
    17   11   12 1   
    18   11   18 1   
    19   12   13 1   
    20   12   17 1   
    21   13   14 1   
    22   13   42 1   
    23   14   43 1   
    24   15   16 1   
    25   15   44 1   
    26   16   45 1   
    27   18   19 1   
    28   18   46 1   
    29   18   47 1   
    30   19   20 1   
    31   19   48 1   
    32   19   49 1   
    33   20   21 1   
    34   20   22 1   
    35   22   23 1   
    36   23   24 1   
    37   23   50 1   
    38   23   51 1   
    39   24   52 1   
    40   24   53 1   
    41   24   54 1   
    42   25   55 1   
    43   26   27 1   
    44   26   56 1   
    45   29   57 1   
    46   29   58 1   
    47   29   59 1   
    48   30   31 1   
    49   30   60 1   
    50   31   61 1   
    51   32   33 1   
    52   32   36 1   
    53   33   34 1   
    54   33   35 1   
    55   35   63 1   
    56   35   64 1   
    57   36   65 1   
    58   37   66 1   
@<TRIPOS>SUBSTRUCTURE
     1 C24         1 TEMP              0 ****  ****    0 ROOT
