@<TRIPOS>MOLECULE
C25
   33    34     1     0     0
SMALL
bcc


@<TRIPOS>ATOM
      1 OP3         2.6070   -0.2140   -5.1050 oh        1 C25     -0.786400
      2 P           3.4020   -1.0190   -3.9200 p5        1 C25      1.430800
      3 OP1         4.6700   -1.5630   -4.4430 o         1 C25     -0.844500
      4 OP2         2.3080   -1.7830   -3.2760 o         1 C25     -0.844500
      5 O5'         3.7470    0.2580   -2.9370 os        1 C25     -0.583200
      6 C5'         2.6790    0.8550   -2.2640 c3        1 C25      0.179400
      7 C4'         2.8830    0.7390   -0.7470 c3        1 C25      0.089100
      8 O4'         2.4750    1.9610   -0.1070 os        1 C25     -0.406600
      9 C3'         2.0890   -0.4200   -0.1110 c3        1 C25      0.110100
     10 O3'         2.8630   -1.1030    0.8570 oh        1 C25     -0.594800
     11 C2'         0.8550    0.2690    0.5050 c3        1 C25      0.076100
     12 O2'         0.6060   -0.2730    1.7890 oh        1 C25     -0.627800
     13 C1'         1.2550    1.7770    0.6250 c3        1 C25      0.289500
     14 N1          0.1930    2.6980    0.2520 n         1 C25     -0.336400
     15 C2         -0.7720    2.9970    1.2850 c         1 C25      0.739500
     16 O2         -0.6810    2.3800    2.3920 o         1 C25     -0.742100
     17 N3         -1.7880    3.9130    1.0580 ne        1 C25     -0.803100
     18 C4         -1.8440    4.4980   -0.1760 cf        1 C25      0.660500
     19 N4         -2.8340    5.4990   -0.3960 nh        1 C25     -0.882800
     20 C5         -0.9460    4.1680   -1.2170 cf        1 C25     -0.582700
     21 C6          0.1000    3.2470   -0.9850 c1        1 C25     -0.056900
     22 H5'         2.6560    1.9510   -2.5260 h1        1 C25      0.046700
     23 H5''        1.7070    0.3770   -2.5680 h1        1 C25      0.046700
     24 H4'         3.9800    0.6430   -0.5200 h1        1 C25      0.073700
     25 H3'         1.8170   -1.2040   -0.8730 h1        1 C25      0.139700
     26 HO'3        2.8730   -0.5540    1.6500 ho        1 C25      0.393000
     27 H2'        -0.0430    0.1210   -0.1500 h1        1 C25      0.066700
     28 HO2'        0.0050    0.3490    2.2310 ho        1 C25      0.438000
     29 H1'         1.5270    2.0020    1.7050 h2        1 C25      0.063700
     30 H41        -3.1840    5.4460   -1.3280 hn        1 C25      0.355800
     31 H42        -3.5790    5.4820    0.2690 hn        1 C25      0.355800
     32 H5         -1.0180    4.6220   -2.2080 ha        1 C25      0.115000
     33 H6          1.6730   -0.1780   -4.9380 ho        1 C25      0.421000
@<TRIPOS>BOND
     1    1    2 1   
     2    1   33 1   
     3    2    3 1   
     4    2    4 1   
     5    2    5 1   
     6    5    6 1   
     7    6    7 1   
     8    6   22 1   
     9    6   23 1   
    10    7    8 1   
    11    7    9 1   
    12    7   24 1   
    13    8   13 1   
    14    9   10 1   
    15    9   11 1   
    16    9   25 1   
    17   10   26 1   
    18   11   12 1   
    19   11   13 1   
    20   11   27 1   
    21   12   28 1   
    22   13   14 1   
    23   13   29 1   
    24   14   15 1   
    25   14   21 2   
    26   15   16 2   
    27   15   17 1   
    28   17   18 2   
    29   18   19 1   
    30   18   20 1   
    31   19   30 1   
    32   19   31 1   
    33   20   21 2   
    34   20   32 1   
@<TRIPOS>SUBSTRUCTURE
     1 C25         1 TEMP              0 ****  ****    0 ROOT
