@<TRIPOS>MOLECULE
C25
   33    33     1     0     0
SMALL
bcc


@<TRIPOS>ATOM
      1 OP3        -3.8350   -2.1230    3.0470 o         1 C25     -0.732500
      2 P          -2.4870   -2.1110    2.3400 p5        1 C25      1.582500
      3 OP1        -1.4410   -2.7130    3.2420 o         1 C25     -0.732500
      4 OP2        -2.5800   -2.9200    1.0650 o         1 C25     -0.732500
      5 O5'        -2.0870   -0.6250    1.9940 os        1 C25     -0.766000
      6 C5'        -0.8750   -0.3960    1.2630 c3        1 C25      0.030000
      7 C4'        -0.1490    0.8010    1.8480 c3        1 C25     -0.061000
      8 O4'         1.3840    0.8170    1.3420 os        1 C25     -0.299000
      9 C3'        -0.6790    1.8890    1.4260 c3        1 C25      0.164000
     10 O3'        -0.5460    2.9470    2.4430 oh        1 C25     -0.717000
     11 C2'         0.1400    2.2660    0.1350 c3        1 C25     -0.074000
     12 O2'         0.5120    3.5420    0.1800 oh        1 C25     -0.372000
     13 C1'         1.3690    1.3520    0.1490 c3        1 C25      0.124000
     14 N1          1.2390    0.3110   -0.8810 n         1 C25     -0.242000
     15 C2          0.7800    0.6710   -2.2230 c2        1 C25      0.341000
     16 O2          0.5540    1.8150   -2.4900 o         1 C25     -0.389000
     17 N3          0.5550   -0.3700   -3.2230 n2        1 C25     -0.332000
     18 C4          0.9400   -1.6960   -2.9520 c1        1 C25      0.178000
     19 N4          0.8210   -2.6760   -3.9450 n2        1 C25     -0.333000
     20 C5          1.5900   -2.0210   -1.6680 c2        1 C25     -0.388000
     21 C6          1.7210   -0.9820   -0.6330 c2        1 C25      0.098000
     22 H5'        -1.0910   -0.2190    0.3080 h1        1 C25      0.059000
     23 H5''       -0.3100   -1.1750    1.3260 h1        1 C25      0.059000
     24 H4'        -0.1800    0.7680    2.8190 h1        1 C25      0.085000
     25 H3'        -1.6020    1.7490    1.2080 h1        1 C25     -0.001000
     26 HO'3       -1.3970    3.1470    2.8030 ho        1 C25      0.239000
     27 H2'        -0.4060    2.0940   -0.6800 h1        1 C25      0.072000
     28 HO2'        0.0190    3.9960   -0.3350 ho        1 C25      0.234000
     29 H1'         2.1970    1.8830   -0.0010 h2        1 C25      0.136000
     30 H41         0.5110   -2.4550   -4.7580 hn        1 C25      0.182000
     31 H42         1.0790   -3.5280   -3.7740 hn        1 C25      0.182000
     32 H5          2.0180   -2.8740   -1.5490 ha        1 C25      0.160000
     33 H6          2.2350   -1.1630    0.1730 h4        1 C25      0.243000
@<TRIPOS>BOND
     1    1    2 1   
     2    2    3 1   
     3    2    4 1   
     4    2    5 1   
     5    5    6 1   
     6    6    7 1   
     7    6   22 1   
     8    6   23 1   
     9    7    8 1   
    10    7    9 1   
    11    7   24 1   
    12    8   13 1   
    13    9   10 1   
    14    9   11 1   
    15    9   25 1   
    16   10   26 1   
    17   11   12 1   
    18   11   13 1   
    19   11   27 1   
    20   12   28 1   
    21   13   14 1   
    22   13   29 1   
    23   14   15 1   
    24   14   21 1   
    25   15   16 1   
    26   15   17 1   
    27   17   18 1   
    28   18   20 1   
    29   19   30 1   
    30   19   31 1   
    31   20   21 1   
    32   20   32 1   
    33   21   33 1   
@<TRIPOS>SUBSTRUCTURE
     1 C25         1 TEMP              0 ****  ****    0 ROOT
