@<TRIPOS>MOLECULE
C26
   30    29     1     0     0
SMALL
bcc


@<TRIPOS>ATOM
      1 O4          1.8150    0.2070   -2.6060 o         1 C26     -0.755200
      2 S1          0.8080   -0.7520   -2.4790 s6        1 C26      1.694300
      3 O2          0.1340   -1.1030   -3.6440 o         1 C26     -0.755200
      4 O3          1.0930   -1.7900   -1.5900 o         1 C26     -0.755200
      5 O1         -0.4180    0.1290   -1.6270 os        1 C26     -0.606500
      6 C1         -0.1130    0.8230   -0.4650 c3        1 C26      0.215400
      7 C2         -0.3190   -0.0570    0.7790 c3        1 C26     -0.113700
      8 C7         -1.7850   -0.4130    0.9560 c3        1 C26     -0.068400
      9 C8         -2.6510    0.7050    1.4760 c3        1 C26     -0.085100
     10 C3          0.2940    0.6210    1.9910 c3        1 C26     -0.068400
     11 C4          0.2940   -0.2740    3.2120 c3        1 C26     -0.079400
     12 C5          1.0070    0.3820    4.3760 c3        1 C26     -0.080400
     13 C6          0.9970   -0.4970    5.6000 c3        1 C26     -0.089100
     14 H1C1       -0.7940    1.7170   -0.4190 h1        1 C26      0.013700
     15 H1C2        0.9540    1.1840   -0.4950 h1        1 C26      0.013700
     16 H2          0.2370   -1.0230    0.5830 hc        1 C26      0.089700
     17 H7C1       -2.1690   -0.7420   -0.0490 hc        1 C26      0.043200
     18 H7C2       -1.8660   -1.2900    1.6530 hc        1 C26      0.043200
     19 H8C1       -3.7270    0.4040    1.4450 hc        1 C26      0.020033
     20 H8C2       -2.3910    0.9560    2.5330 hc        1 C26      0.020033
     21 H8C3       -2.5260    1.6250    0.8550 hc        1 C26      0.020033
     22 H3C1       -0.2590    1.5700    2.2170 hc        1 C26      0.031700
     23 H3C2        1.3530    0.9060    1.7470 hc        1 C26      0.031700
     24 H4C1        0.7950   -1.2460    2.9630 hc        1 C26      0.040700
     25 H4C2       -0.7630   -0.5100    3.5060 hc        1 C26      0.040700
     26 H5C1        0.5140    1.3620    4.6130 hc        1 C26      0.033700
     27 H5C2        2.0670    0.6080    4.0850 hc        1 C26      0.033700
     28 H6C1        1.5300    0.0020    6.4450 hc        1 C26      0.025033
     29 H6C2       -0.0500   -0.7130    5.9220 hc        1 C26      0.025033
     30 H6C3        1.5040   -1.4700    5.3890 hc        1 C26      0.025033
@<TRIPOS>BOND
     1    1    2 1   
     2    2    3 1   
     3    2    4 1   
     4    2    5 1   
     5    5    6 1   
     6    6    7 1   
     7    6   14 1   
     8    6   15 1   
     9    7    8 1   
    10    7   10 1   
    11    7   16 1   
    12    8    9 1   
    13    8   17 1   
    14    8   18 1   
    15    9   19 1   
    16    9   20 1   
    17    9   21 1   
    18   10   11 1   
    19   10   22 1   
    20   10   23 1   
    21   11   12 1   
    22   11   24 1   
    23   11   25 1   
    24   12   13 1   
    25   12   26 1   
    26   12   27 1   
    27   13   28 1   
    28   13   29 1   
    29   13   30 1   
@<TRIPOS>SUBSTRUCTURE
     1 C26         1 TEMP              0 ****  ****    0 ROOT
