@<TRIPOS>MOLECULE
C26
   30    29     1     0     0
SMALL
bcc


@<TRIPOS>ATOM
      1 O4          1.1250   -1.0660   -1.2510 o         1 C26     -0.755200
      2 S1          2.0870   -0.1410   -0.8390 s6        1 C26      1.694300
      3 O2          2.7590   -0.4300    0.3450 o         1 C26     -0.755200
      4 O3          2.8520    0.4110   -1.8680 o         1 C26     -0.755200
      5 O1          1.1050    1.2030   -0.3550 os        1 C26     -0.606500
      6 C1          0.1270    1.7060   -1.2020 c3        1 C26      0.215400
      7 C2          0.6830    2.8310   -2.0890 c3        1 C26     -0.113700
      8 C7          1.0790    4.0370   -1.2540 c3        1 C26     -0.068400
      9 C8         -0.0740    4.8640   -0.7490 c3        1 C26     -0.085100
     10 C3         -0.3110    3.1520   -3.1900 c3        1 C26     -0.068400
     11 C4          0.2510    4.1180   -4.2110 c3        1 C26     -0.079400
     12 C5         -0.7170    4.3390   -5.3540 c3        1 C26     -0.080400
     13 C6         -0.1690    5.3120   -6.3660 c3        1 C26     -0.089100
     14 H1C1       -0.2850    0.8840   -1.8540 h1        1 C26      0.013700
     15 H1C2       -0.7050    2.1030   -0.5570 h1        1 C26      0.013700
     16 H2          1.6290    2.4280   -2.5610 hc        1 C26      0.089700
     17 H7C1        1.6710    3.6520   -0.3780 hc        1 C26      0.043200
     18 H7C2        1.7600    4.6920   -1.8600 hc        1 C26      0.043200
     19 H8C1        0.2950    5.6420   -0.0360 hc        1 C26      0.020033
     20 H8C2       -0.8180    4.2250   -0.2160 hc        1 C26      0.020033
     21 H8C3       -0.5950    5.3840   -1.5900 hc        1 C26      0.020033
     22 H3C1       -1.2490    3.5770   -2.7440 hc        1 C26      0.031700
     23 H3C2       -0.5960    2.1970   -3.7090 hc        1 C26      0.031700
     24 H4C1        0.4760    5.1000   -3.7160 hc        1 C26      0.040700
     25 H4C2        1.2200    3.7180   -4.6100 hc        1 C26      0.040700
     26 H5C1       -1.6900    4.7240   -4.9510 hc        1 C26      0.033700
     27 H5C2       -0.9330    3.3580   -5.8540 hc        1 C26      0.033700
     28 H6C1        0.7910    4.9330   -6.7950 hc        1 C26      0.025033
     29 H6C2        0.0290    6.3040   -5.8930 hc        1 C26      0.025033
     30 H6C3       -0.8940    5.4580   -7.2020 hc        1 C26      0.025033
@<TRIPOS>BOND
     1    1    2 1   
     2    2    3 1   
     3    2    4 1   
     4    2    5 1   
     5    5    6 1   
     6    6    7 1   
     7    6   14 1   
     8    6   15 1   
     9    7    8 1   
    10    7   10 1   
    11    7   16 1   
    12    8    9 1   
    13    8   17 1   
    14    8   18 1   
    15    9   19 1   
    16    9   20 1   
    17    9   21 1   
    18   10   11 1   
    19   10   22 1   
    20   10   23 1   
    21   11   12 1   
    22   11   24 1   
    23   11   25 1   
    24   12   13 1   
    25   12   26 1   
    26   12   27 1   
    27   13   28 1   
    28   13   29 1   
    29   13   30 1   
@<TRIPOS>SUBSTRUCTURE
     1 C26         1 TEMP              0 ****  ****    0 ROOT
