@<TRIPOS>MOLECULE
C26
   30    27     1     0     0
SMALL
bcc


@<TRIPOS>ATOM
      1 O4         -3.7790   -3.6420    0.0830 o         1 C26     -1.073000
      2 S1         -2.3800   -3.3330    0.5620 ss        1 C26      2.872000
      3 O2         -2.6350   -2.9880    2.0100 o         1 C26     -1.073000
      4 O3         -1.4790   -4.5380    0.4370 os        1 C26     -1.088000
      5 O1         -1.7930   -2.1630   -0.1830 o         1 C26     -0.747000
      6 C1         -0.4790   -1.8010    0.1730 c3        1 C26      0.066000
      7 C2         -0.1220   -0.4890   -0.4880 c3        1 C26     -0.156000
      8 C7          0.3240   -0.7460   -1.9120 c3        1 C26     -0.133000
      9 C8         -0.7950   -0.3760   -2.8650 c3        1 C26     -0.217000
     10 C3          1.0020    0.1750    0.2810 c3        1 C26     -0.148000
     11 C4          0.5930    1.5820    0.6570 c3        1 C26     -0.159000
     12 C5          1.6980    2.2320    1.4570 c3        1 C26     -0.159000
     13 C6          1.2900    3.6420    1.8290 c3        1 C26     -0.207000
     14 H1C1       -0.4190   -1.7030    1.1460 h1        1 C26      0.053500
     15 H1C2        0.1440   -2.4970   -0.1250 h1        1 C26      0.053500
     16 H2         -0.9020    0.0960   -0.4930 hc        1 C26      0.134000
     17 H7C1        1.1140   -0.2030   -2.1090 hc        1 C26      0.052500
     18 H7C2        0.5440   -1.6940   -2.0190 hc        1 C26      0.052500
     19 H8C1       -1.4800   -1.0770   -2.8530 hc        1 C26      0.077000
     20 H8C2       -0.4350   -0.2880   -3.7730 hc        1 C26      0.077000
     21 H8C3       -1.1930    0.4760   -2.5870 hc        1 C26      0.077000
     22 H3C1        1.8050    0.2060   -0.2780 hc        1 C26      0.070500
     23 H3C2        1.1890   -0.3390    1.0930 hc        1 C26      0.070500
     24 H4C1       -0.2240    1.5520    1.1950 hc        1 C26      0.082000
     25 H4C2        0.4290    2.1020   -0.1550 hc        1 C26      0.082000
     26 H5C1        1.8600    1.7140    2.2700 hc        1 C26      0.072500
     27 H5C2        2.5160    2.2600    0.9200 hc        1 C26      0.072500
     28 H6C1        1.0960    4.1520    1.0150 hc        1 C26      0.064667
     29 H6C2        0.4900    3.6120    2.3950 hc        1 C26      0.064667
     30 H6C3        2.0200    4.0750    2.3190 hc        1 C26      0.064667
@<TRIPOS>BOND
     1    1    2 1   
     2    2    3 1   
     3    5    6 1   
     4    6    7 1   
     5    6   14 1   
     6    6   15 1   
     7    7    8 1   
     8    7   10 1   
     9    7   16 1   
    10    8    9 1   
    11    8   17 1   
    12    8   18 1   
    13    9   19 1   
    14    9   20 1   
    15    9   21 1   
    16   10   11 1   
    17   10   22 1   
    18   10   23 1   
    19   11   12 1   
    20   11   24 1   
    21   11   25 1   
    22   12   13 1   
    23   12   26 1   
    24   12   27 1   
    25   13   28 1   
    26   13   29 1   
    27   13   30 1   
@<TRIPOS>SUBSTRUCTURE
     1 C26         1 TEMP              0 ****  ****    0 ROOT
