@<TRIPOS>MOLECULE
C26
   30    29     1     0     0
SMALL
bcc


@<TRIPOS>ATOM
      1 O4          1.1350   -1.0440   -1.1950 o         1 C26     -0.755200
      2 S1          2.1030   -0.1160   -0.8090 s6        1 C26      1.694300
      3 O2          2.7880   -0.3880    0.3710 o         1 C26     -0.755200
      4 O3          2.8570    0.4190   -1.8550 o         1 C26     -0.755200
      5 O1          1.1300    1.2380   -0.3340 os        1 C26     -0.606500
      6 C1          0.1430    1.7300   -1.1750 c3        1 C26      0.215400
      7 C2          0.6910    2.8400   -2.0860 c3        1 C26     -0.113700
      8 C7          1.0990    4.0580   -1.2740 c3        1 C26     -0.068400
      9 C8         -0.0460    4.8950   -0.7670 c3        1 C26     -0.085100
     10 C3         -0.3170    3.1470   -3.1800 c3        1 C26     -0.068400
     11 C4          0.2350    4.0970   -4.2210 c3        1 C26     -0.079400
     12 C5         -0.7450    4.3020   -5.3570 c3        1 C26     -0.080400
     13 C6         -0.2080    5.2590   -6.3890 c3        1 C26     -0.089100
     14 H1C1       -0.2790    0.8990   -1.8100 h1        1 C26      0.013700
     15 H1C2       -0.6810    2.1380   -0.5260 h1        1 C26      0.013700
     16 H2          1.6300    2.4280   -2.5640 hc        1 C26      0.089700
     17 H7C1        1.7000    3.6850   -0.4000 hc        1 C26      0.043200
     18 H7C2        1.7730    4.7030   -1.8990 hc        1 C26      0.043200
     19 H8C1        0.3330    5.6830   -0.0710 hc        1 C26      0.020033
     20 H8C2       -0.7850    4.2650   -0.2150 hc        1 C26      0.020033
     21 H8C3       -0.5770    5.4030   -1.6100 hc        1 C26      0.020033
     22 H3C1       -1.2480    3.5800   -2.7290 hc        1 C26      0.031700
     23 H3C2       -0.6090    2.1860   -3.6810 hc        1 C26      0.031700
     24 H4C1        0.4670    5.0860   -3.7440 hc        1 C26      0.040700
     25 H4C2        1.2000    3.6900   -4.6250 hc        1 C26      0.040700
     26 H5C1       -1.7140    4.6940   -4.9480 hc        1 C26      0.033700
     27 H5C2       -0.9680    3.3140   -5.8400 hc        1 C26      0.033700
     28 H6C1        0.7470    4.8740   -6.8230 hc        1 C26      0.025033
     29 H6C2       -0.0050    6.2580   -5.9330 hc        1 C26      0.025033
     30 H6C3       -0.9430    5.3930   -7.2190 hc        1 C26      0.025033
@<TRIPOS>BOND
     1    1    2 1   
     2    2    3 1   
     3    2    4 1   
     4    2    5 1   
     5    5    6 1   
     6    6    7 1   
     7    6   14 1   
     8    6   15 1   
     9    7    8 1   
    10    7   10 1   
    11    7   16 1   
    12    8    9 1   
    13    8   17 1   
    14    8   18 1   
    15    9   19 1   
    16    9   20 1   
    17    9   21 1   
    18   10   11 1   
    19   10   22 1   
    20   10   23 1   
    21   11   12 1   
    22   11   24 1   
    23   11   25 1   
    24   12   13 1   
    25   12   26 1   
    26   12   27 1   
    27   13   28 1   
    28   13   29 1   
    29   13   30 1   
@<TRIPOS>SUBSTRUCTURE
     1 C26         1 TEMP              0 ****  ****    0 ROOT
