@<TRIPOS>MOLECULE
C27
   51    53     1     0     0
SMALL
bcc


@<TRIPOS>ATOM
      1 C1          7.8670   -1.1410    0.9740 c3        1 C27      0.113700
      2 O2          6.7180   -0.3360    1.2040 os        1 C27     -0.328900
      3 C3          5.6510   -0.5390    0.3480 ca        1 C27      0.122100
      4 C4          5.6470   -1.4550   -0.7100 ca        1 C27     -0.202000
      5 C5          4.5040   -1.5640   -1.5020 ca        1 C27     -0.097000
      6 C6          3.3850   -0.7780   -1.2500 ca        1 C27     -0.154000
      7 C7          3.3900    0.1420   -0.1890 cp        1 C27     -0.004000
      8 C8          4.5270    0.2630    0.6150 ca        1 C27     -0.146000
      9 C9          2.2130    0.9700    0.0750 cp        1 C27     -0.040000
     10 C10         2.3610    2.3170    0.4360 ca        1 C27     -0.118000
     11 C11         1.2380    3.1010    0.6860 ca        1 C27     -0.130000
     12 C12        -0.0410    2.5550    0.5810 ca        1 C27     -0.123000
     13 C13        -0.2020    1.2130    0.2220 ca        1 C27     -0.079300
     14 C14        -1.5630    0.6150    0.1210 c3        1 C27     -0.044100
     15 C15        -1.9480    0.3690   -1.3230 c3        1 C27     -0.073400
     16 C16        -3.3740   -0.2100   -1.5100 c3        1 C27      0.161200
     17 C17        -3.5870   -0.3270   -3.0360 c3        1 C27     -0.079100
     18 C18        -4.4120    0.8120   -1.0000 c3        1 C27     -0.175400
     19 C19        -4.7620    0.6550    0.4610 c         1 C27      0.705500
     20 O20        -5.1680    1.6180    1.1350 o         1 C27     -0.621500
     21 N21        -4.6720   -0.6210    1.0330 n         1 C27     -0.435300
     22 C22        -5.0040   -0.8190    2.4180 c3        1 C27      0.073300
     23 C23        -4.0630   -1.6780    0.2710 c2        1 C27      0.645800
     24 N24        -3.5040   -1.5260   -0.9100 n2        1 C27     -0.694900
     25 N25        -4.0370   -2.9670    0.8850 nh        1 C27     -0.878800
     26 C26         0.9270    0.4260   -0.0290 ca        1 C27     -0.114000
     27 H1C1        8.5790   -0.8140    1.7740 h1        1 C27      0.043700
     28 H1C2        7.6200   -2.2250    1.0870 h1        1 C27      0.043700
     29 H1C3        8.2940   -0.9400   -0.0390 h1        1 C27      0.043700
     30 H4          6.5230   -2.0830   -0.9220 ha        1 C27      0.137000
     31 H8          4.5540    0.9690    1.4570 ha        1 C27      0.152000
     32 H5          4.4930   -2.2800   -2.3370 ha        1 C27      0.132000
     33 H6          2.4920   -0.8700   -1.8860 ha        1 C27      0.137000
     34 H10         3.3680    2.7540    0.5160 ha        1 C27      0.137000
     35 H26         0.8010   -0.6330   -0.3020 ha        1 C27      0.139000
     36 H11         1.3600    4.1580    0.9680 ha        1 C27      0.132000
     37 H12        -0.9230    3.1790    0.7850 ha        1 C27      0.134000
     38 H141       -1.5790   -0.3540    0.6910 hc        1 C27      0.054700
     39 H142       -2.3160    1.2970    0.6020 hc        1 C27      0.054700
     40 H151       -1.8970    1.3350   -1.8920 hc        1 C27      0.054200
     41 H152       -1.2090   -0.3360   -1.7870 hc        1 C27      0.054200
     42 H171       -2.8050   -0.9830   -3.4870 hc        1 C27      0.043033
     43 H172       -4.5900   -0.7560   -3.2670 hc        1 C27      0.043033
     44 H173       -3.5150    0.6890   -3.4900 hc        1 C27      0.043033
     45 H181       -4.0360    1.8550   -1.1590 hc        1 C27      0.085200
     46 H182       -5.3710    0.7030   -1.5770 hc        1 C27      0.085200
     47 H221       -5.2890    0.1640    2.8830 h1        1 C27      0.054700
     48 H222       -5.8760   -1.5220    2.5060 h1        1 C27      0.054700
     49 H223       -4.1300   -1.2450    2.9810 h1        1 C27      0.054700
     50 H251       -4.9060   -3.2210    1.3060 hn        1 C27      0.402800
     51 H252       -3.6860   -3.6800    0.2780 hn        1 C27      0.402800
@<TRIPOS>BOND
     1    1    2 1   
     2    1   27 1   
     3    1   28 1   
     4    1   29 1   
     5    2    3 1   
     6    3    4 ar  
     7    3    8 ar  
     8    4    5 ar  
     9    4   30 1   
    10    5    6 ar  
    11    5   32 1   
    12    6    7 ar  
    13    6   33 1   
    14    7    8 ar  
    15    7    9 1   
    16    8   31 1   
    17    9   10 ar  
    18    9   26 ar  
    19   10   11 ar  
    20   10   34 1   
    21   11   12 ar  
    22   11   36 1   
    23   12   13 ar  
    24   12   37 1   
    25   13   14 1   
    26   13   26 ar  
    27   14   15 1   
    28   14   38 1   
    29   14   39 1   
    30   15   16 1   
    31   15   40 1   
    32   15   41 1   
    33   16   17 1   
    34   16   18 1   
    35   16   24 1   
    36   17   42 1   
    37   17   43 1   
    38   17   44 1   
    39   18   19 1   
    40   18   45 1   
    41   18   46 1   
    42   19   20 2   
    43   19   21 1   
    44   21   22 1   
    45   21   23 1   
    46   22   47 1   
    47   22   48 1   
    48   22   49 1   
    49   23   24 2   
    50   23   25 1   
    51   25   50 1   
    52   25   51 1   
    53   26   35 1   
@<TRIPOS>SUBSTRUCTURE
     1 C27         1 TEMP              0 ****  ****    0 ROOT
