@<TRIPOS>MOLECULE
C27
   52    54     1     0     0
SMALL
bcc


@<TRIPOS>ATOM
      1 C1          0.0710   -0.9500    0.2800 c3        1 C27      0.111700
      2 O2          1.4690   -1.1300    0.4830 os        1 C27     -0.324900
      3 C3          2.0620   -0.3050    1.4180 ca        1 C27      0.131100
      4 C4          1.3750    0.6240    2.2070 ca        1 C27     -0.194000
      5 C5          2.0920    1.3940    3.1230 ca        1 C27     -0.094000
      6 C6          3.4680    1.2420    3.2580 ca        1 C27     -0.159000
      7 C7          4.1570    0.3120    2.4630 cp        1 C27     -0.021000
      8 C8          3.4550   -0.4650    1.5390 ca        1 C27     -0.144000
      9 C9          5.6060    0.1570    2.5950 cp        1 C27     -0.023000
     10 C10         6.4120    0.0230    1.4540 ca        1 C27     -0.103000
     11 C11         7.7910   -0.1250    1.5850 ca        1 C27     -0.120000
     12 C12         8.3810   -0.1460    2.8480 ca        1 C27     -0.120000
     13 C13         7.5870   -0.0150    3.9920 ca        1 C27     -0.107300
     14 C14         8.2040   -0.0630    5.3460 c3        1 C27     -0.031100
     15 C15         8.1520    1.2920    6.0210 c3        1 C27     -0.081400
     16 C16         8.8160    1.3310    7.4210 c3        1 C27      0.151200
     17 C17         8.7240    2.7900    7.9160 c3        1 C27     -0.088100
     18 C18        10.3150    0.9820    7.3060 c3        1 C27     -0.181400
     19 C19        10.6490   -0.4830    7.4340 c         1 C27      0.715500
     20 O20        11.6440   -1.0030    6.9270 o         1 C27     -0.529500
     21 N21         9.7870   -1.2960    8.2340 n         1 C27     -0.440300
     22 C22        10.0250   -2.7060    8.3820 c3        1 C27      0.042300
     23 C23         8.5790   -0.7010    8.6580 c2        1 C27      0.544800
     24 N24         8.0970    0.4680    8.3580 n2        1 C27     -0.578900
     25 N25         7.7460   -1.5110    9.6260 n4        1 C27     -0.809600
     26 C26         6.2030    0.1390    3.8610 ca        1 C27     -0.119000
     27 H1C1       -0.4950   -1.1890    1.2120 h1        1 C27      0.049367
     28 H1C2       -0.1480    0.0920   -0.0580 h1        1 C27      0.049367
     29 H1C3       -0.1690   -1.6870   -0.5280 h1        1 C27      0.049367
     30 H4          0.2880    0.7570    2.1120 ha        1 C27      0.145000
     31 H8          3.9700   -1.2040    0.9070 ha        1 C27      0.154000
     32 H5          1.5590    2.1320    3.7420 ha        1 C27      0.136000
     33 H6          4.0230    1.8640    3.9750 ha        1 C27      0.129000
     34 H10         5.9490    0.0400    0.4550 ha        1 C27      0.151000
     35 H26         5.5750    0.2400    4.7580 ha        1 C27      0.128000
     36 H11         8.4180   -0.2270    0.6860 ha        1 C27      0.145000
     37 H12         9.4700   -0.2680    2.9410 ha        1 C27      0.133000
     38 H141        7.6540   -0.8240    5.9640 hc        1 C27      0.035700
     39 H142        9.2720   -0.4060    5.2680 hc        1 C27      0.035700
     40 H151        8.6840    2.0480    5.3840 hc        1 C27      0.079700
     41 H152        7.0840    1.6250    6.1130 hc        1 C27      0.079700
     42 H171        9.1600    2.8990    8.9370 hc        1 C27      0.064367
     43 H172        7.6610    3.1300    7.9370 hc        1 C27      0.064367
     44 H173        9.2960    3.4370    7.2080 hc        1 C27      0.064367
     45 H181       10.8980    1.5190    8.1060 hc        1 C27      0.115700
     46 H182       10.7050    1.3360    6.3120 hc        1 C27      0.115700
     47 H221        9.2070   -3.3100    7.9040 h1        1 C27      0.071700
     48 H222       10.1180   -2.9750    9.4680 h1        1 C27      0.071700
     49 H223       10.9970   -2.9700    7.8730 h1        1 C27      0.071700
     50 H251        8.2940   -1.6900   10.4740 hn        1 C27      0.478133
     51 H252        7.4880   -2.4010    9.1870 hn        1 C27      0.478133
     52 H253        6.8920   -0.9890    9.8720 hn        1 C27      0.478133
@<TRIPOS>BOND
     1    1    2 1   
     2    1   27 1   
     3    1   28 1   
     4    1   29 1   
     5    2    3 1   
     6    3    4 ar  
     7    3    8 ar  
     8    4    5 ar  
     9    4   30 1   
    10    5    6 ar  
    11    5   32 1   
    12    6    7 ar  
    13    6   33 1   
    14    7    8 ar  
    15    7    9 1   
    16    8   31 1   
    17    9   10 ar  
    18    9   26 ar  
    19   10   11 ar  
    20   10   34 1   
    21   11   12 ar  
    22   11   36 1   
    23   12   13 ar  
    24   12   37 1   
    25   13   14 1   
    26   13   26 ar  
    27   14   15 1   
    28   14   38 1   
    29   14   39 1   
    30   15   16 1   
    31   15   40 1   
    32   15   41 1   
    33   16   17 1   
    34   16   18 1   
    35   16   24 1   
    36   17   42 1   
    37   17   43 1   
    38   17   44 1   
    39   18   19 1   
    40   18   45 1   
    41   18   46 1   
    42   19   20 2   
    43   19   21 1   
    44   21   22 1   
    45   21   23 1   
    46   22   47 1   
    47   22   48 1   
    48   22   49 1   
    49   23   24 2   
    50   23   25 1   
    51   25   50 1   
    52   25   51 1   
    53   25   52 1   
    54   26   35 1   
@<TRIPOS>SUBSTRUCTURE
     1 C27         1 TEMP              0 ****  ****    0 ROOT
