@<TRIPOS>MOLECULE
C27
   51    47     1     0     0
SMALL
bcc


@<TRIPOS>ATOM
      1 C1          6.3600    2.6740   -2.3370 c3        1 C27     -0.076000
      2 O2          6.2040    1.3400   -2.7320 os        1 C27     -0.212000
      3 C3          4.8690    1.0260   -3.2460 c2        1 C27      0.077000
      4 C4          4.4490    1.5550   -4.4570 c2        1 C27     -0.202000
      5 C5          3.1840    1.2470   -4.9500 c1        1 C27     -0.097000
      6 C6          2.3400    0.4070   -4.2270 c1        1 C27     -0.137000
      7 C7          2.7580   -0.1210   -3.0210 c1        1 C27     -0.022500
      8 C8          4.0270    0.1870   -2.5260 c1        1 C27     -0.146000
      9 C9          1.9120   -0.9770   -2.2990 c1        1 C27     -0.022500
     10 C10         1.8990   -2.3390   -2.5740 c1        1 C27     -0.137000
     11 C11         1.0790   -3.1860   -1.8410 c1        1 C27     -0.127500
     12 C12         0.2700   -2.6700   -0.8290 c1        1 C27     -0.127500
     13 C13         0.2850   -1.3050   -0.5560 c1        1 C27     -0.072000
     14 C14        -0.5250   -0.7410    0.6590 c3        1 C27     -0.120000
     15 C15        -1.9810   -0.5480    0.2530 c3        1 C27     -0.131000
     16 C16        -2.8770   -0.4320    1.5490 c3        1 C27      0.035000
     17 C17        -3.7620   -1.7600    1.4130 c3        1 C27     -0.216000
     18 C18        -3.7770    0.8130    1.4720 c3        1 C27     -0.206000
     19 C19        -4.3830    1.1810    2.7890 c2        1 C27      0.314000
     20 O20        -5.3540    1.9050    2.8260 o         1 C27     -0.344000
     21 N21        -3.7700    0.7690    3.9870 n         1 C27     -0.326000
     22 C22        -4.2980    1.1850    5.2130 c3        1 C27     -0.080000
     23 C23        -2.5140    0.0890    3.9500 c2        1 C27      0.201000
     24 N24        -2.0540   -0.4960    2.7270 n2        1 C27     -0.282000
     25 N25        -1.7170    0.0100    5.1280 n3        1 C27     -0.318000
     26 C26         1.1050   -0.4610   -1.2900 c1        1 C27     -0.115000
     27 H1C1        5.5190    2.9880   -1.8640 h1        1 C27      0.083333
     28 H1C2        7.1470    2.7490   -1.7090 h1        1 C27      0.083333
     29 H1C3        6.5100    3.2050   -3.0900 h1        1 C27      0.083333
     30 H4          5.0640    2.1700   -4.9830 ha        1 C27      0.137000
     31 H8          4.3230   -0.1840   -1.6720 ha        1 C27      0.153000
     32 H5          2.8830    1.6270   -5.8190 ha        1 C27      0.132000
     33 H6          1.4370    0.1880   -4.5790 ha        1 C27      0.136000
     34 H10         2.4670   -2.7010   -3.2860 ha        1 C27      0.136000
     35 H26         1.1150    0.5090   -1.0980 ha        1 C27      0.139000
     36 H11         1.0680   -4.1930   -2.0440 ha        1 C27      0.131000
     37 H12        -0.3070   -3.2650   -0.3130 ha        1 C27      0.131000
     38 H141       -0.1300    0.1550    0.9430 hc        1 C27      0.098500
     39 H142       -0.4760   -1.3810    1.4210 hc        1 C27      0.098500
     40 H151       -2.2640   -1.2900   -0.2590 hc        1 C27      0.085500
     41 H152       -2.0680    0.2760   -0.2840 hc        1 C27      0.085500
     42 H171       -4.1990   -1.7770    0.4990 hc        1 C27      0.084333
     43 H172       -3.1930   -2.5400    1.5140 hc        1 C27      0.084333
     44 H173       -4.4400   -1.7670    2.0920 hc        1 C27      0.084333
     45 H181       -3.2800    1.5210    0.9520 hc        1 C27      0.125000
     46 H182       -4.6240    0.5550    0.9310 hc        1 C27      0.125000
     47 H221       -5.3170    1.3510    5.1130 h1        1 C27      0.092667
     48 H222       -4.1410    0.4800    5.8980 h1        1 C27      0.092667
     49 H223       -3.8520    2.0250    5.4970 h1        1 C27      0.092667
     50 H251       -1.9300    0.5480    5.8760 hn        1 C27      0.198000
     51 H252       -1.0410   -0.5980    5.1810 hn        1 C27      0.198000
@<TRIPOS>BOND
     1    1    2 1   
     2    1   27 1   
     3    1   28 1   
     4    1   29 1   
     5    2    3 1   
     6    3    4 1   
     7    3    8 1   
     8    4    5 1   
     9    4   30 1   
    10    5   32 1   
    11    6    7 1   
    12    6   33 1   
    13    8   31 1   
    14    9   10 1   
    15   10   34 1   
    16   11   12 1   
    17   11   36 1   
    18   12   37 1   
    19   13   14 1   
    20   13   26 1   
    21   14   15 1   
    22   14   38 1   
    23   14   39 1   
    24   15   16 1   
    25   15   40 1   
    26   15   41 1   
    27   16   17 1   
    28   16   18 1   
    29   16   24 1   
    30   17   42 1   
    31   17   43 1   
    32   17   44 1   
    33   18   19 1   
    34   18   45 1   
    35   18   46 1   
    36   19   20 1   
    37   19   21 1   
    38   21   22 1   
    39   21   23 1   
    40   22   47 1   
    41   22   48 1   
    42   22   49 1   
    43   23   24 1   
    44   23   25 1   
    45   25   50 1   
    46   25   51 1   
    47   26   35 1   
@<TRIPOS>SUBSTRUCTURE
     1 C27         1 TEMP              0 ****  ****    0 ROOT
