@<TRIPOS>MOLECULE
C27
   52    54     1     0     0
SMALL
bcc


@<TRIPOS>ATOM
      1 C1          0.0730   -0.9600    0.2770 c3        1 C27      0.111700
      2 O2          1.4690   -1.1480    0.4860 os        1 C27     -0.324900
      3 C3          2.0660   -0.3170    1.4120 ca        1 C27      0.131100
      4 C4          1.3830    0.6260    2.1890 ca        1 C27     -0.194000
      5 C5          2.1040    1.4010    3.0980 ca        1 C27     -0.094000
      6 C6          3.4790    1.2410    3.2370 ca        1 C27     -0.159000
      7 C7          4.1620    0.2970    2.4550 cp        1 C27     -0.021000
      8 C8          3.4570   -0.4860    1.5380 ca        1 C27     -0.144000
      9 C9          5.6100    0.1340    2.5910 cp        1 C27     -0.023000
     10 C10         6.4180   -0.0190    1.4550 ca        1 C27     -0.103000
     11 C11         7.7950   -0.1750    1.5900 ca        1 C27     -0.120000
     12 C12         8.3830   -0.1850    2.8540 ca        1 C27     -0.120000
     13 C13         7.5870   -0.0360    3.9950 ca        1 C27     -0.107300
     14 C14         8.2010   -0.0730    5.3510 c3        1 C27     -0.031100
     15 C15         8.1560    1.2900    6.0110 c3        1 C27     -0.081400
     16 C16         8.8190    1.3420    7.4100 c3        1 C27      0.151200
     17 C17         8.7350    2.8070    7.8880 c3        1 C27     -0.088100
     18 C18        10.3170    0.9830    7.3010 c3        1 C27     -0.181400
     19 C19        10.6420   -0.4820    7.4470 c         1 C27      0.715500
     20 O20        11.6350   -1.0130    6.9460 o         1 C27     -0.529500
     21 N21         9.7750   -1.2810    8.2540 n         1 C27     -0.440300
     22 C22        10.0060   -2.6900    8.4190 c3        1 C27      0.042300
     23 C23         8.5700   -0.6750    8.6700 c2        1 C27      0.544800
     24 N24         8.0950    0.4930    8.3570 n2        1 C27     -0.578900
     25 N25         7.7310   -1.4690    9.6460 nz        1 C27     -0.809600
     26 C26         6.2050    0.1260    3.8590 ca        1 C27     -0.119000
     27 H1C1       -0.4970   -1.1850    1.2110 h1        1 C27      0.049367
     28 H1C2       -0.1710   -1.7050   -0.5230 h1        1 C27      0.049367
     29 H1C3       -0.1390    0.0790   -0.0720 h1        1 C27      0.049367
     30 H4          0.2980    0.7650    2.0900 ha        1 C27      0.145000
     31 H8          3.9680   -1.2340    0.9160 ha        1 C27      0.154000
     32 H5          1.5750    2.1500    3.7080 ha        1 C27      0.136000
     33 H6          4.0360    1.8670    3.9490 ha        1 C27      0.129000
     34 H10         5.9570   -0.0110    0.4540 ha        1 C27      0.151000
     35 H26         5.5750    0.2410    4.7540 ha        1 C27      0.128000
     36 H11         8.4240   -0.2910    0.6940 ha        1 C27      0.145000
     37 H12         9.4710   -0.3140    2.9510 ha        1 C27      0.133000
     38 H141        7.6450   -0.8220    5.9770 hc        1 C27      0.035700
     39 H142        9.2670   -0.4230    5.2790 hc        1 C27      0.035700
     40 H151        7.0900    1.6310    6.0970 hc        1 C27      0.079700
     41 H152        8.6930    2.0360    5.3650 hc        1 C27      0.079700
     42 H171        9.1700    2.9250    8.9090 hc        1 C27      0.064367
     43 H172        9.3110    3.4430    7.1740 hc        1 C27      0.064367
     44 H173        7.6730    3.1530    7.9050 hc        1 C27      0.064367
     45 H181       10.9020    1.5270    8.0950 hc        1 C27      0.115700
     46 H182       10.7090    1.3230    6.3030 hc        1 C27      0.115700
     47 H221       10.0960   -2.9470    9.5090 h1        1 C27      0.071700
     48 H222       10.9770   -2.9650    7.9150 h1        1 C27      0.071700
     49 H223        9.1850   -3.2960    7.9480 h1        1 C27      0.071700
     50 H251        6.8800   -0.9400    9.8850 hn        1 C27      0.478133
     51 H252        7.4690   -2.3630    9.2170 hn        1 C27      0.478133
     52 H253        8.2780   -1.6410   10.4970 hn        1 C27      0.478133
@<TRIPOS>BOND
     1    1    2 1   
     2    1   27 1   
     3    1   28 1   
     4    1   29 1   
     5    2    3 1   
     6    3    4 ar  
     7    3    8 ar  
     8    4    5 ar  
     9    4   30 1   
    10    5    6 ar  
    11    5   32 1   
    12    6    7 ar  
    13    6   33 1   
    14    7    8 ar  
    15    7    9 1   
    16    8   31 1   
    17    9   10 ar  
    18    9   26 ar  
    19   10   11 ar  
    20   10   34 1   
    21   11   12 ar  
    22   11   36 1   
    23   12   13 ar  
    24   12   37 1   
    25   13   14 1   
    26   13   26 ar  
    27   14   15 1   
    28   14   38 1   
    29   14   39 1   
    30   15   16 1   
    31   15   40 1   
    32   15   41 1   
    33   16   17 1   
    34   16   18 1   
    35   16   24 1   
    36   17   42 1   
    37   17   43 1   
    38   17   44 1   
    39   18   19 1   
    40   18   45 1   
    41   18   46 1   
    42   19   20 2   
    43   19   21 1   
    44   21   22 1   
    45   21   23 1   
    46   22   47 1   
    47   22   48 1   
    48   22   49 1   
    49   23   24 2   
    50   23   25 1   
    51   25   50 1   
    52   25   51 1   
    53   25   52 1   
    54   26   35 1   
@<TRIPOS>SUBSTRUCTURE
     1 C27         1 TEMP              0 ****  ****    0 ROOT
