@<TRIPOS>MOLECULE
C27
   52    54     1     0     0
SMALL
bcc


@<TRIPOS>ATOM
      1 C1          0.0520   -0.9270    0.3000 c3        1 C27      0.111700
      2 O2          1.4470   -1.1280    0.5060 os        1 C27     -0.324900
      3 C3          2.0540   -0.2960    1.4250 ca        1 C27      0.131100
      4 C4          1.3840    0.6600    2.1960 ca        1 C27     -0.194000
      5 C5          2.1150    1.4350    3.0970 ca        1 C27     -0.094000
      6 C6          3.4880    1.2620    3.2340 ca        1 C27     -0.159000
      7 C7          4.1600    0.3040    2.4580 cp        1 C27     -0.021000
      8 C8          3.4440   -0.4780    1.5490 ca        1 C27     -0.144000
      9 C9          5.6060    0.1270    2.5920 cp        1 C27     -0.023000
     10 C10         6.4090   -0.0430    1.4540 ca        1 C27     -0.103000
     11 C11         7.7850   -0.2120    1.5870 ca        1 C27     -0.120000
     12 C12         8.3760   -0.2190    2.8500 ca        1 C27     -0.120000
     13 C13         7.5850   -0.0520    3.9910 ca        1 C27     -0.107300
     14 C14         8.2020   -0.0850    5.3470 c3        1 C27     -0.031100
     15 C15         8.1710    1.2830    5.9960 c3        1 C27     -0.081400
     16 C16         8.8390    1.3380    7.3930 c3        1 C27      0.151200
     17 C17         8.7690    2.8070    7.8610 c3        1 C27     -0.088100
     18 C18        10.3330    0.9660    7.2820 c3        1 C27     -0.181400
     19 C19        10.6460   -0.5010    7.4380 c         1 C27      0.715500
     20 O20        11.6330   -1.0440    6.9390 o         1 C27     -0.529500
     21 N21         9.7750   -1.2860    8.2540 n         1 C27     -0.440300
     22 C22         9.9940   -2.6960    8.4290 c3        1 C27      0.042300
     23 C23         8.5760   -0.6670    8.6690 c2        1 C27      0.544800
     24 N24         8.1100    0.5030    8.3480 n2        1 C27     -0.578900
     25 N25         7.7330   -1.4460    9.6530 n4        1 C27     -0.809600
     26 C26         6.2040    0.1230    3.8580 ca        1 C27     -0.119000
     27 H1C1       -0.2010   -1.6750   -0.4940 h1        1 C27      0.049367
     28 H1C2       -0.1500    0.1120   -0.0570 h1        1 C27      0.049367
     29 H1C3       -0.5180   -1.1390    1.2370 h1        1 C27      0.049367
     30 H4          0.2990    0.8100    2.0990 ha        1 C27      0.145000
     31 H8          3.9460   -1.2370    0.9310 ha        1 C27      0.154000
     32 H5          1.5950    2.1940    3.7020 ha        1 C27      0.136000
     33 H6          4.0540    1.8870    3.9390 ha        1 C27      0.129000
     34 H10         5.9470   -0.0380    0.4540 ha        1 C27      0.151000
     35 H26         5.5780    0.2520    4.7530 ha        1 C27      0.128000
     36 H11         8.4100   -0.3420    0.6900 ha        1 C27      0.145000
     37 H12         9.4630   -0.3580    2.9450 ha        1 C27      0.133000
     38 H141        9.2640   -0.4460    5.2740 hc        1 C27      0.035700
     39 H142        7.6400   -0.8250    5.9790 hc        1 C27      0.035700
     40 H151        8.7130    2.0190    5.3440 hc        1 C27      0.079700
     41 H152        7.1090    1.6340    6.0830 hc        1 C27      0.079700
     42 H171        9.2090    2.9290    8.8800 hc        1 C27      0.064367
     43 H172        9.3490    3.4330    7.1410 hc        1 C27      0.064367
     44 H173        7.7110    3.1630    7.8790 hc        1 C27      0.064367
     45 H181       10.9250    1.5100    8.0700 hc        1 C27      0.115700
     46 H182       10.7250    1.2950    6.2810 hc        1 C27      0.115700
     47 H221       10.9610   -2.9830    7.9240 h1        1 C27      0.071700
     48 H222        9.1670   -3.2990    7.9650 h1        1 C27      0.071700
     49 H223       10.0850   -2.9460    9.5200 h1        1 C27      0.071700
     50 H251        6.8880   -0.9080    9.8910 hn        1 C27      0.478133
     51 H252        8.2810   -1.6170   10.5040 hn        1 C27      0.478133
     52 H253        7.4620   -2.3410    9.2310 hn        1 C27      0.478133
@<TRIPOS>BOND
     1    1    2 1   
     2    1   27 1   
     3    1   28 1   
     4    1   29 1   
     5    2    3 1   
     6    3    4 ar  
     7    3    8 ar  
     8    4    5 ar  
     9    4   30 1   
    10    5    6 ar  
    11    5   32 1   
    12    6    7 ar  
    13    6   33 1   
    14    7    8 ar  
    15    7    9 1   
    16    8   31 1   
    17    9   10 ar  
    18    9   26 ar  
    19   10   11 ar  
    20   10   34 1   
    21   11   12 ar  
    22   11   36 1   
    23   12   13 ar  
    24   12   37 1   
    25   13   14 1   
    26   13   26 ar  
    27   14   15 1   
    28   14   38 1   
    29   14   39 1   
    30   15   16 1   
    31   15   40 1   
    32   15   41 1   
    33   16   17 1   
    34   16   18 1   
    35   16   24 1   
    36   17   42 1   
    37   17   43 1   
    38   17   44 1   
    39   18   19 1   
    40   18   45 1   
    41   18   46 1   
    42   19   20 2   
    43   19   21 1   
    44   21   22 1   
    45   21   23 1   
    46   22   47 1   
    47   22   48 1   
    48   22   49 1   
    49   23   24 2   
    50   23   25 1   
    51   25   50 1   
    52   25   51 1   
    53   25   52 1   
    54   26   35 1   
@<TRIPOS>SUBSTRUCTURE
     1 C27         1 TEMP              0 ****  ****    0 ROOT
