@<TRIPOS>MOLECULE
C28
   61    63     1     0     0
SMALL
bcc


@<TRIPOS>ATOM
      1 C2          0.0260   -0.2270   -0.9440 ca        1 C28      0.256900
      2 C4          0.2240    1.3130    0.9150 ca        1 C28     -0.050000
      3 C5          1.0180    0.3770    1.6070 ca        1 C28     -0.278300
      4 C6          1.3140   -0.8620    1.0060 ca        1 C28     -0.050000
      5 C1          0.8310   -1.1680   -0.2530 ca        1 C28     -0.159500
      6 C3         -0.2720    1.0200   -0.3440 ca        1 C28     -0.159500
      7 C8          1.4870    0.7070    2.9690 c3        1 C28      0.174800
      8 F7         -0.4500   -0.5180   -2.1600 f         1 C28     -0.059900
      9 N9          2.9680    1.0900    2.8890 ny        1 C28     -0.789000
     10 C10         1.2590   -0.4700    4.0130 c3        1 C28      0.638900
     11 C11         3.7130    1.3020    4.1760 c3        1 C28      0.108500
     12 C12         3.0370    2.3970    5.0300 c         1 C28      0.521100
     13 C13         5.1610    1.7080    3.9220 c3        1 C28     -0.333600
     14 S14         6.1640    1.6730    5.4070 s6        1 C28      1.443900
     15 N15         7.6320    1.4820    4.9790 n3        1 C28     -0.811500
     16 N16         3.0360    2.1670    6.5150 ny        1 C28     -0.626800
     17 O17         2.5250    3.4050    4.5710 o         1 C28     -0.375100
     18 C18         2.6270    3.3320    7.3410 cx        1 C28     -0.058800
     19 C19         1.1280    3.5630    7.5880 cx        1 C28     -0.063900
     20 C20         1.9690    3.0420    8.6980 cx        1 C28     -0.063900
     21 O21         5.8000    2.9230    6.0240 o         1 C28     -0.706300
     22 F22         1.3870    0.0090    5.3030 f         1 C28     -0.208633
     23 F23         0.0260   -1.0240    3.9500 f         1 C28     -0.208633
     24 F24         2.1810   -1.4770    3.9380 f         1 C28     -0.208633
     25 O25         5.5200    0.6510    6.1580 o         1 C28     -0.706300
     26 C26         8.4950    2.5790    4.5480 c3        1 C28      0.161300
     27 C27         9.9430    2.4300    5.0590 c3        1 C28      0.119900
     28 O28        10.4490    1.1470    4.7410 os        1 C28     -0.355600
     29 C29         9.6910    0.1120    5.3430 c3        1 C28      0.119900
     30 C30         8.2340    0.1530    4.8440 c3        1 C28      0.161300
     31 N32         4.6760    4.6060    8.1020 nz        1 C28     -0.845600
     32 C31         3.4870    4.5750    7.2060 c3        1 C28      0.140800
     33 H4         -0.0310    2.2810    1.3780 ha        1 C28      0.150000
     34 H6          1.9090   -1.6170    1.5480 ha        1 C28      0.150000
     35 H1          1.0480   -2.1440   -0.7250 ha        1 C28      0.202000
     36 H3         -0.9090    1.7430   -0.8860 ha        1 C28      0.202000
     37 H8          0.9370    1.6090    3.3790 hx        1 C28      0.130700
     38 HN9         3.0220    1.9450    2.3110 hn        1 C28      0.483300
     39 H11         3.6980    0.3020    4.7320 hx        1 C28      0.175700
     40 H131        5.6110    1.0150    3.1580 h1        1 C28      0.148700
     41 H132        5.2070    2.7330    3.4660 h1        1 C28      0.148700
     42 HN16        2.3780    1.3840    6.7060 hn        1 C28      0.500300
     43 H191        0.7580    4.6110    7.6040 hc        1 C28      0.135200
     44 H192        0.3870    2.8920    7.1060 hc        1 C28      0.135200
     45 H201        2.2270    3.7020    9.5510 hc        1 C28      0.135200
     46 H202        1.8390    1.9920    9.0380 hc        1 C28      0.135200
     47 H261        8.0750    3.5520    4.9300 h1        1 C28      0.082700
     48 H262        8.5180    2.5920    3.4200 h1        1 C28      0.082700
     49 H271        9.9980    2.6160    6.1630 h1        1 C28      0.097950
     50 H272       10.6090    3.1480    4.5040 h1        1 C28      0.097950
     51 H291       10.1770   -0.8420    4.9940 h1        1 C28      0.097950
     52 H292        9.7350    0.1870    6.4610 h1        1 C28      0.097950
     53 H301        7.6300   -0.5930    5.4360 h1        1 C28      0.082700
     54 H302        8.2240   -0.1280    3.7520 h1        1 C28      0.082700
     55 H321        5.0740    5.5580    8.0990 hn        1 C28      0.482467
     56 H322        4.4200    4.3630    9.0660 hn        1 C28      0.482467
     57 H311        3.8650    4.7050    6.1460 hx        1 C28      0.145200
     58 H312        2.8410    5.4750    7.4580 hx        1 C28      0.145200
     59 H92         3.4510    0.3340    2.3710 hn        1 C28      0.483300
     60 H162        3.9830    1.8580    6.8170 hn        1 C28      0.500300
     61 H323        5.4050    3.9550    7.7690 hn        1 C28      0.482467
@<TRIPOS>BOND
     1    1    5 ar  
     2    1    6 ar  
     3    1    8 1   
     4    2    3 ar  
     5    2    6 ar  
     6    2   33 1   
     7    3    4 ar  
     8    3    7 1   
     9    4    5 ar  
    10    4   34 1   
    11    5   35 1   
    12    6   36 1   
    13    7    9 1   
    14    7   10 1   
    15    7   37 1   
    16    9   11 1   
    17    9   38 1   
    18    9   59 1   
    19   10   22 1   
    20   10   23 1   
    21   10   24 1   
    22   11   12 1   
    23   11   13 1   
    24   11   39 1   
    25   12   16 1   
    26   12   17 2   
    27   13   14 1   
    28   13   40 1   
    29   13   41 1   
    30   14   15 1   
    31   14   21 2   
    32   14   25 2   
    33   15   26 1   
    34   15   30 1   
    35   16   18 1   
    36   16   42 1   
    37   16   60 1   
    38   18   19 1   
    39   18   20 1   
    40   18   32 1   
    41   19   20 1   
    42   19   43 1   
    43   19   44 1   
    44   20   45 1   
    45   20   46 1   
    46   26   27 1   
    47   26   47 1   
    48   26   48 1   
    49   27   28 1   
    50   27   49 1   
    51   27   50 1   
    52   28   29 1   
    53   29   30 1   
    54   29   51 1   
    55   29   52 1   
    56   30   53 1   
    57   30   54 1   
    58   31   32 1   
    59   31   55 1   
    60   31   56 1   
    61   31   61 1   
    62   32   57 1   
    63   32   58 1   
@<TRIPOS>SUBSTRUCTURE
     1 C28         1 TEMP              0 ****  ****    0 ROOT
