@<TRIPOS>MOLECULE
C28
   58    56     1     0     0
SMALL
bcc


@<TRIPOS>ATOM
      1 C2         -4.0990   -1.5580   -4.8900 c1        1 C28      0.110000
      2 C4         -4.0570   -1.5040   -2.4800 c1        1 C28     -0.069000
      3 C5         -2.6660   -1.5090   -2.5030 c1        1 C28     -0.136000
      4 C6         -1.9910   -1.5380   -3.7210 c1        1 C28     -0.119000
      5 C1         -2.7080   -1.5630   -4.9140 c1        1 C28     -0.119000
      6 C3         -4.7740   -1.5280   -3.6740 c1        1 C28     -0.173000
      7 C8         -1.8860   -1.5850   -1.2010 c3        1 C28      0.021000
      8 F7         -4.7900   -1.5710   -6.0410 f         1 C28     -0.102000
      9 N9         -0.7400   -0.7320   -1.2810 n3        1 C28     -0.307000
     10 C10        -1.4400   -3.0090   -0.9640 c3        1 C28      0.406000
     11 C11        -0.3620   -0.3170    0.0310 c3        1 C28      0.002000
     12 C12        -1.1870    0.8900    0.4380 c2        1 C28      0.261000
     13 C13         1.1150    0.0500    0.0420 c3        1 C28     -0.846000
     14 S14         2.0860   -1.3820    0.5320 s4        1 C28      2.033800
     15 N15         3.6670   -0.9350    0.8290 n2        1 C28     -0.845000
     16 N16        -1.0500    1.4460    1.7690 n         1 C28     -0.331000
     17 O17        -1.9310    1.4210   -0.3700 o         1 C28     -0.361000
     18 C18        -1.7970    2.6340    2.1400 cx        1 C28     -0.033000
     19 C19        -1.7610    3.0020    3.6150 cx        1 C28     -0.220000
     20 C20        -3.0190    2.3980    3.0130 cx        1 C28     -0.220000
     21 O21         1.5050   -2.0410    1.6730 o         1 C28     -0.521400
     22 F22        -0.3430   -3.2640   -1.6970 f         1 C28     -0.164667
     23 F23        -1.1570   -3.1790    0.3380 f         1 C28     -0.164667
     24 F24        -2.4240   -3.8520   -1.3220 f         1 C28     -0.164667
     25 O25         2.0150   -2.4250   -0.4600 o         1 C28     -0.521400
     26 C26         4.6740   -1.2050   -0.1360 c3        1 C28     -0.048000
     27 C27         5.8910   -0.3060    0.0300 c3        1 C28     -0.039500
     28 O28         6.3910   -0.3120    1.3580 os        1 C28     -0.261000
     29 C29         5.3850   -0.0420    2.3230 c3        1 C28     -0.039500
     30 C30         4.1680   -0.9410    2.1580 c3        1 C28     -0.048000
     31 N32        -0.5990    4.4170    1.0020 n3        1 C28     -0.335000
     32 C31        -1.8950    3.8160    1.1600 c3        1 C28     -0.042000
     33 H4         -4.5330   -1.4830   -1.6230 ha        1 C28      0.144000
     34 H6         -1.0110   -1.5420   -3.7380 ha        1 C28      0.160500
     35 H1         -2.2320   -1.5840   -5.7720 ha        1 C28      0.160500
     36 H3         -5.7550   -1.5250   -3.6570 ha        1 C28      0.153000
     37 H8         -2.4580   -1.2940   -0.4590 h1        1 C28      0.113000
     38 HN9        -0.9420    0.0060   -1.7900 hn        1 C28      0.211000
     39 H11        -0.5210   -1.0500    0.6630 h1        1 C28      0.140000
     40 H131        1.3880    0.3390   -0.8570 h1        1 C28      0.152500
     41 H132        1.2650    0.7810    0.6790 h1        1 C28      0.152500
     42 HN16       -0.5340    1.0160    2.3930 hn        1 C28      0.222000
     43 H191       -1.2350    2.4040    4.1900 hc        1 C28      0.117750
     44 H192       -1.8030    3.9620    3.8160 hc        1 C28      0.117750
     45 H201       -3.1990    1.4620    3.2500 hc        1 C28      0.117750
     46 H202       -3.7670    3.0210    2.8760 hc        1 C28      0.117750
     47 H261        4.9570   -2.1430   -0.0470 h1        1 C28      0.106250
     48 H262        4.2990   -1.0690   -1.0340 h1        1 C28      0.106250
     49 H271        6.6000   -0.6150   -0.5780 h1        1 C28      0.095500
     50 H272        5.6430    0.6130   -0.2110 h1        1 C28      0.095500
     51 H291        5.1030    0.8940    2.2340 h1        1 C28      0.095500
     52 H292        5.7620   -0.1780    3.2220 h1        1 C28      0.095500
     53 H301        3.4610   -0.6330    2.7660 h1        1 C28      0.106250
     54 H302        4.4170   -1.8620    2.4000 h1        1 C28      0.106250
     55 H321        0.0390    3.7610    0.9580 hn        1 C28      0.148000
     56 H322       -0.4260    4.9650    1.7180 hn        1 C28      0.148000
     57 H311       -2.5250    4.4840    1.5140 h1        1 C28      0.106500
     58 H312       -2.2150    3.4940    0.2890 h1        1 C28      0.106500
@<TRIPOS>BOND
     1    1    6 1   
     2    1    8 1   
     3    2    3 1   
     4    2   33 1   
     5    3    7 1   
     6    4    5 1   
     7    4   34 1   
     8    5   35 1   
     9    6   36 1   
    10    7    9 1   
    11    7   10 1   
    12    7   37 1   
    13    9   11 1   
    14    9   38 1   
    15   10   22 1   
    16   10   23 1   
    17   10   24 1   
    18   11   12 1   
    19   11   13 1   
    20   11   39 1   
    21   12   16 1   
    22   12   17 1   
    23   13   14 1   
    24   13   40 1   
    25   13   41 1   
    26   14   21 1   
    27   14   25 1   
    28   15   26 1   
    29   15   30 1   
    30   16   18 1   
    31   16   42 1   
    32   18   19 1   
    33   18   20 1   
    34   18   32 1   
    35   19   20 1   
    36   19   43 1   
    37   19   44 1   
    38   20   45 1   
    39   20   46 1   
    40   26   27 1   
    41   26   47 1   
    42   26   48 1   
    43   27   28 1   
    44   27   49 1   
    45   27   50 1   
    46   28   29 1   
    47   29   30 1   
    48   29   51 1   
    49   29   52 1   
    50   30   53 1   
    51   30   54 1   
    52   31   32 1   
    53   31   55 1   
    54   31   56 1   
    55   32   57 1   
    56   32   58 1   
@<TRIPOS>SUBSTRUCTURE
     1 C28         1 TEMP              0 ****  ****    0 ROOT
