@<TRIPOS>MOLECULE
C28
   58    56     1     0     0
SMALL
bcc


@<TRIPOS>ATOM
      1 C2          5.3320   -3.3490   -0.0350 c3        1 C28      0.163000
      2 C4          5.0110   -5.7320    1.0710 c1        1 C28     -0.130000
      3 C5          2.7790   -2.1950    1.4780 c2        1 C28     -0.066000
      4 C6          4.0860   -2.0560    1.7920 c2        1 C28     -0.213000
      5 C1          5.1790   -2.2420    0.9360 c1        1 C28     -0.075000
      6 C3          5.1590   -4.6540    0.5770 c1        1 C28     -0.232000
      7 C8          1.7080   -1.8160    2.4200 c3        1 C28     -0.200000
      8 F7          6.5440   -3.2530   -0.7160 f         1 C28     -0.141000
      9 N9          2.5710    1.4600    6.7690 n3        1 C28     -0.140000
     10 C10         0.3950   -1.4270    1.6920 c3        1 C28      0.413000
     11 C11         3.6240    2.3410    7.2320 cx        1 C28     -0.098000
     12 C12         3.2850    3.7370    7.7210 c2        1 C28      0.306000
     13 C13         3.4530    2.0530    5.7640 cx        1 C28     -0.815000
     14 S14         4.4870    0.9640    4.9040 s6        1 C28      2.838000
     15 N15         5.2780    1.9810    3.9000 n3        1 C28     -0.778000
     16 N16         4.3000    4.4480    8.3050 n         1 C28     -0.345000
     17 O17         2.1310    4.1920    7.5550 o         1 C28     -0.386000
     18 C18         4.1220    5.7520    8.9360 c3        1 C28     -0.006000
     19 C19         3.0430    5.7320   10.0420 c3        1 C28     -0.233000
     20 C20         5.3960    6.1520    9.5890 c1        1 C28     -0.002000
     21 O21         5.3800    0.3860    5.8240 o         1 C28     -0.932000
     22 F22        -0.6390   -1.1620    2.5540 f         1 C28     -0.168000
     23 F23         0.4880   -0.3050    0.9080 f         1 C28     -0.168000
     24 F24        -0.0970   -2.3940    0.8510 f         1 C28     -0.168000
     25 O25         3.6760    0.0680    4.1800 o         1 C28     -0.932000
     26 C26         6.7150    2.1110    3.9690 c3        1 C28     -0.107000
     27 C27         7.1080    0.6890    0.9250 c1        1 C28     -0.059000
     28 O28         7.1300   -0.3750    1.6360 oh        1 C28     -0.197000
     29 C29         3.3700    2.6640    2.5250 c2        1 C28     -0.318000
     30 C30         4.6570    2.7430    2.9000 c2        1 C28     -0.008000
     31 C31         3.6890    6.8410    7.8970 c3        1 C28     -0.091000
     32 H4          4.8770   -6.6880    1.5140 ha        1 C28      0.232000
     33 H6          2.4530   -2.5460    0.4830 ha        1 C28      0.135000
     34 H1          4.3580   -1.6320    2.7880 ha        1 C28      0.201000
     35 H3          4.5040   -3.2080   -0.8160 h1        1 C28      0.131000
     36 H8          2.0210   -0.9490    3.0700 hc        1 C28      0.165500
     37 HN9         1.4760   -2.6860    3.0940 hc        1 C28      0.165500
     38 H11         1.6430    1.8510    6.7930 hn        1 C28      0.184000
     39 H131        4.4410    1.8290    7.7960 h1        1 C28      0.181000
     40 H132        3.0430    2.8840    5.1380 h2        1 C28      0.176000
     41 HN16        5.1810    4.0140    8.4700 hn        1 C28      0.252000
     42 H191        3.3060    4.9950   10.8360 hc        1 C28      0.101000
     43 H192        2.0580    5.4500    9.5950 hc        1 C28      0.101000
     44 H201        2.9580    6.7470   10.4980 hc        1 C28      0.101000
     45 H202        5.4040    7.1900    9.9560 ha        1 C28      0.058000
     46 H261        7.1210    1.4460    4.7790 h1        1 C28      0.111333
     47 H262        6.9980    3.1730    4.1960 h1        1 C28      0.111333
     48 H271        7.1780    1.8080    2.9840 h1        1 C28      0.111333
     49 H272        6.5400    0.6460   -0.0390 ha        1 C28     -0.015000
     50 H291        6.6080   -1.1680    1.2910 ho        1 C28      0.228000
     51 H292        2.6380    1.9590    2.9380 ha        1 C28      0.134000
     52 H301        2.9900    3.3210    1.7330 ha        1 C28      0.134000
     53 H302        5.3430    3.4580    2.3990 h4        1 C28      0.155000
     54 H321        4.9860    6.3710    6.4040 hn        1 C28      0.154000
     55 H322        4.4730    7.9180    6.3780 hn        1 C28      0.154000
     56 H311        3.4430    7.7750    8.4780 h1        1 C28      0.092500
     57 H312        2.7370    6.4850    7.4020 h1        1 C28      0.092500
     58 N32         4.7450    7.1590    6.9710 n3        1 C28     -0.360000
@<TRIPOS>BOND
     1    1    5 1   
     2    1    6 1   
     3    1    8 1   
     4    1   35 1   
     5    2    6 1   
     6    2   32 1   
     7    3    4 1   
     8    3    7 1   
     9    3   33 1   
    10    4    5 1   
    11    4   34 1   
    12    7   10 1   
    13    7   36 1   
    14    7   37 1   
    15    9   11 1   
    16    9   13 1   
    17    9   38 1   
    18   10   22 1   
    19   10   23 1   
    20   10   24 1   
    21   11   12 1   
    22   11   13 1   
    23   11   39 1   
    24   12   16 1   
    25   12   17 1   
    26   13   14 1   
    27   13   40 1   
    28   14   15 1   
    29   14   21 1   
    30   14   25 1   
    31   15   26 1   
    32   15   30 1   
    33   16   18 1   
    34   16   41 1   
    35   18   19 1   
    36   18   20 1   
    37   18   31 1   
    38   19   42 1   
    39   19   43 1   
    40   19   44 1   
    41   20   45 1   
    42   26   46 1   
    43   26   47 1   
    44   26   48 1   
    45   27   28 1   
    46   27   49 1   
    47   28   50 1   
    48   29   30 1   
    49   29   51 1   
    50   29   52 1   
    51   30   53 1   
    52   31   56 1   
    53   31   57 1   
    54   31   58 1   
    55   54   58 1   
    56   55   58 1   
@<TRIPOS>SUBSTRUCTURE
     1 C28         1 TEMP              0 ****  ****    0 ROOT
