@<TRIPOS>MOLECULE
C28
   61    63     1     0     0
SMALL
bcc


@<TRIPOS>ATOM
      1 C2          0.0060   -0.1910   -0.9410 ca        1 C28      0.256900
      2 C4          0.1980    1.3200    0.9430 ca        1 C28     -0.050000
      3 C5          1.0120    0.3840    1.6120 ca        1 C28     -0.278300
      4 C6          1.3190   -0.8410    0.9870 ca        1 C28     -0.050000
      5 C1          0.8290   -1.1320   -0.2730 ca        1 C28     -0.159500
      6 C3         -0.3050    1.0420   -0.3170 ca        1 C28     -0.159500
      7 C8          1.4870    0.6970    2.9750 c3        1 C28      0.174800
      8 F7         -0.4780   -0.4680   -2.1580 f         1 C28     -0.059900
      9 N9          2.9620    1.1030    2.8890 n4        1 C28     -0.789000
     10 C10         1.2860   -0.5010    4.0000 c3        1 C28      0.638900
     11 C11         3.7150    1.3040    4.1730 c3        1 C28      0.108500
     12 C12         3.0300    2.3740    5.0520 c         1 C28      0.521100
     13 C13         5.1540    1.7360    3.9140 c3        1 C28     -0.333600
     14 S14         6.1710    1.6910    5.3890 s6        1 C28      1.443900
     15 N15         7.6380    1.5300    4.9450 n3        1 C28     -0.811500
     16 N16         3.0460    2.1190    6.5320 n4        1 C28     -0.626800
     17 O17         2.5000    3.3820    4.6140 o         1 C28     -0.375100
     18 C18         2.6270    3.2630    7.3810 cx        1 C28     -0.058800
     19 C19         1.1270    3.4670    7.6450 cx        1 C28     -0.063900
     20 C20         1.9860    2.9400    8.7390 cx        1 C28     -0.063900
     21 O21         5.7940    2.9250    6.0300 o         1 C28     -0.706300
     22 F22         1.4190   -0.0420    5.2980 f         1 C28     -0.208633
     23 F23         0.0600   -1.0720    3.9390 f         1 C28     -0.208633
     24 F24         2.2220   -1.4930    3.9000 f         1 C28     -0.208633
     25 O25         5.5490    0.6470    6.1280 o         1 C28     -0.706300
     26 C26         8.4800    2.6470    4.5240 c3        1 C28      0.161300
     27 C27         9.9350    2.5120    5.0190 c3        1 C28      0.119900
     28 O28        10.4570    1.2420    4.6770 os        1 C28     -0.355600
     29 C29         9.7210    0.1860    5.2690 c3        1 C28      0.119900
     30 C30         8.2590    0.2130    4.7840 c3        1 C28      0.161300
     31 N32         4.6630    4.5560    8.1460 n4        1 C28     -0.845600
     32 C31         3.4670    4.5220    7.2600 c3        1 C28      0.140800
     33 H4         -0.0660    2.2760    1.4240 ha        1 C28      0.150000
     34 H6          1.9290   -1.5960    1.5110 ha        1 C28      0.150000
     35 H1          1.0550   -2.0960   -0.7640 ha        1 C28      0.202000
     36 H3         -0.9560    1.7650   -0.8410 ha        1 C28      0.202000
     37 H8          0.9280    1.5840    3.4060 hx        1 C28      0.130700
     38 HN9         3.4520    0.3630    2.3540 hn        1 C28      0.483300
     39 H11         3.7200    0.2950    4.7120 hx        1 C28      0.175700
     40 H131        5.1820    2.7700    3.4740 h1        1 C28      0.148700
     41 H132        5.6080    1.0630    3.1330 h1        1 C28      0.148700
     42 HN16        2.4020    1.3230    6.7160 hn        1 C28      0.500300
     43 H191        0.3920    2.7930    7.1590 hc        1 C28      0.135200
     44 H192        0.7410    4.5080    7.6830 hc        1 C28      0.135200
     45 H201        2.2410    3.5900    9.6010 hc        1 C28      0.135200
     46 H202        1.8750    1.8830    9.0620 hc        1 C28      0.135200
     47 H261        8.0490    3.6070    4.9250 h1        1 C28      0.082700
     48 H262        8.4920    2.6780    3.3960 h1        1 C28      0.082700
     49 H271       10.5850    3.2490    4.4700 h1        1 C28      0.097950
     50 H272        9.9970    2.6810    6.1260 h1        1 C28      0.097950
     51 H291       10.2180   -0.7540    4.9010 h1        1 C28      0.097950
     52 H292        9.7730    0.2440    6.3880 h1        1 C28      0.097950
     53 H301        7.6720   -0.5520    5.3690 h1        1 C28      0.082700
     54 H302        8.2430   -0.0520    3.6870 h1        1 C28      0.082700
     55 H321        5.0460    5.5130    8.1560 hn        1 C28      0.482467
     56 H322        4.4200    4.2920    9.1080 hn        1 C28      0.482467
     57 H311        2.8100    5.4070    7.5330 hx        1 C28      0.145200
     58 H312        3.8330    4.6760    6.1990 hx        1 C28      0.145200
     59 H92         2.9990    1.9680    2.3250 hn        1 C28      0.483300
     60 H162        4.0000    1.8190    6.8200 hn        1 C28      0.500300
     61 H323        5.3990    3.9220    7.7950 hn        1 C28      0.482467
@<TRIPOS>BOND
     1    1    5 ar  
     2    1    6 ar  
     3    1    8 1   
     4    2    3 ar  
     5    2    6 ar  
     6    2   33 1   
     7    3    4 ar  
     8    3    7 1   
     9    4    5 ar  
    10    4   34 1   
    11    5   35 1   
    12    6   36 1   
    13    7    9 1   
    14    7   10 1   
    15    7   37 1   
    16    9   11 1   
    17    9   38 1   
    18    9   59 1   
    19   10   22 1   
    20   10   23 1   
    21   10   24 1   
    22   11   12 1   
    23   11   13 1   
    24   11   39 1   
    25   12   16 1   
    26   12   17 2   
    27   13   14 1   
    28   13   40 1   
    29   13   41 1   
    30   14   15 1   
    31   14   21 2   
    32   14   25 2   
    33   15   26 1   
    34   15   30 1   
    35   16   18 1   
    36   16   42 1   
    37   16   60 1   
    38   18   19 1   
    39   18   20 1   
    40   18   32 1   
    41   19   20 1   
    42   19   43 1   
    43   19   44 1   
    44   20   45 1   
    45   20   46 1   
    46   26   27 1   
    47   26   47 1   
    48   26   48 1   
    49   27   28 1   
    50   27   49 1   
    51   27   50 1   
    52   28   29 1   
    53   29   30 1   
    54   29   51 1   
    55   29   52 1   
    56   30   53 1   
    57   30   54 1   
    58   31   32 1   
    59   31   55 1   
    60   31   56 1   
    61   31   61 1   
    62   32   57 1   
    63   32   58 1   
@<TRIPOS>SUBSTRUCTURE
     1 C28         1 TEMP              0 ****  ****    0 ROOT
