@<TRIPOS>MOLECULE
C28
   58    60     1     0     0
SMALL
bcc


@<TRIPOS>ATOM
      1 C2          5.3230    2.1450   -1.1480 ca        1 C28      0.142900
      2 C4          4.3400    0.2120   -0.0810 ca        1 C28     -0.070000
      3 C5          3.1900    0.9550    0.2040 ca        1 C28     -0.140300
      4 C6          3.1070    2.2940   -0.1950 ca        1 C28     -0.070000
      5 C1          4.1650    2.8950   -0.8680 ca        1 C28     -0.172000
      6 C3          5.4090    0.7970   -0.7520 ca        1 C28     -0.172000
      7 C8          2.0410    0.2930    0.9150 c3        1 C28      0.224800
      8 F7          6.3590    2.7220   -1.8030 f         1 C28     -0.137900
      9 N9          0.7920    0.4130    0.1850 n3        1 C28     -0.826200
     10 C10         1.8860    0.9170    2.3720 c3        1 C28      0.619900
     11 C11        -0.1490   -0.6750    0.3630 c3        1 C28      0.144500
     12 C12         0.3720   -2.0690   -0.0810 c         1 C28      0.622100
     13 C13        -1.4350   -0.4140   -0.4250 c3        1 C28     -0.306600
     14 S14        -2.0360    1.2100   -0.2300 s6        1 C28      1.460900
     15 N15        -3.5480    1.0650   -0.8160 n3        1 C28     -0.824500
     16 N16        -0.2160   -3.1580    0.5260 n         1 C28     -0.511900
     17 O17         1.2980   -2.1670   -0.9090 o         1 C28     -0.609100
     18 C18        -0.0350   -4.5060    0.0880 cx        1 C28      0.030400
     19 C19         1.3370   -5.0390   -0.2920 cx        1 C28     -0.116900
     20 C20         0.7080   -5.4900    0.9890 cx        1 C28     -0.116900
     21 O21        -2.0910    1.4960    1.1450 o         1 C28     -0.636800
     22 F22         0.9580    0.2610    3.1420 f         1 C28     -0.235967
     23 F23         3.0410    0.8340    3.1070 f         1 C28     -0.235967
     24 F24         1.5260    2.2340    2.4220 f         1 C28     -0.235967
     25 O25        -1.2890    2.0500   -1.0780 o         1 C28     -0.636800
     26 C26        -4.6670    0.6810    0.0070 c3        1 C28      0.185300
     27 C27        -5.9160    1.5430   -0.2290 c3        1 C28      0.116400
     28 O28        -6.2300    1.6420   -1.6130 os        1 C28     -0.409600
     29 C29        -5.1450    2.1530   -2.3780 c3        1 C28      0.116400
     30 C30        -3.8780    1.3050   -2.1990 c3        1 C28      0.185300
     31 C31        -1.2060   -5.0850   -0.7140 c3        1 C28      0.168800
     32 H4          4.4050   -0.8460    0.2200 ha        1 C28      0.154500
     33 H6          2.2000    2.8790    0.0350 ha        1 C28      0.154500
     34 H1          4.1060    3.9470   -1.1830 ha        1 C28      0.153500
     35 H3          6.3170    0.2190   -0.9770 ha        1 C28      0.153500
     36 H8          2.3030   -0.7940    1.1100 h1        1 C28      0.076700
     37 HN9         0.9630    0.6030   -0.7880 hn        1 C28      0.412800
     38 H11        -0.3950   -0.7040    1.4710 h1        1 C28      0.105700
     39 H131       -1.2400   -0.6200   -1.5120 h1        1 C28      0.116200
     40 H132       -2.1860   -1.1790   -0.0960 h1        1 C28      0.116200
     41 HN16       -1.0360   -3.0050    1.0700 hn        1 C28      0.322500
     42 H191        1.3980   -5.7380   -1.1450 hc        1 C28      0.082200
     43 H192        2.2010   -4.3500   -0.2610 hc        1 C28      0.082200
     44 H201        1.1320   -5.1360    1.9460 hc        1 C28      0.082200
     45 H202        0.3110   -6.5180    1.0670 hc        1 C28      0.082200
     46 H261       -4.9320   -0.3940   -0.2120 h1        1 C28      0.062200
     47 H262       -4.3760    0.7660    1.0940 h1        1 C28      0.062200
     48 H271       -6.8140    1.0500    0.2270 h1        1 C28      0.060450
     49 H272       -5.7770    2.5700    0.2000 h1        1 C28      0.060450
     50 H291       -5.4990    2.0930   -3.4410 h1        1 C28      0.060450
     51 H292       -4.9530    3.2210   -2.0940 h1        1 C28      0.060450
     52 H301       -3.0180    1.8360   -2.7000 h1        1 C28      0.062200
     53 H302       -4.0400    0.3140   -2.7150 h1        1 C28      0.062200
     54 H321       -3.1940   -5.4200   -0.5510 hn        1 C28      0.354800
     55 H322       -2.3970   -5.5240    0.8700 hn        1 C28      0.354800
     56 H311       -0.9210   -6.1380   -1.0140 h1        1 C28      0.039200
     57 H312       -1.3230   -4.4880   -1.6630 h1        1 C28      0.039200
     58 N32        -2.4580   -5.0290    0.0030 n3        1 C28     -0.926800
@<TRIPOS>BOND
     1    1    5 ar  
     2    1    6 ar  
     3    1    8 1   
     4    2    3 ar  
     5    2    6 ar  
     6    2   32 1   
     7    3    4 ar  
     8    3    7 1   
     9    4    5 ar  
    10    4   33 1   
    11    5   34 1   
    12    6   35 1   
    13    7    9 1   
    14    7   10 1   
    15    7   36 1   
    16    9   11 1   
    17    9   37 1   
    18   10   22 1   
    19   10   23 1   
    20   10   24 1   
    21   11   12 1   
    22   11   13 1   
    23   11   38 1   
    24   12   16 1   
    25   12   17 2   
    26   13   14 1   
    27   13   39 1   
    28   13   40 1   
    29   14   15 1   
    30   14   21 2   
    31   14   25 2   
    32   15   26 1   
    33   15   30 1   
    34   16   18 1   
    35   16   41 1   
    36   18   19 1   
    37   18   20 1   
    38   18   31 1   
    39   19   20 1   
    40   19   42 1   
    41   19   43 1   
    42   20   44 1   
    43   20   45 1   
    44   26   27 1   
    45   26   46 1   
    46   26   47 1   
    47   27   28 1   
    48   27   48 1   
    49   27   49 1   
    50   28   29 1   
    51   29   30 1   
    52   29   50 1   
    53   29   51 1   
    54   30   52 1   
    55   30   53 1   
    56   31   56 1   
    57   31   57 1   
    58   31   58 1   
    59   54   58 1   
    60   55   58 1   
@<TRIPOS>SUBSTRUCTURE
     1 C28         1 TEMP              0 ****  ****    0 ROOT
