@<TRIPOS>MOLECULE
C29
   24    21     1     0     0
SMALL
bcc


@<TRIPOS>ATOM
      1 O14        -1.8250   -0.4190    4.5260 o         1 C29     -0.565000
      2 C12        -1.9510    0.5000    3.5840 c1        1 C29      0.359000
      3 O13        -2.8180    1.4300    3.7140 o         1 C29     -0.565000
      4 C7         -1.1150    0.3800    2.2580 c1        1 C29     -0.100000
      5 C3         -1.5770   -0.4370    1.2120 c1        1 C29     -0.100000
      6 C1         -0.8060   -0.6040    0.0690 c1        1 C29      0.000000
      7 O4         -1.1620   -1.5530   -0.9840 o         1 C29     -0.217000
      8 C8         -0.2390   -1.8310   -1.8800 c3        1 C29     -0.021000
      9 C9          0.6360   -0.7570   -2.2650 c3        1 C29     -0.092000
     10 N5          1.2460   -0.1080   -1.2760 n3        1 C29     -0.214000
     11 C10         1.7020    1.1480   -1.7420 c3        1 C29     -0.104000
     12 C2          0.4920    0.0770   -0.0410 c2        1 C29     -0.052000
     13 C6          0.9400    0.8820    0.9970 c2        1 C29     -0.163000
     14 C11         0.1540    1.0440    2.1500 c1        1 C29     -0.112000
     15 H2         -2.4580   -0.9850    1.3320 ha        1 C29      0.167000
     16 H3          0.3020   -2.5450   -1.5380 h1        1 C29      0.086000
     17 H4          1.3440   -1.1450   -2.8520 h1        1 C29      0.070000
     18 H5          2.3730    1.5430   -1.0620 h1        1 C29      0.067333
     19 H6          0.9570    1.7410   -1.8370 h1        1 C29      0.067333
     20 H7          2.1610    1.0280   -2.6450 h1        1 C29      0.067333
     21 H8          1.7980    1.3330    0.9270 ha        1 C29      0.111000
     22 H9          0.4530    1.5780    2.8410 ha        1 C29      0.154000
     23 H10        -0.7240   -2.1720   -2.7420 h1        1 C29      0.086000
     24 H11         0.1160   -0.1260   -2.7440 h1        1 C29      0.070000
@<TRIPOS>BOND
     1    1    2 1   
     2    2    3 1   
     3    4    5 1   
     4    5   15 1   
     5    6   12 1   
     6    7    8 1   
     7    8    9 1   
     8    8   16 1   
     9    8   23 1   
    10    9   10 1   
    11    9   17 1   
    12    9   24 1   
    13   10   11 1   
    14   10   12 1   
    15   11   18 1   
    16   11   19 1   
    17   11   20 1   
    18   12   13 1   
    19   13   14 1   
    20   13   21 1   
    21   14   22 1   
@<TRIPOS>SUBSTRUCTURE
     1 C29         1 TEMP              0 ****  ****    0 ROOT
