@<TRIPOS>MOLECULE
C29
   24    25     1     0     0
SMALL
bcc


@<TRIPOS>ATOM
      1 O14         3.6070   -1.4110   -0.0600 o         1 C29     -0.830300
      2 C12         3.2160   -0.2130    0.0270 c         1 C29      0.910200
      3 O13         3.9900    0.7830    0.1000 o         1 C29     -0.830300
      4 C7          1.7170    0.0510    0.0450 ca        1 C29     -0.120600
      5 C3          0.8110   -1.0040   -0.0480 ca        1 C29     -0.100000
      6 C1         -0.5640   -0.7410   -0.0400 ca        1 C29      0.045100
      7 O4         -1.3940   -1.8510   -0.1980 os        1 C29     -0.333900
      8 C8         -2.7180   -1.6430    0.2790 c3        1 C29      0.129400
      9 C9         -3.2910   -0.3200   -0.2290 c3        1 C29      0.144800
     10 N5         -2.4780    0.8190    0.1740 nh        1 C29     -0.612000
     11 C10        -2.9290    2.0580   -0.4180 c3        1 C29      0.172100
     12 C2         -1.0720    0.5770    0.0730 ca        1 C29      0.029600
     13 C6         -0.1320    1.6240    0.1720 ca        1 C29     -0.163000
     14 C11         1.2320    1.3570    0.1580 ca        1 C29     -0.112000
     15 H2          1.1850   -2.0360   -0.1350 ha        1 C29      0.167000
     16 H3         -3.3030   -2.5060   -0.1340 h1        1 C29      0.046700
     17 H4         -3.3970   -0.3840   -1.3510 h1        1 C29      0.030700
     18 H5         -4.0510    2.0880   -0.4030 h1        1 C29      0.028033
     19 H6         -2.5440    2.9090    0.2020 h1        1 C29      0.028033
     20 H7         -2.5820    2.1990   -1.4770 h1        1 C29      0.028033
     21 H8         -0.4720    2.6650    0.2660 ha        1 C29      0.111000
     22 H9          1.9660    2.1760    0.2340 ha        1 C29      0.154000
     23 H10        -2.7200   -1.6780    1.4000 h1        1 C29      0.046700
     24 H11        -4.3180   -0.1730    0.2080 h1        1 C29      0.030700
@<TRIPOS>BOND
     1    1    2 1   
     2    2    3 1   
     3    2    4 1   
     4    4    5 ar  
     5    4   14 ar  
     6    5    6 ar  
     7    5   15 1   
     8    6    7 1   
     9    6   12 ar  
    10    7    8 1   
    11    8    9 1   
    12    8   16 1   
    13    8   23 1   
    14    9   10 1   
    15    9   17 1   
    16    9   24 1   
    17   10   11 1   
    18   10   12 1   
    19   11   18 1   
    20   11   19 1   
    21   11   20 1   
    22   12   13 ar  
    23   13   14 ar  
    24   13   21 1   
    25   14   22 1   
@<TRIPOS>SUBSTRUCTURE
     1 C29         1 TEMP              0 ****  ****    0 ROOT
