@<TRIPOS>MOLECULE
C29
   24    25     1     0     0
SMALL
bcc


@<TRIPOS>ATOM
      1 O14        -0.1180    0.1670    0.0200 o         1 C29     -0.830300
      2 C12         1.1430    0.1210    0.0810 c         1 C29      0.910200
      3 O13         1.8030    0.1330    1.1580 o         1 C29     -0.830300
      4 C7          1.9210    0.0460   -1.2260 ca        1 C29     -0.120600
      5 C3          1.2500    0.0140   -2.4480 ca        1 C29     -0.100000
      6 C1          1.9820   -0.0650   -3.6380 ca        1 C29      0.045100
      7 O4          1.2270   -0.1540   -4.8090 os        1 C29     -0.333900
      8 C8          1.9390    0.2400   -5.9760 c3        1 C29      0.129400
      9 C9          3.3180   -0.4170   -6.0350 c3        1 C29      0.144800
     10 N5          4.1310   -0.0870   -4.8730 nh        1 C29     -0.612000
     11 C10         5.3800   -0.8140   -4.8480 c3        1 C29      0.172100
     12 C2          3.3980   -0.1020   -3.6450 ca        1 C29      0.029600
     13 C6          4.0500   -0.0610   -2.3940 ca        1 C29     -0.163000
     14 C11         3.3180    0.0120   -1.2150 ca        1 C29     -0.112000
     15 H2          0.1500    0.0420   -2.4650 ha        1 C29      0.167000
     16 H3          2.0250    1.3580   -5.9990 h1        1 C29      0.046700
     17 H4          3.1780   -1.5320   -6.1470 h1        1 C29      0.030700
     18 H5          5.8060   -0.8530   -5.8860 h1        1 C29      0.027700
     19 H6          5.2780   -1.8650   -4.4630 h1        1 C29      0.027700
     20 H7          6.1000   -0.2600   -4.1910 h1        1 C29      0.027700
     21 H8          5.1470   -0.0820   -2.3420 ha        1 C29      0.111000
     22 H9          3.8280    0.0430   -0.2380 ha        1 C29      0.154000
     23 H10         1.3000   -0.1160   -6.8260 h1        1 C29      0.046700
     24 H11         3.8630   -0.0430   -6.9460 h1        1 C29      0.030700
@<TRIPOS>BOND
     1    1    2 1   
     2    2    3 1   
     3    2    4 1   
     4    4    5 ar  
     5    4   14 ar  
     6    5    6 ar  
     7    5   15 1   
     8    6    7 1   
     9    6   12 ar  
    10    7    8 1   
    11    8    9 1   
    12    8   16 1   
    13    8   23 1   
    14    9   10 1   
    15    9   17 1   
    16    9   24 1   
    17   10   11 1   
    18   10   12 1   
    19   11   18 1   
    20   11   19 1   
    21   11   20 1   
    22   12   13 ar  
    23   13   14 ar  
    24   13   21 1   
    25   14   22 1   
@<TRIPOS>SUBSTRUCTURE
     1 C29         1 TEMP              0 ****  ****    0 ROOT
