@<TRIPOS>MOLECULE
C29
   24    25     1     0     0
SMALL
bcc


@<TRIPOS>ATOM
      1 O14        -0.1210    0.1580    0.0170 o         1 C29     -0.830300
      2 C12         1.1400    0.1150    0.0790 c         1 C29      0.910200
      3 O13         1.7990    0.1260    1.1570 o         1 C29     -0.830300
      4 C7          1.9180    0.0420   -1.2270 ca        1 C29     -0.120600
      5 C3          1.2500    0.0110   -2.4500 ca        1 C29     -0.100000
      6 C1          1.9820   -0.0660   -3.6390 ca        1 C29      0.045100
      7 O4          1.2280   -0.1540   -4.8100 os        1 C29     -0.333900
      8 C8          1.9410    0.2420   -5.9760 c3        1 C29      0.129400
      9 C9          3.3200   -0.4130   -6.0360 c3        1 C29      0.144800
     10 N5          4.1320   -0.0850   -4.8720 nh        1 C29     -0.612000
     11 C10         5.3820   -0.8110   -4.8480 c3        1 C29      0.172100
     12 C2          3.3980   -0.1010   -3.6450 ca        1 C29      0.029600
     13 C6          4.0490   -0.0610   -2.3940 ca        1 C29     -0.163000
     14 C11         3.3160    0.0090   -1.2140 ca        1 C29     -0.112000
     15 H2          0.1490    0.0380   -2.4680 ha        1 C29      0.167000
     16 H3          2.0250    1.3600   -5.9980 h1        1 C29      0.046700
     17 H4          3.1810   -1.5280   -6.1490 h1        1 C29      0.030700
     18 H5          5.8090   -0.8480   -5.8840 h1        1 C29      0.028033
     19 H6          5.2800   -1.8620   -4.4650 h1        1 C29      0.028033
     20 H7          6.1010   -0.2580   -4.1880 h1        1 C29      0.028033
     21 H8          5.1460   -0.0810   -2.3400 ha        1 C29      0.111000
     22 H9          3.8250    0.0400   -0.2370 ha        1 C29      0.154000
     23 H10         1.3030   -0.1130   -6.8270 h1        1 C29      0.046700
     24 H11         3.8660   -0.0370   -6.9460 h1        1 C29      0.030700
@<TRIPOS>BOND
     1    1    2 1   
     2    2    3 1   
     3    2    4 1   
     4    4    5 ar  
     5    4   14 ar  
     6    5    6 ar  
     7    5   15 1   
     8    6    7 1   
     9    6   12 ar  
    10    7    8 1   
    11    8    9 1   
    12    8   16 1   
    13    8   23 1   
    14    9   10 1   
    15    9   17 1   
    16    9   24 1   
    17   10   11 1   
    18   10   12 1   
    19   11   18 1   
    20   11   19 1   
    21   11   20 1   
    22   12   13 ar  
    23   13   14 ar  
    24   13   21 1   
    25   14   22 1   
@<TRIPOS>SUBSTRUCTURE
     1 C29         1 TEMP              0 ****  ****    0 ROOT
