@<TRIPOS>MOLECULE
C2A
   18    18     1     0     0
SMALL
bcc


@<TRIPOS>ATOM
      1 N          -0.0150    0.0890   -0.0410 n4        1 C2A     -0.844600
      2 C           1.4810   -0.0360    0.0220 c3        1 C2A      0.174100
      3 C1          1.9560   -0.0330    1.4320 ca        1 C2A     -0.190300
      4 C2          2.2450   -1.2390    2.0790 ca        1 C2A     -0.095000
      5 C3          2.7290   -1.2230    3.3870 ca        1 C2A     -0.108000
      6 C4          2.9220   -0.0150    4.0540 ca        1 C2A     -0.070000
      7 C5          2.6310    1.1930    3.4030 ca        1 C2A      0.019400
      8 C6          2.1510    1.1880    2.0900 ca        1 C2A     -0.107000
      9 CL8         2.8650    2.6640    4.2020 cl        1 C2A     -0.029400
     10 HN1        -0.4520   -0.7050    0.4380 hn        1 C2A      0.459133
     11 HN2        -0.3300    0.1120   -1.0150 hn        1 C2A      0.459133
     12 HC1         1.9160    0.8350   -0.5510 hx        1 C2A      0.115700
     13 HC2         1.7640   -0.9960   -0.5000 hx        1 C2A      0.115700
     14 H2          2.1110   -2.2000    1.5580 ha        1 C2A      0.146000
     15 H3          2.9660   -2.1730    3.8960 ha        1 C2A      0.169000
     16 H4          3.3080   -0.0070    5.0880 ha        1 C2A      0.178000
     17 H6          1.9500    2.1400    1.5750 ha        1 C2A      0.150000
     18 HN3        -0.3100    0.9510    0.4310 hn        1 C2A      0.459133
@<TRIPOS>BOND
     1    1    2 1   
     2    1   10 1   
     3    1   11 1   
     4    1   18 1   
     5    2    3 1   
     6    2   12 1   
     7    2   13 1   
     8    3    4 ar  
     9    3    8 ar  
    10    4    5 ar  
    11    4   14 1   
    12    5    6 ar  
    13    5   15 1   
    14    6    7 ar  
    15    6   16 1   
    16    7    8 ar  
    17    7    9 1   
    18    8   17 1   
@<TRIPOS>SUBSTRUCTURE
     1 C2A         1 TEMP              0 ****  ****    0 ROOT
