@<TRIPOS>MOLECULE
C2A
   18    18     1     0     0
SMALL
bcc


@<TRIPOS>ATOM
      1 N          -0.0170    0.0930   -0.0380 nz        1 C2A     -0.844600
      2 C           1.4780   -0.0340    0.0220 c3        1 C2A      0.174100
      3 C1          1.9550   -0.0320    1.4320 ca        1 C2A     -0.190300
      4 C2          2.2480   -1.2400    2.0760 ca        1 C2A     -0.095000
      5 C3          2.7340   -1.2260    3.3830 ca        1 C2A     -0.108000
      6 C4          2.9250   -0.0180    4.0530 ca        1 C2A     -0.070000
      7 C5          2.6310    1.1900    3.4050 ca        1 C2A      0.019400
      8 C6          2.1490    1.1870    2.0930 ca        1 C2A     -0.107000
      9 Cl8         2.8620    2.6600    4.2070 cl        1 C2A     -0.029400
     10 HN1        -0.4550   -0.7020    0.4400 hn        1 C2A      0.459133
     11 HN2        -0.3340    0.1170   -1.0110 hn        1 C2A      0.459133
     12 HC1         1.9130    0.8380   -0.5500 hx        1 C2A      0.115700
     13 HC2         1.7600   -0.9930   -0.5020 hx        1 C2A      0.115700
     14 H2          2.1160   -2.2000    1.5530 ha        1 C2A      0.146000
     15 H3          2.9740   -2.1760    3.8890 ha        1 C2A      0.169000
     16 H4          3.3120   -0.0120    5.0860 ha        1 C2A      0.178000
     17 H6          1.9450    2.1400    1.5790 ha        1 C2A      0.150000
     18 HN3        -0.3110    0.9540    0.4360 hn        1 C2A      0.459133
@<TRIPOS>BOND
     1    1    2 1   
     2    1   10 1   
     3    1   11 1   
     4    1   18 1   
     5    2    3 1   
     6    2   12 1   
     7    2   13 1   
     8    3    4 ar  
     9    3    8 ar  
    10    4    5 ar  
    11    4   14 1   
    12    5    6 ar  
    13    5   15 1   
    14    6    7 ar  
    15    6   16 1   
    16    7    8 ar  
    17    7    9 1   
    18    8   17 1   
@<TRIPOS>SUBSTRUCTURE
     1 C2A         1 TEMP              0 ****  ****    0 ROOT
