@<TRIPOS>MOLECULE
C2A
   17    17     1     0     0
SMALL
bcc


@<TRIPOS>ATOM
      1 N           2.9550    1.5770   -0.4540 n3        1 C2A     -0.916800
      2 C           2.6470    0.5370    0.5020 c3        1 C2A      0.203100
      3 C1          1.3300   -0.1410    0.2580 ca        1 C2A     -0.085300
      4 C2          1.2470   -1.5370    0.3050 ca        1 C2A     -0.127000
      5 C3          0.0220   -2.1730    0.1170 ca        1 C2A     -0.124000
      6 C4         -1.1310   -1.4280   -0.1260 ca        1 C2A     -0.124000
      7 C5         -1.0440   -0.0330   -0.1750 ca        1 C2A      0.013400
      8 C6          0.1790    0.6160    0.0180 ca        1 C2A     -0.104000
      9 CL8        -2.4450    0.8860   -0.4700 cl        1 C2A     -0.096400
     10 HN1         3.9050    1.8700   -0.3500 hn        1 C2A      0.354300
     11 HN2         2.8030    1.2650   -1.3920 hn        1 C2A      0.354300
     12 HC1         3.4540   -0.2550    0.5490 h1        1 C2A      0.035700
     13 HC2         2.6060    1.0250    1.5210 h1        1 C2A      0.035700
     14 H2          2.1510   -2.1360    0.4940 ha        1 C2A      0.134000
     15 H3         -0.0380   -3.2710    0.1580 ha        1 C2A      0.137000
     16 H4         -2.0970   -1.9320   -0.2760 ha        1 C2A      0.146000
     17 H6          0.2400    1.7150   -0.0190 ha        1 C2A      0.164000
@<TRIPOS>BOND
     1    1    2 1   
     2    1   10 1   
     3    1   11 1   
     4    2    3 1   
     5    2   12 1   
     6    2   13 1   
     7    3    4 ar  
     8    3    8 ar  
     9    4    5 ar  
    10    4   14 1   
    11    5    6 ar  
    12    5   15 1   
    13    6    7 ar  
    14    6   16 1   
    15    7    8 ar  
    16    7    9 1   
    17    8   17 1   
@<TRIPOS>SUBSTRUCTURE
     1 C2A         1 TEMP              0 ****  ****    0 ROOT
