@<TRIPOS>MOLECULE
C2A
   17    15     1     0     0
SMALL
bcc


@<TRIPOS>ATOM
      1 N          -1.8580   -0.0410   -1.8150 n3        1 C2A     -0.349000
      2 C          -0.4320   -0.0410   -1.8150 c3        1 C2A     -0.041000
      3 C1          0.0720   -0.0410   -0.3890 c2        1 C2A     -0.078000
      4 C2          0.2580   -1.2400    0.2800 c2        1 C2A     -0.108000
      5 C3          0.7200   -1.2400    1.5870 c1        1 C2A     -0.126000
      6 C4          0.9960   -0.0410    2.2250 c1        1 C2A     -0.123000
      7 C5          0.8110    1.1580    1.5550 c1        1 C2A     -0.063000
      8 C6          0.3490    1.1590    0.2480 c1        1 C2A     -0.123000
      9 CL8         1.1700    2.6670    2.3530 cl        1 C2A     -0.020000
     10 HN1        -2.1620    0.7190   -2.2180 hn        1 C2A      0.148500
     11 HN2        -2.1620   -0.7690   -2.2720 hn        1 C2A      0.148500
     12 HC1        -0.1070   -0.8380   -2.2760 h1        1 C2A      0.075500
     13 HC2        -0.1070    0.7560   -2.2760 h1        1 C2A      0.075500
     14 H2          0.0630   -2.0850   -0.1680 ha        1 C2A      0.152000
     15 H3          0.8500   -2.0850    2.0590 ha        1 C2A      0.138000
     16 H4          1.3220   -0.0410    3.1450 ha        1 C2A      0.147000
     17 H6          0.2180    2.0030   -0.2230 ha        1 C2A      0.145000
@<TRIPOS>BOND
     1    1    2 1   
     2    1   10 1   
     3    1   11 1   
     4    2    3 1   
     5    2   12 1   
     6    2   13 1   
     7    3    4 1   
     8    3    8 1   
     9    4    5 1   
    10    4   14 1   
    11    5   15 1   
    12    6    7 1   
    13    6   16 1   
    14    7    9 1   
    15    8   17 1   
@<TRIPOS>SUBSTRUCTURE
     1 C2A         1 TEMP              0 ****  ****    0 ROOT
