@<TRIPOS>MOLECULE
C2A
   18    18     1     0     0
SMALL
bcc


@<TRIPOS>ATOM
      1 N          -0.0170    0.0840   -0.0380 n4        1 C2A     -0.844600
      2 C           1.4790   -0.0380    0.0230 c3        1 C2A      0.174100
      3 C1          1.9550   -0.0330    1.4320 ca        1 C2A     -0.190300
      4 C2          2.2530   -1.2380    2.0780 ca        1 C2A     -0.095000
      5 C3          2.7390   -1.2200    3.3850 ca        1 C2A     -0.108000
      6 C4          2.9250   -0.0100    4.0530 ca        1 C2A     -0.070000
      7 C5          2.6260    1.1960    3.4030 ca        1 C2A      0.019400
      8 C6          2.1440    1.1880    2.0910 ca        1 C2A     -0.107000
      9 CL8         2.8510    2.6680    4.2030 cl        1 C2A     -0.029400
     10 HN1        -0.4530   -0.7110    0.4410 hn        1 C2A      0.459133
     11 HN2        -0.3340    0.1060   -1.0120 hn        1 C2A      0.459133
     12 HC1         1.9110    0.8330   -0.5520 hx        1 C2A      0.115700
     13 HC2         1.7630   -0.9980   -0.5000 hx        1 C2A      0.115700
     14 H2          2.1250   -2.1990    1.5560 ha        1 C2A      0.146000
     15 H3          2.9830   -2.1680    3.8930 ha        1 C2A      0.169000
     16 H4          3.3120   -0.0010    5.0860 ha        1 C2A      0.178000
     17 H6          1.9370    2.1400    1.5760 ha        1 C2A      0.150000
     18 HN3        -0.3140    0.9450    0.4340 hn        1 C2A      0.459133
@<TRIPOS>BOND
     1    1    2 1   
     2    1   10 1   
     3    1   11 1   
     4    1   18 1   
     5    2    3 1   
     6    2   12 1   
     7    2   13 1   
     8    3    4 ar  
     9    3    8 ar  
    10    4    5 ar  
    11    4   14 1   
    12    5    6 ar  
    13    5   15 1   
    14    6    7 ar  
    15    6   16 1   
    16    7    8 ar  
    17    7    9 1   
    18    8   17 1   
@<TRIPOS>SUBSTRUCTURE
     1 C2A         1 TEMP              0 ****  ****    0 ROOT
