@<TRIPOS>MOLECULE
C2B
   17    15     1     0     0
SMALL
bcc


@<TRIPOS>ATOM
      1 N1         -1.8640   -0.0020   -1.8370 n3        1 C2B     -0.349000
      2 CB         -0.4390   -0.0020   -1.8370 c3        1 C2B     -0.041000
      3 CG          0.0660   -0.0020   -0.4110 c2        1 C2B     -0.086000
      4 CD1         0.2480   -1.2010    0.2600 c2        1 C2B     -0.101000
      5 CE1         0.7100   -1.2010    1.5670 c1        1 C2B     -0.128000
      6 CZ          0.9900   -0.0020    2.2030 c1        1 C2B     -0.060000
      7 CE2         0.8080    1.1970    1.5320 c1        1 C2B     -0.127000
      8 CD2         0.3460    1.1970    0.2260 c1        1 C2B     -0.119000
      9 CL          1.5900   -0.0030    3.8400 cl        1 C2B     -0.019000
     10 HN11       -2.1690   -0.7290   -2.2960 hn        1 C2B      0.148500
     11 HN12       -2.1690    0.7590   -2.2370 hn        1 C2B      0.148500
     12 HB1        -0.1130    0.7950   -2.2970 h1        1 C2B      0.074500
     13 HB2        -0.1130   -0.7990   -2.2970 h1        1 C2B      0.074500
     14 HD1         0.0510   -2.0460   -0.1880 ha        1 C2B      0.154000
     15 HE1         0.8380   -2.0460    2.0390 ha        1 C2B      0.148000
     16 HE2         1.0050    2.0420    1.9800 ha        1 C2B      0.146000
     17 HD2         0.2170    2.0420   -0.2470 ha        1 C2B      0.135000
@<TRIPOS>BOND
     1    1    2 1   
     2    1   10 1   
     3    1   11 1   
     4    2    3 1   
     5    2   12 1   
     6    2   13 1   
     7    3    4 1   
     8    3    8 1   
     9    4    5 1   
    10    4   14 1   
    11    5   15 1   
    12    6    7 1   
    13    6    9 1   
    14    7   16 1   
    15    8   17 1   
@<TRIPOS>SUBSTRUCTURE
     1 C2B         1 TEMP              0 ****  ****    0 ROOT
