@<TRIPOS>MOLECULE
C2B
   17    17     1     0     0
SMALL
bcc


@<TRIPOS>ATOM
      1 N1          3.6800    0.4860   -0.6500 n3        1 C2B     -0.916800
      2 CB          2.9560   -0.1800    0.4090 c3        1 C2B      0.203100
      3 CG          1.4640   -0.1130    0.2580 ca        1 C2B     -0.093300
      4 CD1         0.6940   -1.2660    0.4430 ca        1 C2B     -0.110000
      5 CE1        -0.6940   -1.2120    0.3420 ca        1 C2B     -0.127500
      6 CZ         -1.3170    0.0050    0.0500 ca        1 C2B      0.018400
      7 CE2        -0.5570    1.1640   -0.1380 ca        1 C2B     -0.127500
      8 CD2         0.8310    1.1010   -0.0320 ca        1 C2B     -0.110000
      9 CL         -3.0110    0.0770   -0.0780 cl        1 C2B     -0.097400
     10 HN11        4.6550    0.2690   -0.5900 hn        1 C2B      0.353300
     11 HN12        3.3340    0.2210   -1.5500 hn        1 C2B      0.353300
     12 HB1         3.2580   -1.2660    0.5180 h1        1 C2B      0.035200
     13 HB2         3.2340    0.3350    1.3760 h1        1 C2B      0.035200
     14 HD1         1.1830   -2.2250    0.6710 ha        1 C2B      0.144500
     15 HE1        -1.2940   -2.1230    0.4900 ha        1 C2B      0.147000
     16 HE2        -1.0490    2.1210   -0.3680 ha        1 C2B      0.147000
     17 HD2         1.4330    2.0120   -0.1760 ha        1 C2B      0.144500
@<TRIPOS>BOND
     1    1    2 1   
     2    1   10 1   
     3    1   11 1   
     4    2    3 1   
     5    2   12 1   
     6    2   13 1   
     7    3    4 ar  
     8    3    8 ar  
     9    4    5 ar  
    10    4   14 1   
    11    5    6 ar  
    12    5   15 1   
    13    6    7 ar  
    14    6    9 1   
    15    7    8 ar  
    16    7   16 1   
    17    8   17 1   
@<TRIPOS>SUBSTRUCTURE
     1 C2B         1 TEMP              0 ****  ****    0 ROOT
