@<TRIPOS>MOLECULE
C2B
   18    18     1     0     0
SMALL
bcc


@<TRIPOS>ATOM
      1 N1         -0.0190    0.0000   -0.0400 n4        1 C2B     -0.845600
      2 CB          1.4830    0.0010    0.0240 c3        1 C2B      0.177100
      3 CG          1.9540    0.0010    1.4340 ca        1 C2B     -0.210300
      4 CD1         2.1970   -1.2120    2.0910 ca        1 C2B     -0.085000
      5 CE1         2.6750   -1.2170    3.3980 ca        1 C2B     -0.119000
      6 CZ          2.9160   -0.0010    4.0540 ca        1 C2B      0.062400
      7 CE2         2.6800    1.2150    3.3970 ca        1 C2B     -0.119000
      8 CD2         2.2010    1.2130    2.0910 ca        1 C2B     -0.085000
      9 CL          3.4960   -0.0020    5.6380 cl        1 C2B     -0.017400
     10 HN11       -0.3870   -0.8310    0.4340 hn        1 C2B      0.458467
     11 HN12       -0.3340    0.0010   -1.0140 hn        1 C2B      0.458467
     12 HB1         1.8440   -0.9170   -0.5250 hx        1 C2B      0.113700
     13 HB2         1.8430    0.9210   -0.5230 hx        1 C2B      0.113700
     14 HD1         2.0290   -2.1710    1.5740 ha        1 C2B      0.144000
     15 HE1         2.8720   -2.1730    3.9110 ha        1 C2B      0.176000
     16 HE2         2.8800    2.1710    3.9100 ha        1 C2B      0.176000
     17 HD2         2.0360    2.1710    1.5740 ha        1 C2B      0.144000
     18 H13        -0.3880    0.8310    0.4350 hn        1 C2B      0.458467
@<TRIPOS>BOND
     1    1    2 1   
     2    1   10 1   
     3    1   11 1   
     4    1   18 1   
     5    2    3 1   
     6    2   12 1   
     7    2   13 1   
     8    3    4 ar  
     9    3    8 ar  
    10    4    5 ar  
    11    4   14 1   
    12    5    6 ar  
    13    5   15 1   
    14    6    7 ar  
    15    6    9 1   
    16    7    8 ar  
    17    7   16 1   
    18    8   17 1   
@<TRIPOS>SUBSTRUCTURE
     1 C2B         1 TEMP              0 ****  ****    0 ROOT
