@<TRIPOS>MOLECULE
C2B
   18    18     1     0     0
SMALL
bcc


@<TRIPOS>ATOM
      1 N1         -0.0190    0.0020   -0.0400 n4        1 C2B     -0.845600
      2 CB          1.4820    0.0000    0.0240 c3        1 C2B      0.177100
      3 CG          1.9540   -0.0000    1.4340 ca        1 C2B     -0.210300
      4 CD1         2.1980   -1.2130    2.0910 ca        1 C2B     -0.085000
      5 CE1         2.6770   -1.2160    3.3970 ca        1 C2B     -0.119000
      6 CZ          2.9160   -0.0010    4.0540 ca        1 C2B      0.062400
      7 CE2         2.6790    1.2150    3.3970 ca        1 C2B     -0.119000
      8 CD2         2.2000    1.2120    2.0910 ca        1 C2B     -0.085000
      9 CL          3.4970   -0.0010    5.6380 cl        1 C2B     -0.017400
     10 HN11       -0.3880   -0.8290    0.4350 hn        1 C2B      0.458467
     11 HN12       -0.3870    0.8330    0.4350 hn        1 C2B      0.458467
     12 HB1         1.8420   -0.9190   -0.5240 hx        1 C2B      0.113700
     13 HB2         1.8440    0.9180   -0.5240 hx        1 C2B      0.113700
     14 HD1         2.0300   -2.1710    1.5740 ha        1 C2B      0.144000
     15 HE1         2.8740   -2.1730    3.9110 ha        1 C2B      0.176000
     16 HE2         2.8780    2.1720    3.9100 ha        1 C2B      0.176000
     17 HD2         2.0340    2.1710    1.5740 ha        1 C2B      0.144000
     18 H13        -0.3350    0.0020   -1.0140 hn        1 C2B      0.458467
@<TRIPOS>BOND
     1    1    2 1   
     2    1   10 1   
     3    1   11 1   
     4    1   18 1   
     5    2    3 1   
     6    2   12 1   
     7    2   13 1   
     8    3    4 ar  
     9    3    8 ar  
    10    4    5 ar  
    11    4   14 1   
    12    5    6 ar  
    13    5   15 1   
    14    6    7 ar  
    15    6    9 1   
    16    7    8 ar  
    17    7   16 1   
    18    8   17 1   
@<TRIPOS>SUBSTRUCTURE
     1 C2B         1 TEMP              0 ****  ****    0 ROOT
