@<TRIPOS>MOLECULE
C2B
   18    18     1     0     0
SMALL
bcc


@<TRIPOS>ATOM
      1 N1         -0.0180    0.0000   -0.0420 nz        1 C2B     -0.845600
      2 CB          1.4840    0.0010    0.0240 c3        1 C2B      0.177100
      3 CG          1.9540    0.0010    1.4340 ca        1 C2B     -0.210300
      4 CD1         2.1980   -1.2120    2.0910 ca        1 C2B     -0.085000
      5 CE1         2.6760   -1.2160    3.3980 ca        1 C2B     -0.119000
      6 CZ          2.9140   -0.0010    4.0550 ca        1 C2B      0.062400
      7 CE2         2.6770    1.2160    3.3990 ca        1 C2B     -0.119000
      8 CD2         2.1990    1.2130    2.0920 ca        1 C2B     -0.085000
      9 Cl          3.4930   -0.0020    5.6390 cl        1 C2B     -0.017400
     10 HN11       -0.3860   -0.8310    0.4320 hn        1 C2B      0.458467
     11 HN12       -0.3870    0.8300    0.4330 hn        1 C2B      0.458467
     12 HB1         1.8460   -0.9170   -0.5250 hx        1 C2B      0.113700
     13 HB2         1.8450    0.9210   -0.5230 hx        1 C2B      0.113700
     14 HD1         2.0320   -2.1710    1.5730 ha        1 C2B      0.144000
     15 HE1         2.8730   -2.1730    3.9110 ha        1 C2B      0.176000
     16 HE2         2.8750    2.1710    3.9120 ha        1 C2B      0.176000
     17 HD2         2.0330    2.1710    1.5750 ha        1 C2B      0.144000
     18 H13        -0.3320    0.0010   -1.0160 hn        1 C2B      0.458467
@<TRIPOS>BOND
     1    1    2 1   
     2    1   10 1   
     3    1   11 1   
     4    1   18 1   
     5    2    3 1   
     6    2   12 1   
     7    2   13 1   
     8    3    4 ar  
     9    3    8 ar  
    10    4    5 ar  
    11    4   14 1   
    12    5    6 ar  
    13    5   15 1   
    14    6    7 ar  
    15    6    9 1   
    16    7    8 ar  
    17    7   16 1   
    18    8   17 1   
@<TRIPOS>SUBSTRUCTURE
     1 C2B         1 TEMP              0 ****  ****    0 ROOT
