@<TRIPOS>MOLECULE
C2D
   64    67     1     0     0
SMALL
bcc


@<TRIPOS>ATOM
      1 O1          0.2420    1.6510   -0.3820 oh        1 C2D     -0.594800
      2 CL2        -1.1410    4.2690   -6.7530 cl        1 C2D     -0.049400
      3 CL3         3.5580   -1.5600   -0.8200 cl        1 C2D     -0.202400
      4 C4         -1.0890    2.5500   -8.8140 ca        1 C2D     -0.110000
      5 C5         -0.6940    1.3880   -9.4490 ca        1 C2D     -0.043000
      6 C6         -0.6500    2.8300   -7.4990 ca        1 C2D      0.059400
      7 C7          0.1400    0.4810   -8.7770 ca        1 C2D     -0.135100
      8 C8          0.1760    1.9490   -6.8140 ca        1 C2D     -0.158000
      9 C9          0.5710    0.7630   -7.4500 ca        1 C2D     -0.051800
     10 S10         0.7750   -0.9820   -9.3110 ss        1 C2D      0.278500
     11 C11         1.5700   -1.2970   -7.9030 cc        1 C2D     -0.135400
     12 C12         1.4090   -0.3000   -6.9540 cd        1 C2D     -0.246400
     13 C13         2.0490   -0.2710   -5.6340 c3        1 C2D      0.218000
     14 N14         1.0140   -0.4970   -4.5480 n4        1 C2D     -0.769000
     15 C15         1.6040   -0.4140   -3.1890 c3        1 C2D      0.049800
     16 C16         0.5510   -0.6510   -2.0760 c3        1 C2D      0.183800
     17 C17         1.8640   -1.6500   -0.2310 c3        1 C2D      0.277900
     18 N18         1.0280   -0.5860   -0.7220 n3        1 C2D     -0.803600
     19 C19         1.8990   -1.6980    1.3180 c3        1 C2D      0.094800
     20 C20         1.3090    0.7450   -0.1790 c3        1 C2D      0.344000
     21 N21         1.9010   -0.4360    1.9900 n2        1 C2D     -0.482900
     22 C22         1.6290    0.6460    1.3410 c2        1 C2D      0.424200
     23 N23         1.6180    1.9430    2.0490 n4        1 C2D     -0.735000
     24 C24         2.9850    2.3720    2.4910 c3        1 C2D      0.126800
     25 C25         2.9920    3.7510    3.1390 c3        1 C2D     -0.117400
     26 C26         2.0960    5.2370    4.9450 c3        1 C2D     -0.101400
     27 C27         1.7520    4.0960    3.9760 c3        1 C2D      0.136500
     28 C28         0.8750    5.6160    5.7580 c3        1 C2D     -0.084400
     29 N29         1.1660    2.9210    4.6320 n3        1 C2D     -0.852200
     30 C30         0.2600    4.4120    6.4400 c3        1 C2D     -0.113400
     31 C31         0.0100    3.2810    5.4430 c3        1 C2D      0.144800
     32 H1         -0.5940    1.2560   -0.0870 ho        1 C2D      0.446000
     33 H8          0.5440    2.1920   -5.8080 ha        1 C2D      0.120000
     34 H11         2.1780   -2.1960   -7.7620 h4        1 C2D      0.189000
     35 H131        2.8310   -1.0760   -5.5320 hx        1 C2D      0.106700
     36 H132        2.5180    0.7370   -5.4340 hx        1 C2D      0.106700
     37 H14         0.5840   -1.4190   -4.6890 hn        1 C2D      0.452800
     38 H151        2.4260   -1.1850   -3.1200 hx        1 C2D      0.113200
     39 H152        2.0660    0.6070   -3.0710 hx        1 C2D      0.113200
     40 H161       -0.2660    0.1230   -2.1810 h1        1 C2D      0.088700
     41 H162        0.0930   -1.6740   -2.2180 h1        1 C2D      0.088700
     42 H117        1.4810   -2.6350   -0.6220 h2        1 C2D      0.125700
     43 H19         0.9970   -2.2740    1.6900 h1        1 C2D      0.141200
     44 H191        2.8240   -2.2560    1.6590 h1        1 C2D      0.141200
     45 H220        2.1910    1.2420   -0.6980 h2        1 C2D      0.100700
     46 H23         1.0200    1.8950    2.9180 hn        1 C2D      0.488800
     47 H241        3.6650    2.3660    1.5930 hx        1 C2D      0.104200
     48 H242        3.3530    1.5990    3.2280 hx        1 C2D      0.104200
     49 H251        3.9110    3.7940    3.7870 hc        1 C2D      0.091700
     50 H252        3.1020    4.5440    2.3530 hc        1 C2D      0.091700
     51 H26         2.9270    4.9220    5.6280 hc        1 C2D      0.063200
     52 H261        2.4540    6.1210    4.3570 hc        1 C2D      0.063200
     53 H227        0.9540    4.4870    3.2730 h1        1 C2D      0.055700
     54 H28         1.1660    6.3760    6.5310 hc        1 C2D      0.063700
     55 H281        0.1140    6.0980    5.0880 hc        1 C2D      0.063700
     56 H30         0.9360    4.0530    7.2600 hc        1 C2D      0.069200
     57 H301       -0.7160    4.6990    6.9120 hc        1 C2D      0.069200
     58 H31        -0.8180    3.5840    4.7420 h1        1 C2D      0.063700
     59 H311       -0.3220    2.3580    5.9970 h1        1 C2D      0.063700
     60 HN1         1.8610    2.4920    5.2200 hn        1 C2D      0.368800
     61 H4         -1.7430    3.2720   -9.3340 ha        1 C2D      0.178000
     62 H142        0.2740    0.2090   -4.6600 hn        1 C2D      0.452800
     63 H232        1.2150    2.6490    1.4190 hn        1 C2D      0.488800
     64 H5         -1.0270    1.1750  -10.4790 ha        1 C2D      0.169000
@<TRIPOS>BOND
     1    1   20 1   
     2    1   32 1   
     3    2    6 1   
     4    3   17 1   
     5    4    5 ar  
     6    4    6 ar  
     7    4   61 1   
     8    5    7 ar  
     9    5   64 1   
    10    6    8 ar  
    11    7    9 ar  
    12    7   10 1   
    13    8    9 ar  
    14    8   33 1   
    15    9   12 1   
    16   10   11 1   
    17   11   12 2   
    18   11   34 1   
    19   12   13 1   
    20   13   14 1   
    21   13   35 1   
    22   13   36 1   
    23   14   15 1   
    24   14   37 1   
    25   14   62 1   
    26   15   16 1   
    27   15   38 1   
    28   15   39 1   
    29   16   18 1   
    30   16   40 1   
    31   16   41 1   
    32   17   18 1   
    33   17   19 1   
    34   17   42 1   
    35   18   20 1   
    36   19   21 1   
    37   19   43 1   
    38   19   44 1   
    39   20   22 1   
    40   20   45 1   
    41   21   22 2   
    42   22   23 1   
    43   23   24 1   
    44   23   46 1   
    45   23   63 1   
    46   24   25 1   
    47   24   47 1   
    48   24   48 1   
    49   25   27 1   
    50   25   49 1   
    51   25   50 1   
    52   26   27 1   
    53   26   28 1   
    54   26   51 1   
    55   26   52 1   
    56   27   29 1   
    57   27   53 1   
    58   28   30 1   
    59   28   54 1   
    60   28   55 1   
    61   29   31 1   
    62   29   60 1   
    63   30   31 1   
    64   30   56 1   
    65   30   57 1   
    66   31   58 1   
    67   31   59 1   
@<TRIPOS>SUBSTRUCTURE
     1 C2D         1 TEMP              0 ****  ****    0 ROOT
