@<TRIPOS>MOLECULE
C2D
   62    59     1     0     0
SMALL
bcc


@<TRIPOS>ATOM
      1 O1         -0.6060   -0.4990    0.7320 oh        1 C2D     -0.334000
      2 CL2        -3.6880    4.8250   -8.3190 cl        1 C2D     -0.013000
      3 CL3        -0.4160    2.1030    0.5750 cl        1 C2D     -0.206000
      4 C4         -3.4080    6.4770   -6.3800 c1        1 C2D     -0.118000
      5 C5         -2.9250    7.0140   -5.1690 c1        1 C2D     -0.083000
      6 C6         -2.9890    5.2210   -6.8020 c2        1 C2D     -0.061000
      7 C7         -2.0440    6.3020   -4.4070 c1        1 C2D     -0.311000
      8 C8         -2.0810    4.4800   -6.0220 c2        1 C2D     -0.094000
      9 C9         -1.6080    5.0000   -4.8410 c1        1 C2D     -0.056000
     10 S10        -1.3770    6.5980   -2.9890 s         1 C2D      0.514000
     11 C11        -0.5050    5.3610   -2.6160 c1        1 C2D     -0.384000
     12 C12        -0.6230    4.3850   -3.7070 c1        1 C2D     -0.133000
     13 C13         0.6840    3.6210   -3.6780 c2        1 C2D     -0.021000
     14 N14         0.4340    2.2440   -3.2670 n3        1 C2D     -0.291000
     15 C15         1.3870    1.8550   -2.2150 c3        1 C2D     -0.085000
     16 C16         0.7610    0.6230   -1.3600 c3        1 C2D     -0.058000
     17 C17         1.3350    1.6300    0.3910 c3        1 C2D      0.022000
     18 N18         1.3710    0.5760   -0.0890 n3        1 C2D     -0.305000
     19 C19         2.1110    1.7790    1.9730 c3        1 C2D     -0.076000
     20 C20         0.7700   -0.5720    0.7300 c3        1 C2D      0.123000
     21 N21         1.6790    0.8330    2.8240 n2        1 C2D     -0.244000
     22 C22         1.3110   -0.6160    2.1560 c2        1 C2D      0.063000
     23 N23         1.9650   -1.7940    2.6250 n3        1 C2D     -0.299000
     24 C24         1.6760   -2.3060    3.9670 c3        1 C2D     -0.036000
     25 C25         1.8060   -3.8070    3.9670 c3        1 C2D     -0.170000
     26 C26        -0.0350   -4.6180    2.5240 c3        1 C2D     -0.151000
     27 C27         0.4310   -4.4390    3.9720 c3        1 C2D     -0.024000
     28 C28        -1.2900   -5.3950    2.4240 c3        1 C2D     -0.157000
     29 N29         0.4980   -5.6860    4.6860 n3        1 C2D     -0.298000
     30 C30        -1.2180   -6.6520    3.1450 c3        1 C2D     -0.156000
     31 C31        -0.7510   -6.4670    4.5920 c3        1 C2D     -0.071000
     32 H1         -0.9280   -1.2200    1.0630 ho        1 C2D      0.223000
     33 H4         -3.9590    7.0310   -6.9710 ha        1 C2D      0.150000
     34 H5         -3.2270    7.9130   -4.8690 ha        1 C2D      0.143000
     35 H8         -1.7630    3.6320   -6.3330 ha        1 C2D      0.153000
     36 H11         0.1180    5.2990   -1.8450 DU        1 C2D      0.173000
     37 H131        1.2980    4.0490   -3.0400 h4        1 C2D      0.103000
     38 H132        1.0880    3.6250   -4.5770 h4        1 C2D      0.103000
     39 H14        -0.4350    2.1670   -2.9410 hn        1 C2D      0.156000
     40 H151        2.2440    1.5730   -2.6320 h1        1 C2D      0.077500
     41 H152        1.5550    2.6380   -1.6010 h1        1 C2D      0.077500
     42 H161       -0.1720    0.7540   -1.2570 h1        1 C2D      0.102000
     43 H162        0.9170   -0.2010   -1.8210 h1        1 C2D      0.102000
     44 H117        1.7780    2.2860   -0.2470 h2        1 C2D      0.133000
     45 H19         3.1020    1.9260    1.8970 h1        1 C2D      0.117000
     46 H191        1.8490    2.6220    2.3680 h1        1 C2D      0.117000
     47 H220        0.9120   -1.4430    0.2730 h2        1 C2D      0.139000
     48 H23         2.5750   -2.2200    2.0950 hn        1 C2D      0.214000
     49 H241        0.7820   -2.0590    4.2180 h1        1 C2D      0.090500
     50 H242        2.3060   -1.9290    4.5990 h1        1 C2D      0.090500
     51 H251        2.2830   -4.0840    4.7400 hc        1 C2D      0.095500
     52 H252        2.2890   -4.0880    3.1690 hc        1 C2D      0.095500
     53 H26         0.6830   -5.0990    2.0090 hc        1 C2D      0.085000
     54 H261       -0.1730   -3.7480    2.1310 hc        1 C2D      0.085000
     55 H227       -0.1920   -3.8410    4.4360 h1        1 C2D      0.069000
     56 H28        -2.0120   -4.8710    2.7840 hc        1 C2D      0.080500
     57 H281       -1.4750   -5.5830    1.4680 hc        1 C2D      0.080500
     58 H30        -0.5740   -7.2620    2.6720 hc        1 C2D      0.086000
     59 H301       -2.1600   -7.0950    3.1460 hc        1 C2D      0.086000
     60 H31        -1.4470   -6.0050    5.0910 h1        1 C2D      0.066500
     61 H311       -0.6100   -7.3250    4.9820 h1        1 C2D      0.066500
     62 HN1         0.6910   -5.5220    5.5720 hn        1 C2D      0.154000
@<TRIPOS>BOND
     1    1   20 1   
     2    1   32 1   
     3    2    6 1   
     4    3   17 1   
     5    4    6 1   
     6    4   33 1   
     7    5    7 1   
     8    5   34 1   
     9    6    8 1   
    10    8    9 1   
    11    8   35 1   
    12   10   11 1   
    13   11   12 1   
    14   13   14 1   
    15   13   37 1   
    16   13   38 1   
    17   14   15 1   
    18   14   39 1   
    19   15   16 1   
    20   15   40 1   
    21   15   41 1   
    22   16   18 1   
    23   16   42 1   
    24   16   43 1   
    25   17   18 1   
    26   17   19 1   
    27   17   44 1   
    28   18   20 1   
    29   19   21 1   
    30   19   45 1   
    31   19   46 1   
    32   20   22 1   
    33   20   47 1   
    34   21   22 1   
    35   22   23 1   
    36   23   24 1   
    37   23   48 1   
    38   24   25 1   
    39   24   49 1   
    40   24   50 1   
    41   25   27 1   
    42   25   51 1   
    43   25   52 1   
    44   26   27 1   
    45   26   28 1   
    46   26   53 1   
    47   26   54 1   
    48   27   29 1   
    49   27   55 1   
    50   28   30 1   
    51   28   56 1   
    52   28   57 1   
    53   29   31 1   
    54   29   62 1   
    55   30   31 1   
    56   30   58 1   
    57   30   59 1   
    58   31   60 1   
    59   31   61 1   
@<TRIPOS>SUBSTRUCTURE
     1 C2D         1 TEMP              0 ****  ****    0 ROOT
