@<TRIPOS>MOLECULE
C2D
   64    67     1     0     0
SMALL
bcc


@<TRIPOS>ATOM
      1 O1          0.2390    1.6360   -0.3770 oh        1 C2D     -0.594800
      2 CL2        -1.2480    4.2430   -6.7290 cl        1 C2D     -0.049400
      3 CL3         3.6200   -1.5030   -0.8460 cl        1 C2D     -0.202400
      4 C4         -1.1610    2.5370   -8.7990 ca        1 C2D     -0.110000
      5 C5         -0.7400    1.3870   -9.4410 ca        1 C2D     -0.043000
      6 C6         -0.7240    2.8210   -7.4840 ca        1 C2D      0.059400
      7 C7          0.1190    0.4990   -8.7770 ca        1 C2D     -0.135100
      8 C8          0.1280    1.9580   -6.8080 ca        1 C2D     -0.158000
      9 C9          0.5500    0.7850   -7.4510 ca        1 C2D     -0.051800
     10 S10         0.7880   -0.9450   -9.3220 ss        1 C2D      0.278500
     11 C11         1.5980   -1.2460   -7.9190 cc        1 C2D     -0.135400
     12 C12         1.4160   -0.2580   -6.9640 cd        1 C2D     -0.246400
     13 C13         2.0620   -0.2190   -5.6470 c3        1 C2D      0.218000
     14 N14         1.0380   -0.4760   -4.5580 n4        1 C2D     -0.769000
     15 C15         1.6310   -0.3860   -3.2010 c3        1 C2D      0.049800
     16 C16         0.5890   -0.6500   -2.0840 c3        1 C2D      0.183800
     17 C17         1.9310   -1.6300   -0.2510 c3        1 C2D      0.277900
     18 N18         1.0700   -0.5820   -0.7320 n3        1 C2D     -0.803600
     19 C19         1.9740   -1.6860    1.2980 c3        1 C2D      0.094800
     20 C20         1.3260    0.7510   -0.1840 c3        1 C2D      0.344000
     21 N21         1.9540   -0.4280    1.9770 n2        1 C2D     -0.482900
     22 C22         1.6560    0.6520    1.3340 c2        1 C2D      0.424200
     23 N23         1.6220    1.9450    2.0490 n4        1 C2D     -0.735000
     24 C24         2.9820    2.4010    2.4840 c3        1 C2D      0.126800
     25 C25         2.9630    3.7770    3.1400 c3        1 C2D     -0.117400
     26 C26         2.0480    5.2330    4.9600 c3        1 C2D     -0.101400
     27 C27         1.7220    4.0900    3.9870 c3        1 C2D      0.136500
     28 C28         0.8240    5.5810    5.7840 c3        1 C2D     -0.084400
     29 N29         1.1660    2.9000    4.6400 n3        1 C2D     -0.852200
     30 C30         0.2390    4.3600    6.4620 c3        1 C2D     -0.113400
     31 C31         0.0070    3.2300    5.4610 c3        1 C2D      0.144800
     32 H1         -0.5870    1.2220   -0.0800 ho        1 C2D      0.446000
     33 H8          0.4950    2.2060   -5.8030 ha        1 C2D      0.120000
     34 H11         2.2290   -2.1300   -7.7850 h4        1 C2D      0.189000
     35 H131        2.5060    0.7980   -5.4440 hx        1 C2D      0.106700
     36 H132        2.8640   -1.0060   -5.5520 hx        1 C2D      0.106700
     37 H14         0.6290   -1.4060   -4.7010 hn        1 C2D      0.452800
     38 H151        2.4710   -1.1380   -3.1380 hx        1 C2D      0.113200
     39 H152        2.0710    0.6460   -3.0800 hx        1 C2D      0.113200
     40 H161        0.1520   -1.6820   -2.2300 h1        1 C2D      0.088700
     41 H162       -0.2450    0.1070   -2.1820 h1        1 C2D      0.088700
     42 H117        1.5670   -2.6220   -0.6440 h2        1 C2D      0.125700
     43 H19         1.0860   -2.2820    1.6710 h1        1 C2D      0.141200
     44 H191        2.9120   -2.2270    1.6320 h1        1 C2D      0.141200
     45 H220        2.1950    1.2700   -0.7040 h2        1 C2D      0.100700
     46 H23         1.2000    2.6450    1.4250 hn        1 C2D      0.488800
     47 H241        3.3710    1.6320    3.2150 hx        1 C2D      0.104200
     48 H242        3.6560    2.4140    1.5820 hx        1 C2D      0.104200
     49 H251        3.0510    4.5760    2.3580 hc        1 C2D      0.091700
     50 H252        3.8860    3.8360    3.7820 hc        1 C2D      0.091700
     51 H26         2.8900    4.9310    5.6360 hc        1 C2D      0.063200
     52 H261        2.3830    6.1280    4.3750 hc        1 C2D      0.063200
     53 H227        0.9110    4.4680    3.2910 h1        1 C2D      0.055700
     54 H28         1.1040    6.3420    6.5590 hc        1 C2D      0.063700
     55 H281        0.0490    6.0500    5.1220 hc        1 C2D      0.063700
     56 H30        -0.7390    4.6230    6.9420 hc        1 C2D      0.069200
     57 H301        0.9280    4.0110    7.2750 hc        1 C2D      0.069200
     58 H31        -0.8320    3.5200    4.7670 h1        1 C2D      0.063700
     59 H311       -0.3010    2.2970    6.0110 h1        1 C2D      0.063700
     60 HN1         1.8740    2.4820    5.2210 hn        1 C2D      0.368800
     61 H4         -1.8360    3.2440   -9.3120 ha        1 C2D      0.178000
     62 H142        0.2800    0.2130   -4.6620 hn        1 C2D      0.452800
     63 H232        1.0300    1.8800    2.9220 hn        1 C2D      0.488800
     64 H5         -1.0730    1.1720  -10.4700 ha        1 C2D      0.169000
@<TRIPOS>BOND
     1    1   20 1   
     2    1   32 1   
     3    2    6 1   
     4    3   17 1   
     5    4    5 ar  
     6    4    6 ar  
     7    4   61 1   
     8    5    7 ar  
     9    5   64 1   
    10    6    8 ar  
    11    7    9 ar  
    12    7   10 1   
    13    8    9 ar  
    14    8   33 1   
    15    9   12 1   
    16   10   11 1   
    17   11   12 2   
    18   11   34 1   
    19   12   13 1   
    20   13   14 1   
    21   13   35 1   
    22   13   36 1   
    23   14   15 1   
    24   14   37 1   
    25   14   62 1   
    26   15   16 1   
    27   15   38 1   
    28   15   39 1   
    29   16   18 1   
    30   16   40 1   
    31   16   41 1   
    32   17   18 1   
    33   17   19 1   
    34   17   42 1   
    35   18   20 1   
    36   19   21 1   
    37   19   43 1   
    38   19   44 1   
    39   20   22 1   
    40   20   45 1   
    41   21   22 2   
    42   22   23 1   
    43   23   24 1   
    44   23   46 1   
    45   23   63 1   
    46   24   25 1   
    47   24   47 1   
    48   24   48 1   
    49   25   27 1   
    50   25   49 1   
    51   25   50 1   
    52   26   27 1   
    53   26   28 1   
    54   26   51 1   
    55   26   52 1   
    56   27   29 1   
    57   27   53 1   
    58   28   30 1   
    59   28   54 1   
    60   28   55 1   
    61   29   31 1   
    62   29   60 1   
    63   30   31 1   
    64   30   56 1   
    65   30   57 1   
    66   31   58 1   
    67   31   59 1   
@<TRIPOS>SUBSTRUCTURE
     1 C2D         1 TEMP              0 ****  ****    0 ROOT
