@<TRIPOS>MOLECULE
C2D
   62    65     1     0     0
SMALL
bcc


@<TRIPOS>ATOM
      1 O1          3.1780    0.8040   -2.9440 oh        1 C2D     -0.593800
      2 CL2         4.4380    4.6170    1.9730 cl        1 C2D     -0.094400
      3 CL3         6.0660    1.5040   -6.5470 cl        1 C2D     -0.276400
      4 C4          4.7490    7.2450    1.5200 ca        1 C2D     -0.120000
      5 C5          5.0630    8.3430    0.7380 ca        1 C2D     -0.083000
      6 C6          4.8290    5.9430    0.9820 ca        1 C2D      0.016400
      7 C7          5.4570    8.1520   -0.5910 ca        1 C2D     -0.085100
      8 C8          5.2180    5.7280   -0.3340 ca        1 C2D     -0.093000
      9 C9          5.5330    6.8370   -1.1310 ca        1 C2D     -0.067800
     10 S10         5.8940    9.2990   -1.7510 ss        1 C2D      0.044500
     11 C11         6.1760    8.1460   -2.9430 cc        1 C2D     -0.133400
     12 C12         5.9590    6.8650   -2.5120 cd        1 C2D     -0.088400
     13 C13         6.1500    5.6380   -3.3330 c3        1 C2D      0.225000
     14 N14         4.8980    5.0250   -3.7430 n3        1 C2D     -0.817200
     15 C15         5.0750    3.6690   -4.2250 c3        1 C2D      0.124800
     16 C16         3.7270    3.0400   -4.6450 c3        1 C2D      0.193800
     17 C17         4.2620    1.3690   -6.3830 c3        1 C2D      0.310900
     18 N18         3.7610    1.6640   -5.0800 n3        1 C2D     -0.799600
     19 C19         3.8590   -0.0520   -6.8500 c3        1 C2D      0.126800
     20 C20         4.0640    0.6720   -4.0460 c3        1 C2D      0.320000
     21 N21         3.8970   -1.0890   -5.8680 n2        1 C2D     -0.654900
     22 C22         4.0020   -0.7870   -4.6030 c2        1 C2D      0.568200
     23 N23         4.1790   -1.7540   -3.5950 nh        1 C2D     -0.784200
     24 C24         3.9110   -3.1400   -3.9120 c3        1 C2D      0.199800
     25 C25         4.0870   -4.0820   -2.7240 c3        1 C2D     -0.085400
     26 C26         3.3900   -4.8630   -0.4660 c3        1 C2D     -0.110400
     27 C27         3.3010   -3.6950   -1.4660 c3        1 C2D      0.155500
     28 C28         2.6060   -4.5610    0.7930 c3        1 C2D     -0.077400
     29 N29         1.9360   -3.2640   -1.7580 n3        1 C2D     -0.805200
     30 C30         1.1790   -4.1690    0.4700 c3        1 C2D     -0.114400
     31 C31         1.1540   -3.0380   -0.5580 c3        1 C2D      0.152800
     32 H1          2.2740    0.6480   -3.2490 ho        1 C2D      0.417000
     33 H5          5.0030    9.3580    1.1570 ha        1 C2D      0.142000
     34 H8          5.2850    4.7130   -0.7520 ha        1 C2D      0.150000
     35 H11         6.4930    8.4280   -3.9480 h4        1 C2D      0.177000
     36 H131        6.7120    5.9010   -4.2760 h1        1 C2D      0.043200
     37 H132        6.8010    4.9230   -2.7420 h1        1 C2D      0.043200
     38 H14         4.2290    5.0510   -2.9950 hn        1 C2D      0.361800
     39 H151        5.5660    3.0030   -3.4550 h1        1 C2D      0.042200
     40 H152        5.7610    3.7130   -5.1170 h1        1 C2D      0.042200
     41 H161        3.2860    3.6520   -5.4820 h1        1 C2D      0.065700
     42 H162        3.0170    3.0770   -3.7680 h1        1 C2D      0.065700
     43 H117        3.8880    2.1400   -7.1120 h2        1 C2D      0.090700
     44 H19         2.8060    0.0090   -7.2550 h1        1 C2D      0.076700
     45 H191        4.5370   -0.3640   -7.6940 h1        1 C2D      0.076700
     46 H220        5.0880    0.8440   -3.5870 h2        1 C2D      0.093700
     47 H23         3.7930   -1.4560   -2.7190 hn        1 C2D      0.420800
     48 H241        4.6370   -3.4540   -4.7170 h1        1 C2D      0.050200
     49 H242        2.8710   -3.2690   -4.3330 h1        1 C2D      0.050200
     50 H251        3.7720   -5.1030   -3.0660 hc        1 C2D      0.051700
     51 H252        5.1700   -4.1360   -2.4390 hc        1 C2D      0.051700
     52 H26         4.4660   -5.0400   -0.2120 hc        1 C2D      0.045200
     53 H261        2.9960   -5.7990   -0.9410 hc        1 C2D      0.045200
     54 H227        3.8090   -2.8060   -0.9820 h1        1 C2D      0.061700
     55 H28         3.1040   -3.7240    1.3500 hc        1 C2D      0.043200
     56 H281        2.6100   -5.4590    1.4640 hc        1 C2D      0.043200
     57 H30         0.6240   -5.0580    0.0720 hc        1 C2D      0.044700
     58 H301        0.6550   -3.8300    1.3990 hc        1 C2D      0.044700
     59 H31         0.0900   -2.8420   -0.8690 h1        1 C2D      0.051700
     60 H311        1.5500   -2.1010   -0.0720 h1        1 C2D      0.051700
     61 HN1         1.4860   -3.9520   -2.3370 hn        1 C2D      0.350800
     62 H4          4.4370    7.3830    2.5670 ha        1 C2D      0.149000
@<TRIPOS>BOND
     1    1   20 1   
     2    1   32 1   
     3    2    6 1   
     4    3   17 1   
     5    4    5 ar  
     6    4    6 ar  
     7    4   62 1   
     8    5    7 ar  
     9    5   33 1   
    10    6    8 ar  
    11    7    9 ar  
    12    7   10 1   
    13    8    9 ar  
    14    8   34 1   
    15    9   12 1   
    16   10   11 1   
    17   11   12 2   
    18   11   35 1   
    19   12   13 1   
    20   13   14 1   
    21   13   36 1   
    22   13   37 1   
    23   14   15 1   
    24   14   38 1   
    25   15   16 1   
    26   15   39 1   
    27   15   40 1   
    28   16   18 1   
    29   16   41 1   
    30   16   42 1   
    31   17   18 1   
    32   17   19 1   
    33   17   43 1   
    34   18   20 1   
    35   19   21 1   
    36   19   44 1   
    37   19   45 1   
    38   20   22 1   
    39   20   46 1   
    40   21   22 2   
    41   22   23 1   
    42   23   24 1   
    43   23   47 1   
    44   24   25 1   
    45   24   48 1   
    46   24   49 1   
    47   25   27 1   
    48   25   50 1   
    49   25   51 1   
    50   26   27 1   
    51   26   28 1   
    52   26   52 1   
    53   26   53 1   
    54   27   29 1   
    55   27   54 1   
    56   28   30 1   
    57   28   55 1   
    58   28   56 1   
    59   29   31 1   
    60   29   61 1   
    61   30   31 1   
    62   30   57 1   
    63   30   58 1   
    64   31   59 1   
    65   31   60 1   
@<TRIPOS>SUBSTRUCTURE
     1 C2D         1 TEMP              0 ****  ****    0 ROOT
