@<TRIPOS>MOLECULE
C2D
   64    67     1     0     0
SMALL
bcc


@<TRIPOS>ATOM
      1 O1          0.2460    1.6490   -0.3820 oh        1 C2D     -0.594800
      2 Cl2        -1.2020    4.2380   -6.7500 cl        1 C2D     -0.049400
      3 Cl3         3.5920   -1.5300   -0.8240 cl        1 C2D     -0.202400
      4 C4         -1.1230    2.5210   -8.8120 ca        1 C2D     -0.110000
      5 C5         -0.7100    1.3650   -9.4480 ca        1 C2D     -0.043000
      6 C6         -0.6870    2.8080   -7.4970 ca        1 C2D      0.059400
      7 C7          0.1390    0.4720   -8.7770 ca        1 C2D     -0.135100
      8 C8          0.1540    1.9410   -6.8140 ca        1 C2D     -0.158000
      9 C9          0.5680    0.7610   -7.4500 ca        1 C2D     -0.051800
     10 S10         0.7980   -0.9800   -9.3120 ss        1 C2D      0.278500
     11 C11         1.6000   -1.2820   -7.9050 cc        1 C2D     -0.135400
     12 C12         1.4230   -0.2880   -6.9560 cd        1 C2D     -0.246400
     13 C13         2.0640   -0.2490   -5.6360 c3        1 C2D      0.218000
     14 N14         1.0340   -0.4910   -4.5500 ny        1 C2D     -0.769000
     15 C15         1.6240   -0.4000   -3.1910 c3        1 C2D      0.049800
     16 C16         0.5750   -0.6500   -2.0770 c3        1 C2D      0.183800
     17 C17         1.8990   -1.6360   -0.2340 c3        1 C2D      0.277900
     18 N18         1.0520   -0.5800   -0.7230 n3        1 C2D     -0.803600
     19 C19         1.9370   -1.6840    1.3150 c3        1 C2D      0.094800
     20 C20         1.3210    0.7530   -0.1810 c3        1 C2D      0.344000
     21 N21         1.9280   -0.4230    1.9880 n2        1 C2D     -0.482900
     22 C22         1.6450    0.6570    1.3390 c2        1 C2D      0.424200
     23 N23         1.6220    1.9540    2.0470 ny        1 C2D     -0.735000
     24 C24         2.9850    2.3950    2.4890 c3        1 C2D      0.126800
     25 C25         2.9800    3.7740    3.1380 c3        1 C2D     -0.117400
     26 C26         2.0710    5.2510    4.9440 c3        1 C2D     -0.101400
     27 C27         1.7380    4.1070    3.9750 c3        1 C2D      0.136500
     28 C28         0.8470    5.6180    5.7590 c3        1 C2D     -0.084400
     29 N29         1.1620    2.9270    4.6300 n7        1 C2D     -0.852200
     30 C30         0.2430    4.4080    6.4400 c3        1 C2D     -0.113400
     31 C31         0.0030    3.2750    5.4430 c3        1 C2D      0.144800
     32 H1         -0.5860    1.2460   -0.0860 ho        1 C2D      0.446000
     33 H8          0.5190    2.1900   -5.8080 ha        1 C2D      0.120000
     34 H11         2.2230   -2.1710   -7.7650 h4        1 C2D      0.189000
     35 H131        2.5170    0.7660   -5.4360 hx        1 C2D      0.106700
     36 H132        2.8590   -1.0420   -5.5350 hx        1 C2D      0.106700
     37 H14         0.2830    0.2040   -4.6600 hn        1 C2D      0.452800
     38 H151        2.4560   -1.1610   -3.1220 hx        1 C2D      0.113200
     39 H152        2.0730    0.6270   -3.0740 hx        1 C2D      0.113200
     40 H161        0.1280   -1.6780   -2.2190 h1        1 C2D      0.088700
     41 H162       -0.2500    0.1150   -2.1810 h1        1 C2D      0.088700
     42 H117        1.5260   -2.6250   -0.6240 h2        1 C2D      0.125700
     43 H19         1.0410   -2.2690    1.6880 h1        1 C2D      0.141200
     44 H191        2.8680   -2.2340    1.6550 h1        1 C2D      0.141200
     45 H220        2.1980    1.2580   -0.7000 h2        1 C2D      0.100700
     46 H23         1.0250    1.9000    2.9170 hn        1 C2D      0.488800
     47 H241        3.6650    2.3960    1.5910 hx        1 C2D      0.104200
     48 H242        3.3610    1.6250    3.2250 hx        1 C2D      0.104200
     49 H251        3.0820    4.5680    2.3520 hc        1 C2D      0.091700
     50 H252        3.8990    3.8250    3.7840 hc        1 C2D      0.091700
     51 H26         2.9050    4.9420    5.6280 hc        1 C2D      0.063200
     52 H261        2.4220    6.1380    4.3570 hc        1 C2D      0.063200
     53 H227        0.9350    4.4910    3.2720 h1        1 C2D      0.055700
     54 H28         0.0820    6.0930    5.0900 hc        1 C2D      0.063700
     55 H281        1.1320    6.3800    6.5320 hc        1 C2D      0.063700
     56 H30         0.9230    4.0540    7.2590 hc        1 C2D      0.069200
     57 H301       -0.7350    4.6860    6.9120 hc        1 C2D      0.069200
     58 H31        -0.8280    3.5720    4.7420 h1        1 C2D      0.063700
     59 H311       -0.3200    2.3490    5.9960 h1        1 C2D      0.063700
     60 HN1         1.8620    2.5030    5.2190 hn        1 C2D      0.368800
     61 H4         -1.7900    3.2320   -9.3310 ha        1 C2D      0.178000
     62 H142        0.6180   -1.4190   -4.6900 hn        1 C2D      0.452800
     63 H232        1.2130    2.6560    1.4170 hn        1 C2D      0.488800
     64 H5         -1.0410    1.1480  -10.4770 ha        1 C2D      0.169000
@<TRIPOS>BOND
     1    1   20 1   
     2    1   32 1   
     3    2    6 1   
     4    3   17 1   
     5    4    5 ar  
     6    4    6 ar  
     7    4   61 1   
     8    5    7 ar  
     9    5   64 1   
    10    6    8 ar  
    11    7    9 ar  
    12    7   10 1   
    13    8    9 ar  
    14    8   33 1   
    15    9   12 1   
    16   10   11 1   
    17   11   12 2   
    18   11   34 1   
    19   12   13 1   
    20   13   14 1   
    21   13   35 1   
    22   13   36 1   
    23   14   15 1   
    24   14   37 1   
    25   14   62 1   
    26   15   16 1   
    27   15   38 1   
    28   15   39 1   
    29   16   18 1   
    30   16   40 1   
    31   16   41 1   
    32   17   18 1   
    33   17   19 1   
    34   17   42 1   
    35   18   20 1   
    36   19   21 1   
    37   19   43 1   
    38   19   44 1   
    39   20   22 1   
    40   20   45 1   
    41   21   22 2   
    42   22   23 1   
    43   23   24 1   
    44   23   46 1   
    45   23   63 1   
    46   24   25 1   
    47   24   47 1   
    48   24   48 1   
    49   25   27 1   
    50   25   49 1   
    51   25   50 1   
    52   26   27 1   
    53   26   28 1   
    54   26   51 1   
    55   26   52 1   
    56   27   29 1   
    57   27   53 1   
    58   28   30 1   
    59   28   54 1   
    60   28   55 1   
    61   29   31 1   
    62   29   60 1   
    63   30   31 1   
    64   30   56 1   
    65   30   57 1   
    66   31   58 1   
    67   31   59 1   
@<TRIPOS>SUBSTRUCTURE
     1 C2D         1 TEMP              0 ****  ****    0 ROOT
