@<TRIPOS>MOLECULE
C2F
   56    52     1     0     0
SMALL
bcc


@<TRIPOS>ATOM
      1 N1         -1.7140   -2.6500   -6.0190 n1        1 C2F     -0.265000
      2 C2         -1.1130   -3.6170   -6.8260 c1        1 C2F      0.216000
      3 NA2        -1.3250   -3.5980   -8.2360 n2        1 C2F     -0.316000
      4 N3         -0.3760   -4.6740   -6.2380 n3        1 C2F     -0.337000
      5 C4         -0.2500   -4.7520   -4.8740 c1        1 C2F      0.370000
      6 O4          0.4170   -5.6380   -4.3760 o         1 C2F     -0.376000
      7 C4A        -0.8340   -3.8130   -4.0820 c1        1 C2F     -0.234000
      8 N5         -0.9170   -3.9710   -2.5970 n3        1 C2F     -0.172000
      9 C6         -1.5840   -3.0200   -1.9160 c3        1 C2F     -0.038000
     10 C7         -2.7470   -2.4230   -2.5880 c3        1 C2F     -0.075000
     11 N8         -2.5490   -1.9530   -3.7950 n3        1 C2F     -0.266000
     12 C8A        -1.5960   -2.7210   -4.6880 c1        1 C2F      0.151000
     13 C9         -0.5240   -1.8000   -1.5630 c3        1 C2F     -0.058000
     14 N10        -0.5200   -1.5700   -0.1300 n3        1 C2F     -0.287000
     15 C11        -1.4760   -5.2700   -2.2810 c3        1 C2F     -0.116000
     16 C12         0.6230    2.0850    1.6280 c1        1 C2F     -0.106000
     17 C13         0.8820    0.8890    2.2850 c1        1 C2F     -0.131500
     18 C14         0.5720   -0.3200    1.6740 c1        1 C2F     -0.131500
     19 C15         0.0030   -0.3330    0.4050 c1        1 C2F      0.017000
     20 C16        -0.2560    0.8680   -0.2520 c1        1 C2F     -0.181000
     21 C17         0.0540    2.0730    0.3580 c1        1 C2F     -0.071000
     22 C           0.8590    3.4490    2.3670 c2        1 C2F      0.325000
     23 O           0.6310    4.5070    1.7880 o         1 C2F     -0.418000
     24 N           1.1740    3.4540    3.7460 n         1 C2F     -0.286000
     25 CA          1.5820    4.6610    4.3830 c3        1 C2F     -0.071000
     26 CB          1.7720    4.4070    5.8830 c3        1 C2F     -0.133000
     27 CG          1.7420    5.7570    6.6470 c3        1 C2F     -0.211000
     28 CD          2.5970    5.6440    7.9230 c2        1 C2F      0.324000
     29 OE1         2.0350    5.5950    9.0570 o         1 C2F     -0.609000
     30 OE2         3.8590    5.6860    7.8440 o         1 C2F     -0.609000
     31 CT          2.8800    5.1310    3.7820 c2        1 C2F      0.323000
     32 O1          3.9470    4.4900    4.0010 o         1 C2F     -0.587000
     33 O2          2.9130    6.1870    3.1180 o         1 C2F     -0.587000
     34 HN21       -0.8250   -4.1370   -8.7800 hn        1 C2F      0.202500
     35 HN22       -1.9820   -3.0740   -8.5910 hn        1 C2F      0.202500
     36 HN3        -0.0000   -5.3280   -6.7740 hn        1 C2F      0.244000
     37 H6         -1.8910   -3.4130   -1.0720 h1        1 C2F      0.107000
     38 H71        -3.0580   -1.6790   -2.0310 h1        1 C2F      0.103000
     39 H72        -3.4360   -3.1170   -2.6540 h1        1 C2F      0.103000
     40 HN8        -3.3630   -1.8580   -4.2250 hn        1 C2F      0.225000
     41 H91        -0.8020   -0.9780   -2.0270 h1        1 C2F      0.093000
     42 H92         0.3820   -2.0540   -1.8580 h1        1 C2F      0.093000
     43 HN1        -0.8100   -2.2150    0.4290 hn        1 C2F      0.172000
     44 H111       -2.4410   -5.2750   -2.4960 h1        1 C2F      0.075667
     45 H112       -1.0220   -5.9570   -2.8080 h1        1 C2F      0.075667
     46 H113       -1.3510   -5.4580   -1.3160 h1        1 C2F      0.075667
     47 H13         1.2880    0.8980    3.1920 ha        1 C2F      0.143000
     48 H14         0.7560   -1.1760    2.1440 ha        1 C2F      0.143000
     49 H16        -0.7310    0.8620   -1.1180 ha        1 C2F      0.108000
     50 H17        -0.1320    2.9290   -0.1120 ha        1 C2F      0.149000
     51 HN          1.1640    2.6830    4.2100 hn        1 C2F      0.228000
     52 HA          0.8960    5.3470    4.2530 h1        1 C2F      0.109000
     53 HB1         2.6300    3.9650    6.0340 hc        1 C2F      0.090000
     54 HB2         1.0460    3.8320    6.2080 hc        1 C2F      0.090000
     55 HG1         2.1050    6.4700    6.0710 hc        1 C2F      0.058000
     56 HG2         0.8190    5.9720    6.8920 hc        1 C2F      0.058000
@<TRIPOS>BOND
     1    1    2 1   
     2    2    4 1   
     3    3   34 1   
     4    3   35 1   
     5    4    5 1   
     6    4   36 1   
     7    5    6 1   
     8    7    8 1   
     9    7   12 1   
    10    8    9 1   
    11    8   15 1   
    12    9   10 1   
    13    9   13 1   
    14    9   37 1   
    15   10   11 1   
    16   10   38 1   
    17   10   39 1   
    18   11   12 1   
    19   11   40 1   
    20   13   14 1   
    21   13   41 1   
    22   13   42 1   
    23   14   19 1   
    24   14   43 1   
    25   15   44 1   
    26   15   45 1   
    27   15   46 1   
    28   16   21 1   
    29   16   22 1   
    30   17   18 1   
    31   17   47 1   
    32   18   48 1   
    33   19   20 1   
    34   20   49 1   
    35   21   50 1   
    36   22   23 1   
    37   22   24 1   
    38   24   25 1   
    39   24   51 1   
    40   25   26 1   
    41   25   31 1   
    42   25   52 1   
    43   26   27 1   
    44   26   53 1   
    45   26   54 1   
    46   27   28 1   
    47   27   55 1   
    48   27   56 1   
    49   28   29 1   
    50   28   30 1   
    51   31   32 1   
    52   31   33 1   
@<TRIPOS>SUBSTRUCTURE
     1 C2F         1 TEMP              0 ****  ****    0 ROOT
