@<TRIPOS>MOLECULE
C2F
   56    58     1     0     0
SMALL
bcc


@<TRIPOS>ATOM
      1 N1          2.2040   -1.4760    2.8790 nc        1 C2F     -0.766300
      2 C2          2.5760   -0.5460    1.9520 cd        1 C2F      0.717800
      3 NA2         3.6700   -0.8220    1.1160 nh        1 C2F     -0.869800
      4 N3          1.9830    0.7190    1.8660 n         1 C2F     -0.467400
      5 C4          0.8960    1.0650    2.6850 c         1 C2F      0.720700
      6 O4          0.4700    2.2390    2.6270 o         1 C2F     -0.671500
      7 C4A         0.3740    0.0130    3.5670 cd        1 C2F     -0.189200
      8 N5         -0.8380    0.1820    4.3010 nh        1 C2F     -0.578400
      9 C6         -1.5120   -1.0970    4.5100 c3        1 C2F      0.136500
     10 C7         -0.5370   -2.0540    5.2500 c3        1 C2F      0.191800
     11 N8          0.7920   -2.1350    4.6870 nh        1 C2F     -0.706000
     12 C8A         1.1220   -1.1770    3.6910 cc        1 C2F      0.357600
     13 C9         -2.0420   -1.8750    3.2740 c3        1 C2F      0.147800
     14 N10        -2.9740   -1.2060    2.4060 nh        1 C2F     -0.715600
     15 C11        -1.6990    1.2640    3.8850 c3        1 C2F      0.162100
     16 C12        -1.7770    0.4560   -1.3090 ca        1 C2F     -0.160600
     17 C13        -2.8990    0.9390   -0.6300 ca        1 C2F     -0.061000
     18 C14        -3.2700    0.4060    0.5990 ca        1 C2F     -0.196500
     19 C15        -2.5290   -0.6540    1.1790 ca        1 C2F      0.122600
     20 C16        -1.4220   -1.1550    0.4640 ca        1 C2F     -0.196500
     21 C17        -1.0350   -0.5860   -0.7460 ca        1 C2F     -0.061000
     22 O          -1.4880    2.3630   -2.7050 o         1 C2F     -0.654100
     23 N          -0.8010    0.3270   -3.5590 n         1 C2F     -0.492900
     24 CA          0.2040    0.7930   -4.4940 c3        1 C2F     -0.034300
     25 CB          1.6370    0.6420   -3.9480 c3        1 C2F     -0.088400
     26 CG          1.9460    1.5410   -2.7710 c3        1 C2F     -0.173400
     27 CD          2.4410    0.8180   -1.5320 c         1 C2F      0.899600
     28 OE1         3.1800    1.4490   -0.6990 o         1 C2F     -0.889800
     29 OE2         2.1290   -0.3870   -1.2710 o         1 C2F     -0.889800
     30 CT          0.1350   -0.0010   -5.8440 c         1 C2F      0.918600
     31 O1          0.3490    0.6610   -6.8990 o         1 C2F     -0.849300
     32 O2         -0.1050   -1.2410   -5.8200 o         1 C2F     -0.849300
     33 HN21        3.7890   -1.7950    0.9290 hn        1 C2F      0.442800
     34 HN22        3.6960   -0.2530    0.2710 hn        1 C2F      0.442800
     35 HN3         2.2380    1.3340    1.0970 hn        1 C2F      0.402500
     36 H6         -2.3840   -0.8950    5.1980 h1        1 C2F      0.043700
     37 H71        -0.4180   -1.6840    6.3090 h1        1 C2F      0.033700
     38 H72        -1.0060   -3.0770    5.2940 h1        1 C2F      0.033700
     39 HN8         1.0560   -3.0680    4.4390 hn        1 C2F      0.390800
     40 H91        -1.1570   -2.2550    2.6940 h1        1 C2F      0.050200
     41 H92        -2.5940   -2.7760    3.6790 h1        1 C2F      0.050200
     42 HN1        -3.5320   -0.5440    2.9140 hn        1 C2F      0.371800
     43 H111       -1.8860    1.3040    2.7770 h1        1 C2F      0.041367
     44 H112       -2.6810    1.1820    4.4210 h1        1 C2F      0.041367
     45 H113       -1.1980    2.2250    4.1820 h1        1 C2F      0.041367
     46 H13        -3.4670    1.7760   -1.0660 ha        1 C2F      0.169000
     47 H14        -4.1400    0.8260    1.1240 ha        1 C2F      0.119500
     48 H16        -0.8190   -1.9890    0.8500 ha        1 C2F      0.119500
     49 H17        -0.0920   -0.9290   -1.2230 ha        1 C2F      0.169000
     50 HN         -0.7440   -0.6530   -3.3820 hn        1 C2F      0.308500
     51 HA          0.0010    1.8800   -4.7130 h1        1 C2F      0.066700
     52 HB1         1.8080   -0.4310   -3.6630 hc        1 C2F      0.051200
     53 HB2         2.3280    0.8780   -4.7980 hc        1 C2F      0.051200
     54 HG1         2.7240    2.2940   -3.0610 hc        1 C2F      0.042700
     55 HG2         1.0350    2.1210   -2.4640 hc        1 C2F      0.042700
     56 C          -1.3220    1.1270   -2.5700 c         1 C2F      0.661700
@<TRIPOS>BOND
     1    1    2 2   
     2    1   12 1   
     3    2    3 1   
     4    2    4 1   
     5    3   33 1   
     6    3   34 1   
     7    4    5 1   
     8    4   35 1   
     9    5    6 2   
    10    5    7 1   
    11    7    8 1   
    12    7   12 2   
    13    8    9 1   
    14    8   15 1   
    15    9   10 1   
    16    9   13 1   
    17    9   36 1   
    18   10   11 1   
    19   10   37 1   
    20   10   38 1   
    21   11   12 1   
    22   11   39 1   
    23   13   14 1   
    24   13   40 1   
    25   13   41 1   
    26   14   19 1   
    27   14   42 1   
    28   15   43 1   
    29   15   44 1   
    30   15   45 1   
    31   16   17 ar  
    32   16   21 ar  
    33   16   56 1   
    34   17   18 ar  
    35   17   46 1   
    36   18   19 ar  
    37   18   47 1   
    38   19   20 ar  
    39   20   21 ar  
    40   20   48 1   
    41   21   49 1   
    42   22   56 2   
    43   23   24 1   
    44   23   50 1   
    45   23   56 1   
    46   24   25 1   
    47   24   30 1   
    48   24   51 1   
    49   25   26 1   
    50   25   52 1   
    51   25   53 1   
    52   26   27 1   
    53   26   54 1   
    54   26   55 1   
    55   27   28 1   
    56   27   29 1   
    57   30   31 1   
    58   30   32 1   
@<TRIPOS>SUBSTRUCTURE
     1 C2F         1 TEMP              0 ****  ****    0 ROOT
