@<TRIPOS>MOLECULE
C2F
   57    56     1     0     0
SMALL
bcc


@<TRIPOS>ATOM
      1 N1          0.1240    0.5890    0.8630 n2        1 C2F     -0.226000
      2 C2          1.2920    0.5060    1.4830 c2        1 C2F      0.218000
      3 NA2         2.4820    0.2940    0.7250 nv        1 C2F     -0.314000
      4 N3          1.4500    0.5340    2.9000 ns        1 C2F     -0.354000
      5 C4          0.3380    0.4000    3.7270 c2        1 C2F      0.328000
      6 O4          0.4830    0.4220    4.9600 o         1 C2F     -0.336000
      7 C4A        -0.9920    0.1720    3.0420 c2        1 C2F     -0.048000
      8 N5         -1.9860   -0.4930    3.5020 n2        1 C2F     -0.133000
      9 C6         -3.1090    2.6720    3.1170 c3        1 C2F     -0.159000
     10 C7         -3.2220    1.8410    1.8340 c3        1 C2F     -0.074000
     11 N8         -2.0120    1.4970    1.1540 n2        1 C2F     -0.151000
     12 C8A        -1.0440    0.7990    1.6550 c2        1 C2F      0.112000
     13 C9         -2.0490    3.7310    3.0300 c2        1 C2F     -0.036000
     14 N10        -0.8000    3.4420    3.1760 n2        1 C2F     -0.205000
     15 C11        -2.0140   -1.1180    4.7820 c3        1 C2F     -0.160000
     16 C12         2.1460    6.4670    2.8960 c2        1 C2F     -0.204000
     17 C13         2.1600    5.5760    3.9360 c2        1 C2F      0.006000
     18 C14         1.1850    4.5370    4.0170 c2        1 C2F     -0.229000
     19 C15         0.1960    4.4290    3.0660 c2        1 C2F      0.048000
     20 C16         0.2040    5.3550    1.8900 c3        1 C2F     -0.245000
     21 C17         1.3120    6.2650    1.7650 c1        1 C2F     -0.081000
     22 O           4.2140    7.6830    3.1950 o         1 C2F     -0.444000
     23 N           2.3310    8.8630    2.6610 nt        1 C2F     -0.410000
     24 CA         -5.3060    9.3670    3.9170 c2        1 C2F     -0.308000
     25 CB         -4.4360    8.7580    3.0990 c2        1 C2F     -0.025000
     26 CG         -3.0750    9.2460    2.8180 c3        1 C2F     -0.220000
     27 CD         -2.0710    8.0940    2.6700 c2        1 C2F      0.342000
     28 OE1        -0.8410    8.3680    2.7230 o         1 C2F     -0.589000
     29 OE2        -2.5020    6.9120    2.4830 o         1 C2F     -0.589000
     30 CT         -6.6500    8.8660    4.2000 c2        1 C2F      0.343000
     31 O1         -6.9300    7.5270    4.1000 oh        1 C2F     -0.315000
     32 O2         -7.6310    9.5280    4.5570 o         1 C2F     -0.345000
     33 HN21        3.2430    0.8660    1.0260 hn        1 C2F      0.201000
     34 HN22        2.3290    0.3630   -0.2610 hn        1 C2F      0.201000
     35 HN3         2.3380    0.7170    3.3100 hn        1 C2F      0.247000
     36 H6         -2.9240    2.0000    3.9950 hc        1 C2F      0.099000
     37 H71        -4.0960    3.1810    3.2840 hc        1 C2F      0.099000
     38 H72        -3.7950    2.4530    1.0750 h1        1 C2F      0.100000
     39 HN8        -3.8380    0.9240    2.0630 h1        1 C2F      0.100000
     40 H91        -4.9750    5.3810    3.2110 ha        1 C2F      0.002000
     41 H92        -4.3980    5.7060    3.0570 ha        1 C2F      0.002000
     42 HN1        -2.4330    4.7660    2.8440 h4        1 C2F      0.183000
     43 H111       -2.5880   -0.4540    5.4860 h1        1 C2F      0.099000
     44 H112       -1.0070   -1.3200    5.2390 h1        1 C2F      0.099000
     45 H113       -2.5690   -2.0870    4.6660 h1        1 C2F      0.099000
     46 H13         1.2170    3.8710    4.8920 ha        1 C2F      0.135000
     47 H14         2.9090    5.6510    4.7410 ha        1 C2F      0.131000
     48 H16         0.0100    4.8080    0.9290 hc        1 C2F      0.214000
     49 H17        -0.6930    6.0980    2.0160 hc        1 C2F      0.214000
     50 HN          1.3630    8.8450    2.4230 hn        1 C2F      0.238500
     51 HA         -6.1270    7.0360    3.8680 ho        1 C2F      0.233000
     52 HB1        -5.0670   10.3160    4.4230 ha        1 C2F      0.150000
     53 HB2        -4.6840    7.8120    2.5770 ha        1 C2F      0.145000
     54 HG1        -3.0780    9.8050    1.8430 hc        1 C2F      0.100500
     55 HG2        -2.7100    9.9470    3.6110 hc        1 C2F      0.100500
     56 H2          2.8330    9.7110    2.6080 hn        1 C2F      0.238500
     57 C           2.9910    7.6930    2.9170 c2        1 C2F      0.369000
@<TRIPOS>BOND
     1    1    2 1   
     2    1   12 1   
     3    2    3 1   
     4    2    4 1   
     5    3   33 1   
     6    3   34 1   
     7    4    5 1   
     8    4   35 1   
     9    5    6 1   
    10    5    7 1   
    11    7    8 1   
    12    7   12 1   
    13    8   15 1   
    14    9   10 1   
    15    9   13 1   
    16    9   36 1   
    17    9   37 1   
    18   10   11 1   
    19   10   38 1   
    20   10   39 1   
    21   11   12 1   
    22   13   14 1   
    23   13   42 1   
    24   14   19 1   
    25   15   43 1   
    26   15   44 1   
    27   15   45 1   
    28   16   17 1   
    29   16   21 1   
    30   16   57 1   
    31   17   18 1   
    32   17   47 1   
    33   18   19 1   
    34   18   46 1   
    35   19   20 1   
    36   20   21 1   
    37   20   48 1   
    38   20   49 1   
    39   22   57 1   
    40   23   50 1   
    41   23   56 1   
    42   23   57 1   
    43   24   25 1   
    44   24   30 1   
    45   24   52 1   
    46   25   26 1   
    47   25   53 1   
    48   26   27 1   
    49   26   54 1   
    50   26   55 1   
    51   27   28 1   
    52   27   29 1   
    53   30   31 1   
    54   30   32 1   
    55   31   51 1   
    56   40   41 1   
@<TRIPOS>SUBSTRUCTURE
     1 C2F         1 TEMP              0 ****  ****    0 ROOT
