@<TRIPOS>MOLECULE
C2G
   49    47     1     0     0
SMALL
bcc


@<TRIPOS>ATOM
      1 N1          0.6040    2.2540    4.6570 n1        1 C2G     -0.773300
      2 C2          1.9330    1.8680    4.6710 c1        1 C2G      0.931700
      3 N3          2.6220    1.8450    5.8400 n1        1 C2G     -0.637800
      4 C4          2.0210    2.1940    6.9680 c1        1 C2G      0.252800
      5 C5          0.6940    2.5800    6.9530 c1        1 C2G     -0.302500
      6 C6          0.0060    2.6020    5.7820 c1        1 C2G      0.468300
      7 O2          2.4910    1.5400    3.6210 o         1 C2G     -0.619900
      8 N4          2.7630    2.2220    8.2060 n3        1 C2G     -0.803400
      9 C1'        -0.1130    2.2700    3.4360 c3        1 C2G      0.394600
     10 C2'         0.1770    3.3470    2.7550 c3        1 C2G      0.107100
     11 O2'        -0.8440    4.4210    3.0040 oh        1 C2G     -0.598800
     12 C3'         0.1370    2.9030    1.2680 c3        1 C2G      0.116100
     13 C4'         0.0820    1.3500    1.2900 c3        1 C2G      0.053100
     14 O4'         0.3500    1.0150    2.5110 os        1 C2G     -0.426600
     15 O3'        -0.9690    3.4040    0.6530 oh        1 C2G     -0.648800
     16 C5'         1.1570    0.7650    0.3130 c3        1 C2G      0.208400
     17 O5'         0.5950   -0.3270   -0.4180 os        1 C2G     -0.569200
     18 PA          1.1480   -0.6260   -1.9200 p5        1 C2G      1.623800
     19 O1A         2.6450   -0.9600   -1.8560 o         1 C2G     -0.897500
     20 O2A         0.9360    0.6180   -2.8070 o         1 C2G     -0.897500
     21 O3A         0.3590   -1.8520   -2.5310 os        1 C2G     -0.813800
     22 PB          0.3980   -2.2420   -4.0260 p5        1 C2G      1.596800
     23 O1B         1.6020   -3.1270   -4.2850 o         1 C2G     -0.863000
     24 O2B         0.4970   -1.0140   -4.8530 o         1 C2G     -0.863000
     25 O3B        -0.9570   -3.0430   -4.4110 os        1 C2G     -0.590200
     26 O1G        -3.5980   -5.8330   -7.2520 oh        1 C2G     -0.633800
     27 C1G        -2.3890   -5.2160   -7.1340 c3        1 C2G      0.128400
     28 C2G        -2.3810   -4.3600   -5.8780 c3        1 C2G      0.080100
     29 O2G        -3.3560   -3.3360   -5.9970 oh        1 C2G     -0.659800
     30 C3G        -1.0150   -3.7380   -5.6980 c3        1 C2G      0.169400
     31 HC5         0.2490    2.7670    7.7630 ha        1 C2G      0.101500
     32 HC6        -0.9600    2.8840    5.7720 ha        1 C2G      0.135500
     33 HN41        2.3700    2.5720    8.9730 hn        1 C2G      0.405800
     34 HN42        3.6800    1.9680    8.2170 hn        1 C2G      0.405800
     35 HC1        -1.1020    2.2270    3.6140 h2        1 C2G      0.123700
     36 HC2         1.0830    3.6700    2.9930 h1        1 C2G      0.072700
     37 HO2        -0.4170    5.2490    3.0560 ho        1 C2G      0.430000
     38 HC3         0.9320    3.1980    0.8130 h1        1 C2G      0.088700
     39 HC4        -0.7710    1.0510    1.0520 h1        1 C2G      0.093700
     40 HO3        -0.7230    3.9760    0.0210 ho        1 C2G      0.498000
     41 HC51        1.4500    1.4800   -0.3240 h1        1 C2G      0.017700
     42 HC52        1.9230    0.4530    0.8230 h1        1 C2G      0.017700
     43 H1G        -3.5700   -6.3900   -7.9000 ho        1 C2G      0.411000
     44 H1G1       -2.2330   -4.6430   -7.9250 h1        1 C2G      0.039700
     45 H1G2       -1.6520   -5.9200   -7.0730 h1        1 C2G      0.039700
     46 H2G        -2.5930   -4.9280   -5.0900 h1        1 C2G      0.055700
     47 HOG        -4.0990   -3.5650   -5.5120 ho        1 C2G      0.445000
     48 H3G1       -0.3060   -4.4650   -5.7230 h1        1 C2G      0.043200
     49 H3G2       -0.8530   -3.1050   -6.4140 h1        1 C2G      0.043200
@<TRIPOS>BOND
     1    1    6 3   
     2    1    9 1   
     3    2    3 3   
     4    2    7 1   
     5    4    5 3   
     6    4    8 1   
     7    5   31 1   
     8    6   32 1   
     9    8   33 1   
    10    8   34 1   
    11    9   10 1   
    12    9   14 1   
    13    9   35 1   
    14   10   11 1   
    15   10   12 1   
    16   10   36 1   
    17   11   37 1   
    18   12   13 1   
    19   12   15 1   
    20   12   38 1   
    21   13   14 1   
    22   13   16 1   
    23   13   39 1   
    24   15   40 1   
    25   16   17 1   
    26   16   41 1   
    27   16   42 1   
    28   17   18 1   
    29   18   19 1   
    30   18   20 1   
    31   18   21 1   
    32   21   22 1   
    33   22   23 1   
    34   22   24 1   
    35   22   25 1   
    36   25   30 1   
    37   26   27 1   
    38   26   43 1   
    39   27   28 1   
    40   27   44 1   
    41   27   45 1   
    42   28   29 1   
    43   28   30 1   
    44   28   46 1   
    45   29   47 1   
    46   30   48 1   
    47   30   49 1   
@<TRIPOS>SUBSTRUCTURE
     1 C2G         1 TEMP              0 ****  ****    0 ROOT
