@<TRIPOS>MOLECULE
C2G
   49    50     1     0     0
SMALL
bcc


@<TRIPOS>ATOM
      1 N1          0.4670    0.3000   -3.7760 n         1 C2G     -0.378000
      2 C2          1.2920    0.7760   -4.8550 c         1 C2G      0.829900
      3 N3          2.6870    0.8330   -4.7140 nc        1 C2G     -0.757100
      4 C4          3.2290    0.4790   -3.5330 cd        1 C2G      0.719500
      5 C5          2.4270   -0.0030   -2.4280 cd        1 C2G     -0.437600
      6 C6          1.0620   -0.0650   -2.5940 cc        1 C2G      0.089600
      7 O2          0.7430    1.1110   -5.9310 o         1 C2G     -0.672500
      8 N4          4.6070    0.6170   -3.3380 nh        1 C2G     -0.905800
      9 C1'        -0.9880    0.2790   -3.9260 c3        1 C2G      0.254500
     10 C2'        -1.6280   -1.1110   -3.6050 c3        1 C2G      0.110100
     11 O2'        -2.4880   -1.4730   -4.6620 oh        1 C2G     -0.602800
     12 C3'        -2.3300   -0.9080   -2.2450 c3        1 C2G      0.107100
     13 C4'        -2.3320    0.6150   -1.9970 c3        1 C2G      0.067100
     14 O4'        -1.6060    1.2440   -3.0720 os        1 C2G     -0.427600
     15 O3'        -3.6470   -1.4050   -2.3460 oh        1 C2G     -0.657800
     16 C5'        -1.7010    1.0290   -0.6550 c3        1 C2G      0.174400
     17 O5'        -2.6540    1.1770    0.3430 os        1 C2G     -0.590200
     18 PA         -2.9430   -0.0920    1.3760 p5        1 C2G      1.604800
     19 O1A        -3.6220   -1.0790    0.5030 o         1 C2G     -0.876000
     20 O2A        -3.4900    0.4680    2.6190 o         1 C2G     -0.876000
     21 O3A        -1.4200   -0.6390    1.6060 os        1 C2G     -0.828800
     22 PB          0.0770   -1.2590    1.5790 p5        1 C2G      1.603800
     23 O1B         0.5280   -1.2540    0.1690 o         1 C2G     -0.879000
     24 O2B         0.2190   -2.3880    2.5130 o         1 C2G     -0.879000
     25 O3B         0.8820    0.0050    2.3060 os        1 C2G     -0.592200
     26 C1G         1.7200    0.6930    5.8580 c3        1 C2G      0.128400
     27 C2G         1.9100    0.1220    4.4530 c3        1 C2G      0.080100
     28 O2G         2.9580    0.8690    3.8420 oh        1 C2G     -0.656800
     29 C3G         0.6010    0.2120    3.6510 c3        1 C2G      0.170400
     30 HC5         2.8620   -0.3020   -1.4660 ha        1 C2G      0.179000
     31 HC6         0.4120   -0.4320   -1.7550 h4        1 C2G      0.257000
     32 HN41        5.1730    0.7080   -4.1490 hn        1 C2G      0.402300
     33 HN42        4.9790    0.0380   -2.6220 hn        1 C2G      0.402300
     34 HC1        -1.2300    0.6030   -4.9820 h2        1 C2G      0.115700
     35 HC2        -0.8650   -1.9310   -3.5520 h1        1 C2G      0.084700
     36 HO2        -3.3690   -1.1340   -4.4560 ho        1 C2G      0.422000
     37 HC3        -1.7620   -1.4520   -1.4410 h1        1 C2G      0.106700
     38 HC4        -3.3780    1.0200   -2.0650 h1        1 C2G      0.077700
     39 HO3        -3.9760   -1.4950   -1.4290 ho        1 C2G      0.491000
     40 HC51       -0.9180    0.2790   -0.3390 h1        1 C2G      0.047700
     41 HC52       -1.2110    2.0330   -0.8060 h1        1 C2G      0.047700
     42 H1G         3.6250    0.9760    6.0060 ho        1 C2G      0.411000
     43 H2G         2.2510   -0.9500    4.5140 h1        1 C2G      0.058700
     44 HOG         2.7610    0.8980    2.8940 ho        1 C2G      0.443000
     45 H3G1        0.1690    1.2450    3.7770 h1        1 C2G      0.042200
     46 H3G2       -0.1270   -0.5560    4.0320 h1        1 C2G      0.042200
     47 H1G1        1.3320    1.7450    5.7990 h1        1 C2G      0.039700
     48 O1G         2.9250    0.6900    6.6060 oh        1 C2G     -0.631800
     49 H1G2        1.0050    0.0550    6.4400 h1        1 C2G      0.039700
@<TRIPOS>BOND
     1    1    2 1   
     2    1    6 1   
     3    1    9 1   
     4    2    3 1   
     5    2    7 2   
     6    3    4 2   
     7    4    5 1   
     8    4    8 1   
     9    5    6 2   
    10    5   30 1   
    11    6   31 1   
    12    8   32 1   
    13    8   33 1   
    14    9   10 1   
    15    9   14 1   
    16    9   34 1   
    17   10   11 1   
    18   10   12 1   
    19   10   35 1   
    20   11   36 1   
    21   12   13 1   
    22   12   15 1   
    23   12   37 1   
    24   13   14 1   
    25   13   16 1   
    26   13   38 1   
    27   15   39 1   
    28   16   17 1   
    29   16   40 1   
    30   16   41 1   
    31   17   18 1   
    32   18   19 1   
    33   18   20 1   
    34   18   21 1   
    35   21   22 1   
    36   22   23 1   
    37   22   24 1   
    38   22   25 1   
    39   25   29 1   
    40   26   27 1   
    41   26   47 1   
    42   26   48 1   
    43   26   49 1   
    44   27   28 1   
    45   27   29 1   
    46   27   43 1   
    47   28   44 1   
    48   29   45 1   
    49   29   46 1   
    50   42   48 1   
@<TRIPOS>SUBSTRUCTURE
     1 C2G         1 TEMP              0 ****  ****    0 ROOT
