@<TRIPOS>MOLECULE
C2G
   49    47     1     0     0
SMALL
bcc


@<TRIPOS>ATOM
      1 N1          2.1510   -3.7930    2.6020 ns        1 C2G     -0.268000
      2 C2          2.8240   -2.5010    2.5900 c2        1 C2G      0.315000
      3 N3          3.0270   -1.8270    1.3950 n2        1 C2G     -0.391000
      4 C4          2.5880   -2.3950    0.2400 c2        1 C2G      0.191000
      5 C5          1.8690   -3.7350    0.1990 c3        1 C2G     -0.246000
      6 C6          1.7010   -4.3910    1.5140 c1        1 C2G     -0.109000
      7 O2          3.1930   -2.0620    3.7050 o         1 C2G     -0.403000
      8 N4          2.7970   -1.7670   -0.9350 n8        1 C2G     -0.297000
      9 C1'        -2.5750    0.7300   -4.0600 c2        1 C2G     -0.046000
     10 C2'        -2.3360    1.9280   -4.6280 c2        1 C2G     -0.079000
     11 O2'        -3.1920    2.9680   -4.2870 oh        1 C2G     -0.282000
     12 C3'        -1.2140    2.2600   -5.5630 c3        1 C2G      0.020000
     13 C4'        -1.1290   -0.5270   -5.3660 c1        1 C2G     -0.104000
     14 O4'        -1.7580   -0.3930   -4.2010 os        1 C2G     -0.090000
     15 O3'        -1.5250    1.9190   -6.8960 oh        1 C2G     -0.360000
     16 C5'        -0.2720   -1.7300   -5.4740 c3        1 C2G     -0.028000
     17 O5'        -0.2610   -2.5580   -4.3560 os        1 C2G     -0.744000
     18 PA          1.2380   -3.0240   -3.8340 p5        1 C2G      2.070000
     19 O1A         1.1250   -3.7270   -2.5350 o         1 C2G     -0.895500
     20 O2A         2.0660   -1.7960   -3.8150 o         1 C2G     -0.895500
     21 O3A         1.6050   -4.0100   -5.0460 os        1 C2G     -1.293000
     22 PB          1.9270   -5.0080   -6.3100 p5        1 C2G      2.051000
     23 O1B         3.2800   -5.5610   -6.1180 o         1 C2G     -0.857500
     24 O2B         1.3770   -4.4240   -7.5410 o         1 C2G     -0.857500
     25 O3B         0.8930   -6.2390   -5.8570 os        1 C2G     -0.735000
     26 C1G         1.7730   -9.1690   -3.7350 c3        1 C2G     -0.072000
     27 C2G         1.2150   -8.3430   -4.8010 c1        1 C2G     -0.129000
     28 O2G        -0.8570   -7.9670   -7.1990 oh        1 C2G     -0.456000
     29 C3G         1.2600   -6.8960   -4.6850 c3        1 C2G     -0.017000
     30 HC5         0.8540   -3.6200   -0.2970 hc        1 C2G      0.203500
     31 HC6         2.3960   -4.4440   -0.5060 hc        1 C2G      0.203500
     32 HN41        2.4200   -2.1580   -1.7920 hn        1 C2G      0.269000
     33 HN42        3.2350   -0.8790   -0.9840 hn        1 C2G      0.269000
     34 HC1         2.0400   -4.2250    3.4910 hn        1 C2G      0.233000
     35 HC2        -3.3790    0.5110   -3.3440 h4        1 C2G      0.163000
     36 HO2        -3.3270    3.4750   -5.1010 ho        1 C2G      0.208000
     37 HC3        -1.0380    3.3710   -5.5780 h1        1 C2G      0.094500
     38 HC4        -0.2800    1.7310   -5.2260 h1        1 C2G      0.094500
     39 HO3        -1.4830    0.9450   -6.9450 ho        1 C2G      0.248000
     40 HC51        0.7730   -1.3600   -5.7120 h1        1 C2G      0.134500
     41 HC52       -0.6660   -2.3030   -6.3710 h1        1 C2G      0.134500
     42 H1G         1.0630  -10.6500   -4.7700 ho        1 C2G      0.216000
     43 H2G         2.8990   -9.0740   -3.7420 h1        1 C2G      0.105000
     44 HOG        -0.1450   -8.2110   -6.5900 ho        1 C2G      0.222000
     45 H3G1       -0.7650   -7.0100   -7.2500 ho        1 C2G      0.222000
     46 H3G2        0.5090   -6.6330   -3.8660 h1        1 C2G      0.123000
     47 H1G1        2.2810   -6.5330   -4.3450 h1        1 C2G      0.123000
     48 O1G         1.4730  -10.5510   -3.8990 oh        1 C2G     -0.365000
     49 H1G2        1.3960   -8.8970   -2.7080 h1        1 C2G      0.105000
@<TRIPOS>BOND
     1    1    2 1   
     2    1    6 1   
     3    1   34 1   
     4    2    3 1   
     5    2    7 1   
     6    3    4 1   
     7    4    5 1   
     8    4    8 1   
     9    5    6 1   
    10    5   30 1   
    11    5   31 1   
    12    8   32 1   
    13    8   33 1   
    14    9   10 1   
    15    9   14 1   
    16    9   35 1   
    17   10   11 1   
    18   10   12 1   
    19   11   36 1   
    20   12   15 1   
    21   12   37 1   
    22   12   38 1   
    23   13   14 1   
    24   13   16 1   
    25   15   39 1   
    26   16   17 1   
    27   16   40 1   
    28   16   41 1   
    29   17   18 1   
    30   18   19 1   
    31   18   20 1   
    32   18   21 1   
    33   21   22 1   
    34   22   23 1   
    35   22   24 1   
    36   22   25 1   
    37   25   29 1   
    38   26   27 1   
    39   26   43 1   
    40   26   48 1   
    41   26   49 1   
    42   27   29 1   
    43   28   44 1   
    44   28   45 1   
    45   29   46 1   
    46   29   47 1   
    47   42   48 1   
@<TRIPOS>SUBSTRUCTURE
     1 C2G         1 TEMP              0 ****  ****    0 ROOT
