@<TRIPOS>MOLECULE
C2G
   50    47     1     0     0
SMALL
bcc


@<TRIPOS>ATOM
      1 N1          1.0640    0.6720    1.9970 n2        1 C2G     -0.253000
      2 C2          2.4410    0.7330    1.6210 c2        1 C2G      0.279000
      3 N3          2.9910   -0.2820    0.6680 n2        1 C2G     -0.266000
      4 C4          2.1890   -1.1800    0.2210 c2        1 C2G     -0.001000
      5 C5          0.7220   -1.3210    0.5720 c3        1 C2G     -0.181000
      6 C6          0.3060   -0.2430    1.5280 c1        1 C2G     -0.234000
      7 O2          3.2670    1.5660    2.0160 o         1 C2G     -0.307000
      8 N4          2.7340   -2.2040   -0.7320 n4        1 C2G     -0.085000
      9 C1'        -2.2840    0.3800   -1.2840 c2        1 C2G      0.027000
     10 C2'        -1.8540    1.1500   -2.3080 c2        1 C2G     -0.332000
     11 O2'        -2.6560    2.5370   -5.6720 oh        1 C2G     -0.412500
     12 C3'        -1.1660    0.2750   -3.3400 c3        1 C2G      0.151000
     13 C4'        -1.2750   -1.0800   -2.6790 c2        1 C2G     -0.269000
     14 O4'        -2.0300   -0.9840   -1.4730 os        1 C2G     -0.143000
     15 O3'        -1.7820    0.3310   -4.6100 oh        1 C2G     -0.339000
     16 C5'        -0.6420   -2.2080   -2.9340 c1        1 C2G      0.325000
     17 O5'        -0.1310   -3.2480   -3.1960 o         1 C2G     -0.133000
     18 PA          2.2570   -4.0890   -3.5460 p5        1 C2G      1.995000
     19 O1A         2.0990   -2.6230   -3.6230 o         1 C2G     -0.839000
     20 O2A         2.4690   -4.5610   -2.1680 o         1 C2G     -0.839000
     21 O3A         1.3210   -5.0340   -4.5640 os        1 C2G     -1.149000
     22 PB          2.4010   -5.5770   -5.6110 p5        1 C2G      2.661000
     23 O1B         2.3110   -5.4070   -7.0530 o         1 C2G     -1.098000
     24 O2B         3.3520   -4.7130   -4.6670 os        1 C2G     -1.149000
     25 O3B         2.7030   -7.1360   -5.3090 os        1 C2G     -0.723000
     26 C1G         1.5730  -10.1640   -7.1130 c3        1 C2G     -0.062000
     27 C2G         1.5320   -8.8940   -6.4050 c1        1 C2G     -0.127000
     28 O2G        -1.0670   -9.0550   -5.2710 oh        1 C2G     -0.412500
     29 C3G         2.7110   -8.0400   -6.3860 c3        1 C2G     -0.027000
     30 HC5         0.0880   -1.2390   -0.3520 hc        1 C2G      0.124000
     31 HC6         0.5310   -2.3170    1.0490 hc        1 C2G      0.124000
     32 HN41        2.5280   -3.1490   -0.3820 hn        1 C2G      0.255333
     33 HN42        2.2830   -2.1260   -1.6700 hn        1 C2G      0.255333
     34 HC1        -1.9260    2.2270   -2.4240 ha        1 C2G      0.163000
     35 HC2        -2.7730    0.5820   -0.3290 h4        1 C2G      0.200000
     36 HO2        -2.3560    2.4250   -4.7630 ho        1 C2G      0.205250
     37 HC3        -2.1760    1.8530   -6.1500 ho        1 C2G      0.205250
     38 HC4        -0.1000    0.5740   -3.5320 h1        1 C2G      0.144000
     39 HO3        -2.6960    0.0370   -4.5120 ho        1 C2G      0.213000
     40 HC51        0.0160   -1.2520   -5.2030 ha        1 C2G      0.001500
     41 HC52        0.6680   -1.2470   -5.0140 ha        1 C2G      0.001500
     42 H1G        -0.2880  -10.4730   -6.6200 ho        1 C2G      0.238000
     43 H2G        -0.9160   -8.4300   -5.9880 ho        1 C2G      0.205250
     44 HOG        -0.2490   -8.9950   -4.7650 ho        1 C2G      0.205250
     45 H3G1        2.7320   -7.4710   -7.3730 h1        1 C2G      0.133500
     46 H3G2        3.6730   -8.6300   -6.2850 h1        1 C2G      0.133500
     47 O1G         0.3030  -10.7410   -7.3420 oh        1 C2G     -0.340000
     48 H1G2        2.0480  -10.1050   -8.1350 h1        1 C2G      0.110000
     49 H43         3.7420   -2.1200   -0.8660 hn        1 C2G      0.255333
     50 H1G1        2.1850  -10.8800   -6.4790 h1        1 C2G      0.110000
@<TRIPOS>BOND
     1    1    2 1   
     2    1    6 1   
     3    2    3 1   
     4    2    7 1   
     5    3    4 1   
     6    4    5 1   
     7    4    8 1   
     8    5    6 1   
     9    5   30 1   
    10    5   31 1   
    11    8   32 1   
    12    8   33 1   
    13    8   49 1   
    14    9   10 1   
    15    9   14 1   
    16    9   35 1   
    17   10   12 1   
    18   10   34 1   
    19   11   36 1   
    20   11   37 1   
    21   12   13 1   
    22   12   15 1   
    23   12   38 1   
    24   13   14 1   
    25   13   16 1   
    26   15   39 1   
    27   16   17 1   
    28   18   19 1   
    29   18   20 1   
    30   18   21 1   
    31   18   24 1   
    32   21   22 1   
    33   22   23 1   
    34   22   24 1   
    35   22   25 1   
    36   25   29 1   
    37   26   27 1   
    38   26   47 1   
    39   26   48 1   
    40   26   50 1   
    41   27   29 1   
    42   28   43 1   
    43   28   44 1   
    44   29   45 1   
    45   29   46 1   
    46   40   41 1   
    47   42   47 1   
@<TRIPOS>SUBSTRUCTURE
     1 C2G         1 TEMP              0 ****  ****    0 ROOT
