@<TRIPOS>MOLECULE
C2L
   46    47     1     0     0
SMALL
bcc


@<TRIPOS>ATOM
      1 OP3         3.0350   -1.3570   -4.4870 oh        1 C2L     -0.786400
      2 P           4.3170   -1.1770   -3.4860 p5        1 C2L      1.437800
      3 OP1         5.5750   -1.4170   -4.2170 o         1 C2L     -0.849000
      4 OP2         3.8560   -1.8920   -2.2690 o         1 C2L     -0.849000
      5 O5'         4.1960    0.4330   -3.1640 os        1 C2L     -0.581200
      6 C5'         3.0500    0.8810   -2.5030 c3        1 C2L      0.190400
      7 C4'         3.3760    1.2850   -1.0560 c3        1 C2L      0.108100
      8 O4'         2.6800    2.5020   -0.7440 os        1 C2L     -0.402600
      9 C3'         2.9830    0.2060   -0.0250 c3        1 C2L      0.104100
     10 O3'         4.0900    0.0050    0.8520 os        1 C2L     -0.412600
     11 C2'         1.7810    0.8050    0.7300 c3        1 C2L      0.095100
     12 O2'         1.8770    0.5660    2.1200 oh        1 C2L     -0.619800
     13 C1'         1.8220    2.3290    0.3970 c3        1 C2L      0.294500
     14 N1          0.5060    2.9200    0.2120 n         1 C2L     -0.336400
     15 C2         -0.1290    3.4460    1.3990 c         1 C2L      0.742500
     16 O2          0.4390    3.2640    2.5190 o         1 C2L     -0.732100
     17 N3         -1.3500    4.0970    1.3100 ne        1 C2L     -0.803100
     18 C4         -1.9350    4.1890    0.0800 cf        1 C2L      0.674500
     19 N4         -3.1410    4.9350   -0.0200 nh        1 C2L     -0.883800
     20 C5         -1.3720    3.5970   -1.0830 cf        1 C2L     -0.541900
     21 C6         -0.1100    2.9530   -0.9940 c1        1 C2L     -0.048900
     22 CA'         4.5080   -1.3530    0.9470 c3        1 C2L      0.081400
     23 CB'         3.6430   -2.1350    1.9290 c3        1 C2L      0.099400
     24 OC'         4.1190   -2.0340    3.2700 os        1 C2L     -0.454600
     25 CD'         3.8170   -0.7830    3.8710 c3        1 C2L      0.115700
     26 C7         -2.0370    3.6400   -2.3940 c3        1 C2L      0.028100
     27 H5'         2.6720    1.7940   -3.0450 h1        1 C2L      0.037200
     28 H5''        2.2580    0.0830   -2.5230 h1        1 C2L      0.037200
     29 H4'         4.4700    1.5290   -0.9700 h1        1 C2L      0.074700
     30 H3'         2.6930   -0.7550   -0.5320 h1        1 C2L      0.108700
     31 H2'         0.8340    0.3310    0.3510 h1        1 C2L      0.053700
     32 HO2'        1.4120    1.2960    2.5610 ho        1 C2L      0.433000
     33 H1'         2.3300    2.8830    1.2480 h2        1 C2L      0.072700
     34 H41        -3.7530    4.5340   -0.7000 hn        1 C2L      0.360300
     35 H42        -3.6060    5.0750    0.8520 hn        1 C2L      0.360300
     36 H6          2.2700   -1.6830   -4.0270 ho        1 C2L      0.423000
     37 HA'1        4.4870   -1.8490   -0.0640 h1        1 C2L      0.079700
     38 HA'2        5.5620   -1.2820    1.3280 h1        1 C2L      0.079700
     39 HB'1        3.7030   -3.2330    1.7090 h1        1 C2L      0.051700
     40 HB'2        2.5800   -1.7770    1.8690 h1        1 C2L      0.051700
     41 HD'1        4.1160    0.0640    3.2040 h1        1 C2L      0.034700
     42 HD'2        4.3990   -0.7760    4.8250 h1        1 C2L      0.034700
     43 HD'3        2.7190   -0.7150    4.0740 h1        1 C2L      0.034700
     44 H71        -1.4120    3.1150   -3.1590 hc        1 C2L      0.000700
     45 H72        -2.1990    4.6940   -2.7380 hc        1 C2L      0.000700
     46 H73        -3.0410    3.1400   -2.3620 hc        1 C2L      0.000700
@<TRIPOS>BOND
     1    1    2 1   
     2    1   36 1   
     3    2    3 1   
     4    2    4 1   
     5    2    5 1   
     6    5    6 1   
     7    6    7 1   
     8    6   27 1   
     9    6   28 1   
    10    7    8 1   
    11    7    9 1   
    12    7   29 1   
    13    8   13 1   
    14    9   10 1   
    15    9   11 1   
    16    9   30 1   
    17   10   22 1   
    18   11   12 1   
    19   11   13 1   
    20   11   31 1   
    21   12   32 1   
    22   13   14 1   
    23   13   33 1   
    24   14   15 1   
    25   14   21 2   
    26   15   16 2   
    27   15   17 1   
    28   17   18 2   
    29   18   19 1   
    30   18   20 1   
    31   19   34 1   
    32   19   35 1   
    33   20   21 2   
    34   20   26 1   
    35   22   23 1   
    36   22   37 1   
    37   22   38 1   
    38   23   24 1   
    39   23   39 1   
    40   23   40 1   
    41   24   25 1   
    42   25   41 1   
    43   25   42 1   
    44   25   43 1   
    45   26   44 1   
    46   26   45 1   
    47   26   46 1   
@<TRIPOS>SUBSTRUCTURE
     1 C2L         1 TEMP              0 ****  ****    0 ROOT
