@<TRIPOS>MOLECULE
C2L
   46    46     1     0     0
SMALL
bcc


@<TRIPOS>ATOM
      1 OP3        -4.4270    3.8600    0.5990 o         1 C2L     -0.918833
      2 P          -3.1490    3.4210    1.2730 p5        1 C2L      1.574500
      3 OP1        -3.4140    3.1620    2.7370 o         1 C2L     -0.918833
      4 OP2        -2.1080    4.5060    1.1350 o         1 C2L     -0.918833
      5 O5'        -2.6220    2.0960    0.5910 os        1 C2L     -0.737000
      6 C5'        -1.3900    1.5640    1.0210 c3        1 C2L      0.058000
      7 C4'        -1.2580    0.1000    0.5250 c3        1 C2L     -0.040000
      8 O4'        -0.7520    0.0730   -0.9500 os        1 C2L     -0.287000
      9 C3'        -0.3720   -0.5100    1.1910 c3        1 C2L     -0.027000
     10 O3'        -0.7090   -1.9290    1.2940 os        1 C2L     -0.278000
     11 C2'         1.0380   -0.3230    0.3560 c3        1 C2L     -0.008000
     12 O2'         1.9740   -1.3930    0.7050 oh        1 C2L     -0.299000
     13 C1'         0.7340   -0.3960   -0.8700 c3        1 C2L      0.108000
     14 N1          1.5840    0.4870   -1.6540 n         1 C2L     -0.265000
     15 C2          2.9430    0.7790   -1.2050 c2        1 C2L      0.339000
     16 O2          3.3850    0.2340   -0.2130 o         1 C2L     -0.422000
     17 N3          3.7610    1.7470   -1.9310 n2        1 C2L     -0.341000
     18 C4          3.3060    2.2750   -3.1670 c1        1 C2L      0.186000
     19 N4          4.1730    3.0670   -3.9620 n2        1 C2L     -0.337000
     20 C5          1.9700    1.9190   -3.6670 c2        1 C2L     -0.295000
     21 C6          1.1150    1.0120   -2.8850 c2        1 C2L      0.073000
     22 CA'        -0.9380   -2.3660    2.6120 c3        1 C2L     -0.065000
     23 CB'        -1.6160   -3.7180    2.5850 c3        1 C2L     -0.062000
     24 OC'        -1.8010   -4.1780    3.9030 os        1 C2L     -0.316000
     25 CD'        -2.7080   -5.2520    4.0110 c3        1 C2L     -0.071000
     26 C7          1.5260    2.3840   -5.0370 c3        1 C2L     -0.177000
     27 H5'        -0.6570    2.1000    0.6540 h1        1 C2L      0.046500
     28 H5''       -1.3500    1.5820    1.9990 h1        1 C2L      0.046500
     29 H4'        -2.1170   -0.3630    0.5980 h1        1 C2L      0.084000
     30 H3'        -0.2900   -0.1170    2.0820 h1        1 C2L      0.227000
     31 H2'         1.4340    0.5490    0.5530 h1        1 C2L      0.100000
     32 HO2'        2.3600   -1.2060    1.4840 ho        1 C2L      0.177000
     33 H1'         0.8170   -1.3180   -1.1860 h2        1 C2L      0.138000
     34 H41         5.0240    3.2410   -3.6760 hn        1 C2L      0.189500
     35 H42         3.8860    3.3930   -4.7660 hn        1 C2L      0.189500
     36 H6          0.2550    0.7210   -3.2450 h4        1 C2L      0.304000
     37 HA'1       -1.5140   -1.7220    3.0750 h1        1 C2L      0.118000
     38 HA'2       -0.0840   -2.4390    3.0850 h1        1 C2L      0.118000
     39 HB'1       -2.4860   -3.6380    2.1420 h1        1 C2L      0.120500
     40 HB'2       -1.0570   -4.3540    2.0930 h1        1 C2L      0.120500
     41 HD'1       -3.6270   -4.9110    3.9590 h1        1 C2L      0.062333
     42 HD'2       -2.5760   -5.7060    4.8710 h1        1 C2L      0.062333
     43 HD'3       -2.5520   -5.8870    3.2790 h1        1 C2L      0.062333
     44 H71         0.6090    2.0800   -5.2040 hc        1 C2L      0.092667
     45 H72         1.5570    3.3630   -5.0750 hc        1 C2L      0.092667
     46 H73         2.1230    2.0110   -5.7180 hc        1 C2L      0.092667
@<TRIPOS>BOND
     1    1    2 1   
     2    2    3 1   
     3    2    4 1   
     4    2    5 1   
     5    5    6 1   
     6    6    7 1   
     7    6   27 1   
     8    6   28 1   
     9    7    8 1   
    10    7    9 1   
    11    7   29 1   
    12    8   13 1   
    13    9   10 1   
    14    9   11 1   
    15    9   30 1   
    16   10   22 1   
    17   11   12 1   
    18   11   13 1   
    19   11   31 1   
    20   12   32 1   
    21   13   14 1   
    22   13   33 1   
    23   14   15 1   
    24   14   21 1   
    25   15   16 1   
    26   15   17 1   
    27   17   18 1   
    28   18   20 1   
    29   19   34 1   
    30   19   35 1   
    31   20   21 1   
    32   20   26 1   
    33   21   36 1   
    34   22   23 1   
    35   22   37 1   
    36   22   38 1   
    37   23   24 1   
    38   23   39 1   
    39   23   40 1   
    40   24   25 1   
    41   25   41 1   
    42   25   42 1   
    43   25   43 1   
    44   26   44 1   
    45   26   45 1   
    46   26   46 1   
@<TRIPOS>SUBSTRUCTURE
     1 C2L         1 TEMP              0 ****  ****    0 ROOT
