@<TRIPOS>MOLECULE
C2M
   27    21     1     0     0
SMALL
bcc


@<TRIPOS>ATOM
      1 N1          0.3220   -0.0780   -2.7450 n1        1 C2M     -0.586800
      2 C2          1.6830   -0.0150   -2.7470 c1        1 C2M      0.573600
      3 N2          2.3660    0.0380   -1.5680 n1        1 C2M     -0.623800
      4 C3          1.6980    0.0280   -0.4050 c1        1 C2M      0.266800
      5 C4          0.3350   -0.0350   -0.4020 c1        1 C2M     -0.285000
      6 C5         -0.3480   -0.0880   -1.5830 c1        1 C2M      0.460700
      7 C6         -0.3570   -0.0340    0.7990 c1        1 C2M     -0.001000
      8 C7         -0.6160    1.1620    1.4490 c1        1 C2M     -0.061500
      9 C8         -1.2860    1.1600    2.6630 c1        1 C2M      0.025400
     10 C9         -1.6970   -0.0370    3.2260 c1        1 C2M      0.025400
     11 C10        -1.4380   -1.2340    2.5760 c1        1 C2M     -0.061500
     12 C11        -0.7680   -1.2320    1.3630 c1        1 C2M     -0.061500
     13 N3          2.3910   -0.0080   -3.9760 n3        1 C2M     -0.793400
     14 N4          2.4060    0.1300    0.8200 n3        1 C2M     -0.812400
     15 C12        -1.8600   -0.1270   -1.5820 c3        1 C2M     -0.091000
     16 CL1        -2.5150   -0.0410    4.7660 cl        1 C2M     -0.080400
     17 CL2        -1.6250    2.6660    3.4740 cl        1 C2M     -0.080400
     18 H7         -0.3270    2.0060    1.0520 ha        1 C2M      0.104500
     19 H10        -1.7270   -2.0780    2.9730 ha        1 C2M      0.091500
     20 H11        -0.5850   -2.0750    0.9050 ha        1 C2M      0.091500
     21 HN31        3.3040   -0.0570   -3.9780 hn        1 C2M      0.429300
     22 HN32        1.9340    0.0360   -4.7670 hn        1 C2M      0.429300
     23 HN41        3.2960    0.3400    0.8180 hn        1 C2M      0.428800
     24 HN42        1.9740   -0.0210    1.6120 hn        1 C2M      0.428800
     25 H121       -2.2050    0.5740   -0.9900 hc        1 C2M      0.060700
     26 H122       -2.1640   -1.0020   -1.2620 hc        1 C2M      0.060700
     27 H123       -2.1910    0.0220   -2.4920 hc        1 C2M      0.060700
@<TRIPOS>BOND
     1    1    6 3   
     2    2    3 3   
     3    2   13 1   
     4    4    5 3   
     5    4   14 1   
     6    6   15 1   
     7    7    8 3   
     8    8   18 1   
     9    9   10 3   
    10    9   17 1   
    11   10   16 1   
    12   11   12 3   
    13   11   19 1   
    14   12   20 1   
    15   13   21 1   
    16   13   22 1   
    17   14   23 1   
    18   14   24 1   
    19   15   25 1   
    20   15   26 1   
    21   15   27 1   
@<TRIPOS>SUBSTRUCTURE
     1 C2M         1 TEMP              0 ****  ****    0 ROOT
