@<TRIPOS>MOLECULE
C2M
   27    28     1     0     0
SMALL
bcc


@<TRIPOS>ATOM
      1 N1         -0.0450   -0.0180   -0.0660 nb        1 C2M     -0.787000
      2 C2          1.3450   -0.0320   -0.0210 ca        1 C2M      0.911900
      3 N2          2.1100    0.0170    1.1290 nb        1 C2M     -0.823000
      4 C3          1.4290    0.0500    2.3160 ca        1 C2M      0.728200
      5 C4         -0.0080    0.0110    2.3610 cp        1 C2M     -0.412600
      6 C5         -0.6880   -0.0080    1.1190 ca        1 C2M      0.530600
      7 C6         -0.7210    0.0060    3.6300 cp        1 C2M     -0.001000
      8 C7         -1.5030   -1.0960    3.9970 ca        1 C2M     -0.115000
      9 C8         -2.1830   -1.1070    5.2180 ca        1 C2M      0.015400
     10 C9         -2.0860   -0.0090    6.0850 ca        1 C2M      0.013400
     11 C10        -1.3050    1.0930    5.7200 ca        1 C2M     -0.120000
     12 C11        -0.6280    1.1000    4.5050 ca        1 C2M     -0.121000
     13 N3          2.0240   -0.1640   -1.2340 nv        1 C2M     -0.931500
     14 N4          2.1590    0.1820    3.4890 nv        1 C2M     -0.945500
     15 C12        -2.1860   -0.0120    1.1110 c3        1 C2M     -0.159400
     16 Cl1        -2.8990    0.0110    7.5730 cl        1 C2M     -0.068400
     17 Cl2        -3.1190   -2.4640    5.6240 cl        1 C2M     -0.069400
     18 H7         -1.5810   -1.9600    3.3170 ha        1 C2M      0.156000
     19 H10        -1.2290    1.9590    6.3960 ha        1 C2M      0.152000
     20 H11        -0.0180    1.9730    4.2220 ha        1 C2M      0.152000
     21 HN31        2.9890    0.0680   -1.2400 hn        1 C2M      0.429800
     22 HN32        1.5110    0.0360   -2.0600 hn        1 C2M      0.429800
     23 HN41        3.1370    0.0100    3.4540 hn        1 C2M      0.425800
     24 HN42        1.6920   -0.0830    4.3250 hn        1 C2M      0.425800
     25 H121       -2.6020    0.2980    0.1210 hc        1 C2M      0.061033
     26 H122       -2.5460   -1.0460    1.3400 hc        1 C2M      0.061033
     27 H123       -2.5670    0.6840    1.8970 hc        1 C2M      0.061033
@<TRIPOS>BOND
     1    1    2 ar  
     2    1    6 ar  
     3    2    3 ar  
     4    2   13 1   
     5    3    4 ar  
     6    4    5 ar  
     7    4   14 1   
     8    5    6 ar  
     9    5    7 1   
    10    6   15 1   
    11    7    8 ar  
    12    7   12 ar  
    13    8    9 ar  
    14    8   18 1   
    15    9   10 ar  
    16    9   17 1   
    17   10   11 ar  
    18   10   16 1   
    19   11   12 ar  
    20   11   19 1   
    21   12   20 1   
    22   13   21 1   
    23   13   22 1   
    24   14   23 1   
    25   14   24 1   
    26   15   25 1   
    27   15   26 1   
    28   15   27 1   
@<TRIPOS>SUBSTRUCTURE
     1 C2M         1 TEMP              0 ****  ****    0 ROOT
