@<TRIPOS>MOLECULE
C2M
   27    28     1     0     0
SMALL
bcc


@<TRIPOS>ATOM
      1 N1         -0.0440   -0.0150   -0.0630 nb        1 C2M     -0.789000
      2 C2          1.3450    0.0470   -0.0170 ca        1 C2M      0.914900
      3 N2          2.1090    0.0570    1.1350 nb        1 C2M     -0.827000
      4 C3          1.4260    0.0750    2.3210 ca        1 C2M      0.731200
      5 C4         -0.0120    0.0210    2.3630 cp        1 C2M     -0.413600
      6 C5         -0.6880   -0.0240    1.1210 ca        1 C2M      0.531600
      7 C6         -0.7240    0.0160    3.6330 cp        1 C2M      0.000000
      8 C7         -1.5200   -1.0780    3.9940 ca        1 C2M     -0.117000
      9 C8         -2.1990   -1.0890    5.2160 ca        1 C2M      0.015400
     10 C9         -2.0880    0.0030    6.0900 ca        1 C2M      0.013400
     11 C10        -1.2940    1.0980    5.7290 ca        1 C2M     -0.120000
     12 C11        -0.6180    1.1040    4.5130 ca        1 C2M     -0.121000
     13 N3          2.0220    0.1540   -1.2330 nh        1 C2M     -0.934500
     14 N4          2.1540    0.1900    3.4950 nh        1 C2M     -0.948500
     15 C12        -2.1840   -0.0930    1.1040 c3        1 C2M     -0.160400
     16 CL1        -2.8980    0.0240    7.5790 cl        1 C2M     -0.069400
     17 CL2        -3.1500   -2.4360    5.6140 cl        1 C2M     -0.070400
     18 H7         -1.6110   -1.9350    3.3080 ha        1 C2M      0.155000
     19 H10        -1.2080    1.9600    6.4100 ha        1 C2M      0.153000
     20 H11        -0.0010    1.9730    4.2340 ha        1 C2M      0.153000
     21 HN31        2.9980   -0.0240   -1.2290 hn        1 C2M      0.431800
     22 HN32        1.5200   -0.0870   -2.0540 hn        1 C2M      0.431800
     23 HN41        3.1350    0.0430    3.4590 hn        1 C2M      0.427300
     24 HN42        1.6900   -0.0830    4.3290 hn        1 C2M      0.427300
     25 H121       -2.6090    0.3000    0.1470 hc        1 C2M      0.061033
     26 H122       -2.5020   -1.1590    1.2200 hc        1 C2M      0.061033
     27 H123       -2.6010    0.5010    1.9540 hc        1 C2M      0.061033
@<TRIPOS>BOND
     1    1    2 ar  
     2    1    6 ar  
     3    2    3 ar  
     4    2   13 1   
     5    3    4 ar  
     6    4    5 ar  
     7    4   14 1   
     8    5    6 ar  
     9    5    7 1   
    10    6   15 1   
    11    7    8 ar  
    12    7   12 ar  
    13    8    9 ar  
    14    8   18 1   
    15    9   10 ar  
    16    9   17 1   
    17   10   11 ar  
    18   10   16 1   
    19   11   12 ar  
    20   11   19 1   
    21   12   20 1   
    22   13   21 1   
    23   13   22 1   
    24   14   23 1   
    25   14   24 1   
    26   15   25 1   
    27   15   26 1   
    28   15   27 1   
@<TRIPOS>SUBSTRUCTURE
     1 C2M         1 TEMP              0 ****  ****    0 ROOT
