@<TRIPOS>MOLECULE
C2M
   29    30     1     0     0
SMALL
bcc


@<TRIPOS>ATOM
      1 N1         -0.0710   -0.0250   -0.0570 nb        1 C2M     -0.640000
      2 C2          1.3030    0.0690   -0.0010 ca        1 C2M      0.742900
      3 N2          2.0770    0.1250    1.1140 nb        1 C2M     -0.668000
      4 C3          1.3850    0.0860    2.2980 ca        1 C2M      0.488200
      5 C4         -0.0240    0.0020    2.3780 cp        1 C2M     -0.112600
      6 C5         -0.7310   -0.0610    1.1170 ca        1 C2M      0.544600
      7 C6         -0.7170   -0.0160    3.6550 cp        1 C2M     -0.177000
      8 C7         -1.5360   -1.0990    4.0000 ca        1 C2M     -0.076000
      9 C8         -2.2120   -1.1150    5.2250 ca        1 C2M      0.012400
     10 C9         -2.0890   -0.0230    6.1090 ca        1 C2M      0.065400
     11 C10        -1.2810    1.0690    5.7470 ca        1 C2M     -0.102000
     12 C11        -0.5970    1.0730    4.5390 ca        1 C2M     -0.136000
     13 N3          2.0040    0.1140   -1.3190 n4        1 C2M     -0.815300
     14 N4          2.1950    0.1230    3.5330 n4        1 C2M     -0.823300
     15 C12        -2.2190   -0.1670    1.1050 c3        1 C2M     -0.189400
     16 CL1        -2.8960    0.0020    7.5780 cl        1 C2M      0.047600
     17 CL2        -3.1690   -2.4440    5.6100 cl        1 C2M      0.026600
     18 H7         -1.6510   -1.9510    3.3080 ha        1 C2M      0.166000
     19 H10        -1.2040    1.9370    6.4270 ha        1 C2M      0.191000
     20 H11        -0.0150    1.9640    4.2550 ha        1 C2M      0.142000
     21 HN31        3.0250    0.1770   -1.1900 hn        1 C2M      0.499467
     22 HN32        1.7760   -0.7420   -1.8500 hn        1 C2M      0.499467
     23 HN41        1.5650    0.0040    4.3470 hn        1 C2M      0.493467
     24 HN42        2.6840    1.0270    3.6090 hn        1 C2M      0.493467
     25 H121       -2.6670    0.3020    0.1900 hc        1 C2M      0.112033
     26 H122       -2.6470    0.3290    2.0140 hc        1 C2M      0.112033
     27 H123       -2.5120   -1.2520    1.1150 hc        1 C2M      0.112033
     28 H33         1.6710    0.9360   -1.8480 hn        1 C2M      0.499467
     29 H43         2.8940   -0.6350    3.5260 hn        1 C2M      0.493467
@<TRIPOS>BOND
     1    1    2 ar  
     2    1    6 ar  
     3    2    3 ar  
     4    2   13 1   
     5    3    4 ar  
     6    4    5 ar  
     7    4   14 1   
     8    5    6 ar  
     9    5    7 1   
    10    6   15 1   
    11    7    8 ar  
    12    7   12 ar  
    13    8    9 ar  
    14    8   18 1   
    15    9   10 ar  
    16    9   17 1   
    17   10   11 ar  
    18   10   16 1   
    19   11   12 ar  
    20   11   19 1   
    21   12   20 1   
    22   13   21 1   
    23   13   22 1   
    24   13   28 1   
    25   14   23 1   
    26   14   24 1   
    27   14   29 1   
    28   15   25 1   
    29   15   26 1   
    30   15   27 1   
@<TRIPOS>SUBSTRUCTURE
     1 C2M         1 TEMP              0 ****  ****    0 ROOT
