@<TRIPOS>MOLECULE
C2M
   27    28     1     0     0
SMALL
bcc


@<TRIPOS>ATOM
      1 N1          3.5400    1.1310    0.6420 nb        1 C2M     -0.787000
      2 C2          4.2470    0.1860   -0.0920 ca        1 C2M      0.911900
      3 N2          3.7010   -0.9290   -0.7010 nb        1 C2M     -0.823000
      4 C3          2.3460   -1.0850   -0.5880 ca        1 C2M      0.728200
      5 C4          1.5330   -0.1240    0.1080 cp        1 C2M     -0.412600
      6 C5          2.2040    0.9620    0.7170 ca        1 C2M      0.530600
      7 C6          0.0870   -0.2800    0.1880 cp        1 C2M     -0.001000
      8 C7         -0.7580    0.6670   -0.4040 ca        1 C2M     -0.115000
      9 C8         -2.1470    0.5180   -0.3350 ca        1 C2M      0.015400
     10 C9         -2.7010   -0.5860    0.3310 ca        1 C2M      0.013400
     11 C10        -1.8570   -1.5320    0.9220 ca        1 C2M     -0.120000
     12 C11        -0.4760   -1.3810    0.8500 ca        1 C2M     -0.121000
     13 N3          5.6130    0.4110   -0.2810 nh        1 C2M     -0.931500
     14 N4          1.7710   -2.2330   -1.1150 nh        1 C2M     -0.945500
     15 C12         1.4080    1.9730    1.4840 c3        1 C2M     -0.159400
     16 CL1        -4.3810   -0.7970    0.4330 cl        1 C2M     -0.068400
     17 CL2        -3.1350    1.6870   -1.0670 cl        1 C2M     -0.069400
     18 H7         -0.3240    1.5340   -0.9260 ha        1 C2M      0.156000
     19 H10        -2.2890   -2.3980    1.4480 ha        1 C2M      0.152000
     20 H11         0.1820   -2.1280    1.3220 ha        1 C2M      0.152000
     21 HN31        6.0500    1.0580    0.3320 hn        1 C2M      0.429800
     22 HN32        6.1600   -0.3610   -0.5830 hn        1 C2M      0.429800
     23 HN41        2.3070   -2.7760   -1.7510 hn        1 C2M      0.425800
     24 HN42        0.7920   -2.1930   -1.2800 hn        1 C2M      0.425800
     25 H121        0.9170    2.6720    0.7610 hc        1 C2M      0.061033
     26 H122        0.6140    1.4540    2.0750 hc        1 C2M      0.061033
     27 H123        2.0450    2.5710    2.1800 hc        1 C2M      0.061033
@<TRIPOS>BOND
     1    1    2 ar  
     2    1    6 ar  
     3    2    3 ar  
     4    2   13 1   
     5    3    4 ar  
     6    4    5 ar  
     7    4   14 1   
     8    5    6 ar  
     9    5    7 1   
    10    6   15 1   
    11    7    8 ar  
    12    7   12 ar  
    13    8    9 ar  
    14    8   18 1   
    15    9   10 ar  
    16    9   17 1   
    17   10   11 ar  
    18   10   16 1   
    19   11   12 ar  
    20   11   19 1   
    21   12   20 1   
    22   13   21 1   
    23   13   22 1   
    24   14   23 1   
    25   14   24 1   
    26   15   25 1   
    27   15   26 1   
    28   15   27 1   
@<TRIPOS>SUBSTRUCTURE
     1 C2M         1 TEMP              0 ****  ****    0 ROOT
