@<TRIPOS>MOLECULE
C2N
   12    11     1     0     0
SMALL
bcc


@<TRIPOS>ATOM
      1 CL         -2.0790   -0.2880   -1.2270 cl        1 C2N     -0.283400
      2 CB         -0.3350   -0.2880   -1.2270 c3        1 C2N      0.085000
      3 CA          0.1680   -0.2880    0.1970 c3        1 C2N      0.002500
      4 C          -0.7940    0.4830    1.0720 c         1 C2N      0.889600
      5 OXT        -1.5380   -0.1310    1.8810 o         1 C2N     -0.834800
      6 O          -0.8510    1.7380    0.9920 o         1 C2N     -0.834800
      7 N           1.4500    0.3270    0.2470 n3        1 C2N     -0.881800
      8 HB1        -0.0100   -1.0850   -1.6880 h1        1 C2N      0.066700
      9 HB2        -0.0100    0.5090   -1.6880 h1        1 C2N      0.066700
     10 HA          0.2360   -1.2070    0.5190 h1        1 C2N      0.058700
     11 H           1.7090    0.4220    1.1170 hn        1 C2N      0.332300
     12 H2          2.0550   -0.1930   -0.1950 hn        1 C2N      0.332300
@<TRIPOS>BOND
     1    1    2 1   
     2    2    3 1   
     3    2    8 1   
     4    2    9 1   
     5    3    4 1   
     6    3    7 1   
     7    3   10 1   
     8    4    5 1   
     9    4    6 1   
    10    7   11 1   
    11    7   12 1   
@<TRIPOS>SUBSTRUCTURE
     1 C2N         1 TEMP              0 ****  ****    0 ROOT
