@<TRIPOS>MOLECULE
C2N
   12    11     1     0     0
SMALL
bcc


@<TRIPOS>ATOM
      1 CL         -2.4370    0.4640    0.0090 cl        1 C2N     -0.283400
      2 CB         -0.7290    0.5560   -0.4690 c3        1 C2N      0.085000
      3 CA          0.1960   -0.2570    0.4210 c3        1 C2N      0.002500
      4 C           1.6670    0.1590    0.0500 c         1 C2N      0.889600
      5 OXT         1.9100    1.3920   -0.0510 o         1 C2N     -0.834800
      6 O           2.5140   -0.7620   -0.1080 o         1 C2N     -0.834800
      7 N          -0.0570   -1.6890    0.3760 n3        1 C2N     -0.881800
      8 HB1        -0.6980    0.2120   -1.5280 h1        1 C2N      0.066700
      9 HB2        -0.4440    1.6350   -0.4000 h1        1 C2N      0.066700
     10 HA          0.0420    0.0620    1.4930 h1        1 C2N      0.058700
     11 H          -0.0950   -1.9800   -0.5850 hn        1 C2N      0.332300
     12 H2          0.7480   -2.1440    0.7770 hn        1 C2N      0.332300
@<TRIPOS>BOND
     1    1    2 1   
     2    2    3 1   
     3    2    8 1   
     4    2    9 1   
     5    3    4 1   
     6    3    7 1   
     7    3   10 1   
     8    4    5 1   
     9    4    6 1   
    10    7   11 1   
    11    7   12 1   
@<TRIPOS>SUBSTRUCTURE
     1 C2N         1 TEMP              0 ****  ****    0 ROOT
