@<TRIPOS>MOLECULE
C2P
   34    36     1     0     0
SMALL
bcc


@<TRIPOS>ATOM
      1 N1         -0.1960   -0.1390   -0.2790 n         1 C2P     -0.501800
      2 C2          0.9010   -1.0420   -0.1310 c2        1 C2P      0.452000
      3 N3          1.6360   -1.0670    1.0650 ne        1 C2P     -0.578600
      4 C4          1.3270   -0.1010    1.9640 ce        1 C2P      0.272600
      5 C5          0.4380    0.9300    1.8610 c2        1 C2P     -0.377200
      6 C6         -0.2200    1.1100    0.5140 c3        1 C2P      0.414700
      7 O2          1.1790   -1.8700   -1.0340 o         1 C2P     -0.420000
      8 N4          2.0990   -0.2210    3.2520 nz        1 C2P     -0.730400
      9 C1'        -0.9190    0.0030   -1.5280 c3        1 C2P      0.269500
     10 C2'        -0.4360    1.2250   -2.3990 c3        1 C2P      0.124100
     11 O2'        -1.1480    2.3600   -2.0560 os        1 C2P     -0.570200
     12 C3'        -0.7130    0.7610   -3.8420 c3        1 C2P      0.119100
     13 C4'        -0.6840   -0.7780   -3.7370 c3        1 C2P      0.083100
     14 O4'        -0.9030   -1.1590   -2.3680 os        1 C2P     -0.399600
     15 O3'        -1.9590    1.1760   -4.3630 oh        1 C2P     -0.619800
     16 C5'         0.6640   -1.3470   -4.1820 c3        1 C2P      0.133400
     17 O5'         0.7580   -2.7220   -3.8860 oh        1 C2P     -0.627800
     18 P          -0.4700    3.3410   -0.8770 p5        1 C2P      1.430800
     19 O1P        -1.5730    3.6650    0.0430 o         1 C2P     -0.808500
     20 O2P         0.4340    2.1740   -0.1320 os        1 C2P     -0.602200
     21 O3P         0.4700    4.2570   -1.5340 o         1 C2P     -0.808500
     22 H5          0.2270    1.6980    2.6050 ha        1 C2P      0.133000
     23 H6         -1.3120    1.3940    0.6570 h2        1 C2P      0.078700
     24 HN41        1.9860   -1.1580    3.6400 hn        1 C2P      0.433800
     25 HN42        1.7550    0.4770    3.9090 hn        1 C2P      0.433800
     26 H1'        -2.0080    0.1580   -1.2470 h2        1 C2P      0.065700
     27 H2'         0.6700    1.4000   -2.2770 h1        1 C2P      0.072700
     28 H3'         0.0780    1.1330   -4.5470 h1        1 C2P      0.055700
     29 H4'        -1.5260   -1.2450   -4.3140 h1        1 C2P      0.073700
     30 HO3'       -2.3410    1.8100   -3.7380 ho        1 C2P      0.437000
     31 H5'1        1.4970   -0.7880   -3.6770 h1        1 C2P      0.038700
     32 H5'2        0.7660   -1.2700   -5.2960 h1        1 C2P      0.038700
     33 HO5'        0.6670   -2.8020   -2.9210 ho        1 C2P      0.448000
     34 H43         3.0870   -0.0580    3.0540 hn        1 C2P      0.433800
@<TRIPOS>BOND
     1    1    2 1   
     2    1    6 1   
     3    1    9 1   
     4    2    3 2   
     5    2    7 1   
     6    3    4 1   
     7    4    5 2   
     8    4    8 1   
     9    5    6 1   
    10    5   22 1   
    11    6   20 1   
    12    6   23 1   
    13    8   24 1   
    14    8   25 1   
    15    8   34 1   
    16    9   10 1   
    17    9   14 1   
    18    9   26 1   
    19   10   11 1   
    20   10   12 1   
    21   10   27 1   
    22   11   18 1   
    23   12   13 1   
    24   12   15 1   
    25   12   28 1   
    26   13   14 1   
    27   13   16 1   
    28   13   29 1   
    29   15   30 1   
    30   16   17 1   
    31   16   31 1   
    32   16   32 1   
    33   17   33 1   
    34   18   19 1   
    35   18   20 1   
    36   18   21 1   
@<TRIPOS>SUBSTRUCTURE
     1 C2P         1 TEMP              0 ****  ****    0 ROOT
