@<TRIPOS>MOLECULE
C2P
   33    33     1     0     0
SMALL
bcc


@<TRIPOS>ATOM
      1 N1          0.1130    0.8710    0.7800 n         1 C2P     -0.230000
      2 C2          1.5690    1.0020    0.8240 c2        1 C2P      0.312000
      3 N3          2.2780    0.8810    2.0980 n2        1 C2P     -0.374000
      4 C4          1.5640    0.5570    3.2810 c1        1 C2P      0.138000
      5 C5          0.1050    0.3990    3.2360 c1        1 C2P     -0.438000
      6 C6         -0.6080    0.5480    1.9600 c2        1 C2P     -0.164000
      7 O2          2.1830    1.2780   -0.1860 o         1 C2P     -0.472000
      8 N4          2.2590    0.3750    4.5010 n3        1 C2P     -0.322000
      9 C1'        -0.5860    1.0800   -0.4470 c3        1 C2P      0.146000
     10 C2'         0.1210    0.2510   -1.6320 c3        1 C2P      0.031000
     11 O2'        -0.2500    0.8160   -2.9310 os        1 C2P     -0.750000
     12 C3'        -0.3210   -0.9620   -1.5320 c3        1 C2P     -0.004000
     13 C4'        -1.7020   -0.8260   -0.8670 c3        1 C2P     -0.022000
     14 O4'        -1.7810    0.6300   -0.3540 os        1 C2P     -0.287000
     15 O3'        -0.4570   -1.5750   -2.8870 oh        1 C2P     -0.356000
     16 C5'        -1.8180   -1.7210    0.1960 c3        1 C2P     -0.043000
     17 O5'        -2.3150   -2.9560   -0.2790 oh        1 C2P     -0.367000
     18 P           0.8500    1.6050   -3.7530 p5        1 C2P      1.580500
     19 O1P         0.2770    2.0230   -5.0880 o         1 C2P     -0.723167
     20 O2P         2.0480    0.7130   -3.9750 o         1 C2P     -0.723167
     21 O3P         1.2720    2.8320   -2.9790 o         1 C2P     -0.723167
     22 H5         -0.3890    0.1770    4.0500 ha        1 C2P      0.107000
     23 H6         -1.5790    0.4540    1.9290 h4        1 C2P      0.237000
     24 HN41        3.1700    0.4460    4.5230 hn        1 C2P      0.148000
     25 HN42        1.7950    0.2300    5.2730 hn        1 C2P      0.148000
     26 H1'        -0.6020    2.0340   -0.6670 h2        1 C2P      0.148000
     27 H2'         1.0920    0.2660   -1.5220 h1        1 C2P      0.150000
     28 H3'         0.2770   -1.4970   -0.9720 h1        1 C2P      0.141000
     29 H4'        -2.4090   -0.9890   -1.5230 h1        1 C2P      0.078000
     30 HO3'       -0.0320   -2.3550   -2.9030 ho        1 C2P      0.226000
     31 H5'1       -0.9360   -1.8590    0.6050 h1        1 C2P      0.101500
     32 H5'2       -2.4350   -1.3560    0.8660 h1        1 C2P      0.101500
     33 HO5'       -2.7520   -3.3720    0.3750 ho        1 C2P      0.207000
@<TRIPOS>BOND
     1    1    2 1   
     2    1    6 1   
     3    1    9 1   
     4    2    3 1   
     5    2    7 1   
     6    3    4 1   
     7    4    8 1   
     8    5    6 1   
     9    5   22 1   
    10    6   23 1   
    11    8   24 1   
    12    8   25 1   
    13    9   10 1   
    14    9   14 1   
    15    9   26 1   
    16   10   11 1   
    17   10   12 1   
    18   10   27 1   
    19   11   18 1   
    20   12   13 1   
    21   12   15 1   
    22   12   28 1   
    23   13   14 1   
    24   13   16 1   
    25   13   29 1   
    26   15   30 1   
    27   16   17 1   
    28   16   31 1   
    29   16   32 1   
    30   17   33 1   
    31   18   19 1   
    32   18   20 1   
    33   18   21 1   
@<TRIPOS>SUBSTRUCTURE
     1 C2P         1 TEMP              0 ****  ****    0 ROOT
