@<TRIPOS>MOLECULE
C2P
   34    36     1     0     0
SMALL
bcc


@<TRIPOS>ATOM
      1 N1         -0.1950   -0.1170   -0.2710 n         1 C2P     -0.501800
      2 C2          0.9040   -1.0120   -0.1060 c2        1 C2P      0.452000
      3 N3          1.6380   -1.0140    1.0910 ne        1 C2P     -0.578600
      4 C4          1.3250   -0.0330    1.9730 ce        1 C2P      0.272600
      5 C5          0.4320    0.9930    1.8510 c2        1 C2P     -0.377200
      6 C6         -0.2240    1.1470    0.4990 c3        1 C2P      0.414700
      7 O2          1.1860   -1.8560   -0.9930 o         1 C2P     -0.420000
      8 N4          2.0950   -0.1280    3.2640 n4        1 C2P     -0.730400
      9 C1'        -0.9180    0.0010   -1.5230 c3        1 C2P      0.269500
     10 C2'        -0.4370    1.2090   -2.4150 c3        1 C2P      0.124100
     11 O2'        -1.1540    2.3470   -2.0940 os        1 C2P     -0.570200
     12 C3'        -0.7110    0.7180   -3.8500 c3        1 C2P      0.119100
     13 C4'        -0.6770   -0.8180   -3.7180 c3        1 C2P      0.083100
     14 O4'        -0.8970   -1.1760   -2.3430 os        1 C2P     -0.399600
     15 O3'        -1.9580    1.1190   -4.3800 oh        1 C2P     -0.619800
     16 C5'         0.6740   -1.3900   -4.1510 c3        1 C2P      0.133400
     17 O5'         0.7720   -2.7600   -3.8300 oh        1 C2P     -0.627800
     18 P          -0.4810    3.3510   -0.9310 p5        1 C2P      1.430800
     19 O1P        -1.5870    3.6880   -0.0190 o         1 C2P     -0.808500
     20 O2P         0.4270    2.2010   -0.1640 os        1 C2P     -0.602200
     21 O3P         0.4570    4.2590   -1.6030 o         1 C2P     -0.808500
     22 H5          0.2170    1.7730    2.5800 ha        1 C2P      0.133000
     23 H6         -1.3180    1.4290    0.6370 h2        1 C2P      0.078700
     24 HN41        1.9870   -1.0590    3.6670 hn        1 C2P      0.433800
     25 HN42        1.7480    0.5800    3.9080 hn        1 C2P      0.433800
     26 H1'        -2.0070    0.1580   -1.2460 h2        1 C2P      0.065700
     27 H2'         0.6680    1.3900   -2.2950 h1        1 C2P      0.072700
     28 H3'         0.0790    1.0810   -4.5610 h1        1 C2P      0.055700
     29 H4'        -1.5170   -1.2990   -4.2880 h1        1 C2P      0.073700
     30 HO3'       -2.3430    1.7630   -3.7670 ho        1 C2P      0.437000
     31 H5'1        0.7770   -1.3330   -5.2660 h1        1 C2P      0.038700
     32 H5'2        1.5040   -0.8190   -3.6550 h1        1 C2P      0.038700
     33 HO5'        0.6800   -2.8230   -2.8650 ho        1 C2P      0.448000
     34 H43         3.0830    0.0360    3.0640 hn        1 C2P      0.433800
@<TRIPOS>BOND
     1    1    2 1   
     2    1    6 1   
     3    1    9 1   
     4    2    3 2   
     5    2    7 1   
     6    3    4 1   
     7    4    5 2   
     8    4    8 1   
     9    5    6 1   
    10    5   22 1   
    11    6   20 1   
    12    6   23 1   
    13    8   24 1   
    14    8   25 1   
    15    8   34 1   
    16    9   10 1   
    17    9   14 1   
    18    9   26 1   
    19   10   11 1   
    20   10   12 1   
    21   10   27 1   
    22   11   18 1   
    23   12   13 1   
    24   12   15 1   
    25   12   28 1   
    26   13   14 1   
    27   13   16 1   
    28   13   29 1   
    29   15   30 1   
    30   16   17 1   
    31   16   31 1   
    32   16   32 1   
    33   17   33 1   
    34   18   19 1   
    35   18   20 1   
    36   18   21 1   
@<TRIPOS>SUBSTRUCTURE
     1 C2P         1 TEMP              0 ****  ****    0 ROOT
