@<TRIPOS>MOLECULE
C2P
   33    34     1     0     0
SMALL
bcc


@<TRIPOS>ATOM
      1 N1          1.0460   -0.4710    1.0040 n         1 C2P     -0.335400
      2 C2          1.7680    0.7690    1.0630 c         1 C2P      0.752500
      3 N3          2.1660    1.2990    2.2910 ne        1 C2P     -0.802100
      4 C4          1.8960    0.5750    3.4110 cf        1 C2P      0.662500
      5 C5          1.2190   -0.6710    3.3690 cf        1 C2P     -0.583700
      6 C6          0.7940   -1.1910    2.1340 c1        1 C2P     -0.097900
      7 O2          2.0470    1.3870   -0.0060 o         1 C2P     -0.725100
      8 N4          2.3490    1.0800    4.6650 nh        1 C2P     -0.883800
      9 C1'         0.5710   -1.0440   -0.2480 c3        1 C2P      0.292500
     10 C2'        -0.6270   -0.2870   -0.9340 c3        1 C2P      0.182100
     11 O2'        -1.5050   -1.2340   -1.4350 os        1 C2P     -0.565200
     12 C3'         0.0880    0.5030   -2.0580 c3        1 C2P      0.091100
     13 C4'         1.3630   -0.3090   -2.3590 c3        1 C2P      0.087100
     14 O4'         1.6390   -1.1280   -1.2200 os        1 C2P     -0.423600
     15 O3'        -0.7380    0.6300   -3.1990 oh        1 C2P     -0.564800
     16 C5'         2.5810    0.5680   -2.6610 c3        1 C2P      0.144400
     17 O5'         3.7400    0.1410   -1.9810 oh        1 C2P     -0.630800
     18 P          -3.1030   -1.1500   -0.9900 p5        1 C2P      1.437800
     19 O1P        -3.3320    0.1780   -0.3810 o         1 C2P     -0.840000
     20 O2P        -3.9360   -1.7600   -2.0440 o         1 C2P     -0.840000
     21 O3P        -2.9680   -2.2010    0.2510 oh        1 C2P     -0.785400
     22 H5          1.0190   -1.2490    4.2740 ha        1 C2P      0.109000
     23 H6         -2.3190   -1.9420    0.8950 ho        1 C2P      0.433000
     24 HN41        2.5730    2.0540    4.6470 hn        1 C2P      0.353800
     25 HN42        1.6770    0.8860    5.3780 hn        1 C2P      0.353800
     26 H1'         0.2750   -2.1170   -0.0440 h2        1 C2P      0.109700
     27 H2'        -1.1560    0.4170   -0.2340 h1        1 C2P      0.098700
     28 H3'         0.3570    1.5210   -1.6590 h1        1 C2P      0.066700
     29 H4'         1.1720   -1.0150   -3.2140 h1        1 C2P      0.044700
     30 HO3'       -0.2180    1.1360   -3.8350 ho        1 C2P      0.366000
     31 H5'1        2.8410    0.5020   -3.7520 h1        1 C2P      0.022200
     32 H5'2        2.3670    1.6390   -2.3910 h1        1 C2P      0.022200
     33 HO5'        3.5000    0.0950   -1.0400 ho        1 C2P      0.447000
@<TRIPOS>BOND
     1    1    2 1   
     2    1    6 2   
     3    1    9 1   
     4    2    3 1   
     5    2    7 2   
     6    3    4 2   
     7    4    5 1   
     8    4    8 1   
     9    5    6 2   
    10    5   22 1   
    11    8   24 1   
    12    8   25 1   
    13    9   10 1   
    14    9   14 1   
    15    9   26 1   
    16   10   11 1   
    17   10   12 1   
    18   10   27 1   
    19   11   18 1   
    20   12   13 1   
    21   12   15 1   
    22   12   28 1   
    23   13   14 1   
    24   13   16 1   
    25   13   29 1   
    26   15   30 1   
    27   16   17 1   
    28   16   31 1   
    29   16   32 1   
    30   17   33 1   
    31   18   19 1   
    32   18   20 1   
    33   18   21 1   
    34   21   23 1   
@<TRIPOS>SUBSTRUCTURE
     1 C2P         1 TEMP              0 ****  ****    0 ROOT
