@<TRIPOS>MOLECULE
C2P
   34    36     1     0     0
SMALL
bcc


@<TRIPOS>ATOM
      1 N1         -0.1920   -0.1470   -0.2810 n         1 C2P     -0.501800
      2 C2          0.9210   -1.0260   -0.1270 c2        1 C2P      0.452000
      3 N3          1.6480   -1.0390    1.0750 ne        1 C2P     -0.578600
      4 C4          1.3120   -0.0810    1.9730 ce        1 C2P      0.272600
      5 C5          0.4030    0.9320    1.8640 c2        1 C2P     -0.377200
      6 C6         -0.2470    1.1010    0.5120 c3        1 C2P      0.414700
      7 O2          1.2220   -1.8480   -1.0280 o         1 C2P     -0.420000
      8 N4          2.0770   -0.1860    3.2660 n4        1 C2P     -0.730400
      9 C1'        -0.9090   -0.0180   -1.5360 c3        1 C2P      0.269500
     10 C2'        -0.4440    1.2150   -2.4020 c3        1 C2P      0.124100
     11 O2'        -1.1820    2.3350   -2.0640 os        1 C2P     -0.570200
     12 C3'        -0.7000    0.7470   -3.8470 c3        1 C2P      0.119100
     13 C4'        -0.6420   -0.7910   -3.7450 c3        1 C2P      0.083100
     14 O4'        -0.8640   -1.1780   -2.3780 os        1 C2P     -0.399600
     15 O3'        -1.9510    1.1370   -4.3780 oh        1 C2P     -0.619800
     16 C5'         0.7210   -1.3310   -4.1790 c3        1 C2P      0.133400
     17 O5'         0.8410   -2.7050   -3.8840 oh        1 C2P     -0.627800
     18 P          -0.5330    3.3280   -0.8780 p5        1 C2P      1.430800
     19 O1P        -1.6500    3.6280    0.0330 o         1 C2P     -0.808500
     20 O2P         0.3890    2.1790   -0.1280 os        1 C2P     -0.602200
     21 O3P         0.3930    4.2640   -1.5270 o         1 C2P     -0.808500
     22 H5          0.1710    1.6950    2.6070 ha        1 C2P      0.133000
     23 H6         -1.3470    1.3630    0.6480 h2        1 C2P      0.078700
     24 HN41        1.7160    0.5050    3.9200 hn        1 C2P      0.434133
     25 HN42        3.0630   -0.0050    3.0760 hn        1 C2P      0.434133
     26 H1'        -2.0030    0.1160   -1.2630 h2        1 C2P      0.065700
     27 H2'         0.6570    1.4120   -2.2720 h1        1 C2P      0.072700
     28 H3'         0.0870    1.1360   -4.5460 h1        1 C2P      0.055700
     29 H4'        -1.4690   -1.2740   -4.3290 h1        1 C2P      0.073700
     30 HO3'       -2.3500    1.7630   -3.7550 ho        1 C2P      0.437000
     31 H5'1        0.8310   -1.2520   -5.2920 h1        1 C2P      0.038700
     32 H5'2        1.5390   -0.7570   -3.6670 h1        1 C2P      0.038700
     33 HO5'        0.7440   -2.7890   -2.9210 ho        1 C2P      0.448000
     34 H43         1.9790   -1.1260    3.6530 hn        1 C2P      0.434133
@<TRIPOS>BOND
     1    1    2 1   
     2    1    6 1   
     3    1    9 1   
     4    2    3 2   
     5    2    7 1   
     6    3    4 1   
     7    4    5 2   
     8    4    8 1   
     9    5    6 1   
    10    5   22 1   
    11    6   20 1   
    12    6   23 1   
    13    8   24 1   
    14    8   25 1   
    15    8   34 1   
    16    9   10 1   
    17    9   14 1   
    18    9   26 1   
    19   10   11 1   
    20   10   12 1   
    21   10   27 1   
    22   11   18 1   
    23   12   13 1   
    24   12   15 1   
    25   12   28 1   
    26   13   14 1   
    27   13   16 1   
    28   13   29 1   
    29   15   30 1   
    30   16   17 1   
    31   16   31 1   
    32   16   32 1   
    33   17   33 1   
    34   18   19 1   
    35   18   20 1   
    36   18   21 1   
@<TRIPOS>SUBSTRUCTURE
     1 C2P         1 TEMP              0 ****  ****    0 ROOT
