@<TRIPOS>MOLECULE
C2R
   33    34     1     0     0
SMALL
bcc


@<TRIPOS>ATOM
      1 PA          4.8200    0.6200    0.6510 p5        1 C2R      1.335900
      2 O1A         4.8930   -0.2280    1.8880 o         1 C2R     -0.935167
      3 O2A         6.0650    0.7350   -0.1780 o         1 C2R     -0.935167
      4 O3A         3.9980    1.8860    0.8010 o         1 C2R     -0.935167
      5 O5'         3.7450   -0.2880   -0.3660 os        1 C2R     -0.567200
      6 C2'        -0.4730    1.6480    0.4060 c3        1 C2R      0.091100
      7 O2'        -1.0290    2.8680   -0.0330 oh        1 C2R     -0.619800
      8 C3'         1.0710    1.5940    0.4090 c3        1 C2R      0.128100
      9 O3'         1.5690    2.7810   -0.1650 oh        1 C2R     -0.692800
     10 C5'         2.5170   -0.5450    0.1860 c3        1 C2R      0.235400
     11 C4'         1.4390    0.3650   -0.4470 c3        1 C2R      0.067100
     12 O4'         0.2270   -0.4010   -0.6520 os        1 C2R     -0.437600
     13 C1'        -0.8960    0.4910   -0.5640 c3        1 C2R      0.224800
     14 N1         -2.0810   -0.2290   -0.1770 na        1 C2R     -0.223900
     15 C5         -3.4040    0.2600   -0.2960 cc        1 C2R     -0.019000
     16 C4         -4.2580   -0.7770    0.1930 cd        1 C2R      0.219800
     17 N3         -3.4780   -1.8670    0.5850 nd        1 C2R     -0.664000
     18 C2         -2.1940   -1.5190    0.3650 cc        1 C2R      0.358400
     19 N5         -3.7490    1.4900   -0.8770 nh        1 C2R     -0.792200
     20 C6         -5.7550   -0.6660    0.2830 c         1 C2R      0.841100
     21 O7         -6.4680   -1.6850    0.5010 o         1 C2R     -0.862300
     22 O8         -6.2680    0.4910    0.1280 o         1 C2R     -0.862300
     23 H3         -0.4100    3.2630   -0.6620 ho        1 C2R      0.421000
     24 H1          2.5450    2.7640   -0.0010 ho        1 C2R      0.514000
     25 H5'1        2.5360   -0.3930    1.3020 h1        1 C2R      0.004200
     26 H5'2        2.2200   -1.6120   -0.0330 h1        1 C2R      0.004200
     27 H4'         1.7900    0.7040   -1.4600 h1        1 C2R      0.058700
     28 H1'        -1.0790    0.9280   -1.5930 h2        1 C2R      0.051700
     29 H2         -1.3040   -2.1240    0.5550 h5        1 C2R      0.054100
     30 HN51       -3.2070    2.2410   -0.4880 hn        1 C2R      0.390300
     31 HN52       -4.7370    1.6360   -0.7310 hn        1 C2R      0.390300
     32 H2'        -0.8820    1.4930    1.4380 h1        1 C2R      0.071700
     33 H3'         1.4690    1.4840    1.4540 h1        1 C2R      0.085700
@<TRIPOS>BOND
     1    1    2 1   
     2    1    3 1   
     3    1    4 1   
     4    1    5 1   
     5    5   10 1   
     6    6    7 1   
     7    6    8 1   
     8    6   13 1   
     9    6   32 1   
    10    7   23 1   
    11    8    9 1   
    12    8   11 1   
    13    8   33 1   
    14    9   24 1   
    15   10   11 1   
    16   10   25 1   
    17   10   26 1   
    18   11   12 1   
    19   11   27 1   
    20   12   13 1   
    21   13   14 1   
    22   13   28 1   
    23   14   15 1   
    24   14   18 1   
    25   15   16 2   
    26   15   19 1   
    27   16   17 1   
    28   16   20 1   
    29   17   18 2   
    30   18   29 1   
    31   19   30 1   
    32   19   31 1   
    33   20   21 1   
    34   20   22 1   
@<TRIPOS>SUBSTRUCTURE
     1 C2R         1 TEMP              0 ****  ****    0 ROOT
