@<TRIPOS>MOLECULE
C2R
   33    34     1     0     0
SMALL
bcc


@<TRIPOS>ATOM
      1 PA         -0.2760   -0.5770   -1.2390 p5        1 C2R      1.335900
      2 O1A         1.0360   -0.7150   -0.5200 o         1 C2R     -0.934833
      3 O2A        -1.4190   -1.4190   -0.7520 o         1 C2R     -0.934833
      4 O3A        -0.1560   -0.4240   -2.7430 o         1 C2R     -0.934833
      5 O5'        -0.7680    1.0340   -0.8310 os        1 C2R     -0.569200
      6 C2'         0.6330    3.6550   -4.4670 c3        1 C2R      0.101100
      7 O2'        -0.0050    3.8150   -5.7150 oh        1 C2R     -0.611800
      8 C3'         0.2630    2.3550   -3.7170 c3        1 C2R      0.126100
      9 O3'        -0.6700    1.6360   -4.4890 oh        1 C2R     -0.693800
     10 C5'         0.1370    2.0120   -1.1550 c3        1 C2R      0.234400
     11 C4'        -0.3540    2.8150   -2.3820 c3        1 C2R      0.066100
     12 O4'        -0.0250    4.2100   -2.2080 os        1 C2R     -0.441600
     13 C1'         0.2000    4.8090   -3.4980 c3        1 C2R      0.216800
     14 N1          1.1430    5.8940   -3.3890 na        1 C2R     -0.201900
     15 C5          0.8670    7.2780   -3.4930 cc        1 C2R     -0.034000
     16 C4          2.1170    7.9520   -3.3240 cd        1 C2R      0.230800
     17 N3          3.1220    7.0080   -3.1040 nd        1 C2R     -0.661000
     18 C2          2.5190    5.8010   -3.1300 cc        1 C2R      0.357400
     19 N5         -0.3940    7.8290   -3.7960 nv        1 C2R     -0.779200
     20 C6          2.2890    9.4460   -3.3750 c         1 C2R      0.838100
     21 O7          3.4390    9.9640   -3.4000 o         1 C2R     -0.860300
     22 O8          1.2310   10.1580   -3.3970 o         1 C2R     -0.860300
     23 H3         -0.8520    3.3500   -5.6730 ho        1 C2R      0.418000
     24 H1         -0.7530    0.7530   -4.0480 ho        1 C2R      0.515000
     25 H5'1        0.2300    2.7410   -0.2980 h1        1 C2R      0.005700
     26 H5'2        1.1500    1.5700   -1.3690 h1        1 C2R      0.005700
     27 H4'        -1.4750    2.7440   -2.4420 h1        1 C2R      0.054700
     28 H1'        -0.7850    5.2340   -3.8550 h2        1 C2R      0.063700
     29 H2          3.0010    4.8360   -2.9550 h5        1 C2R      0.046100
     30 HN51       -1.0200    7.6850   -3.0240 hn        1 C2R      0.375300
     31 HN52       -0.2630    8.8210   -3.9430 hn        1 C2R      0.375300
     32 H2'         1.7310    3.6930   -4.6920 h1        1 C2R      0.065700
     33 H3'         1.1740    1.7220   -3.5370 h1        1 C2R      0.083700
@<TRIPOS>BOND
     1    1    2 1   
     2    1    3 1   
     3    1    4 1   
     4    1    5 1   
     5    5   10 1   
     6    6    7 1   
     7    6    8 1   
     8    6   13 1   
     9    6   32 1   
    10    7   23 1   
    11    8    9 1   
    12    8   11 1   
    13    8   33 1   
    14    9   24 1   
    15   10   11 1   
    16   10   25 1   
    17   10   26 1   
    18   11   12 1   
    19   11   27 1   
    20   12   13 1   
    21   13   14 1   
    22   13   28 1   
    23   14   15 1   
    24   14   18 1   
    25   15   16 2   
    26   15   19 1   
    27   16   17 1   
    28   16   20 1   
    29   17   18 2   
    30   18   29 1   
    31   19   30 1   
    32   19   31 1   
    33   20   21 1   
    34   20   22 1   
@<TRIPOS>SUBSTRUCTURE
     1 C2R         1 TEMP              0 ****  ****    0 ROOT
