@<TRIPOS>MOLECULE
C2R
   34    35     1     0     0
SMALL
bcc


@<TRIPOS>ATOM
      1 PA         -1.9870   -0.1800    0.6940 p5        1 C2R      1.337900
      2 O1A        -1.2290   -0.2580    1.9800 o         1 C2R     -0.929167
      3 O2A        -3.1000    0.8520    0.6210 o         1 C2R     -0.929167
      4 O3A        -2.2850   -1.4460   -0.0520 o         1 C2R     -0.929167
      5 O5'        -0.8710    0.6130   -0.3920 os        1 C2R     -0.556200
      6 C2'        -3.8810    3.1980   -2.8190 c3        1 C2R      0.090100
      7 O2'        -4.5410    4.4240   -2.5860 oh        1 C2R     -0.649800
      8 C3'        -3.3380    2.4660   -1.5730 c3        1 C2R      0.137100
      9 O3'        -3.5470    3.2790   -0.4420 oh        1 C2R     -0.694800
     10 C5'        -1.3620    0.7980   -1.6530 c3        1 C2R      0.239400
     11 C4'        -1.8330    2.2640   -1.8290 c3        1 C2R      0.068100
     12 O4'        -1.5380    2.7040   -3.1830 os        1 C2R     -0.436600
     13 C1'        -2.6120    3.4830   -3.6870 c3        1 C2R      0.214800
     14 N1         -2.7850    3.2080   -5.1050 na        1 C2R     -0.204900
     15 C5         -3.7220    3.8460   -5.9410 cc        1 C2R     -0.027000
     16 C4         -3.4780    3.3240   -7.2480 cd        1 C2R      0.210800
     17 N3         -2.4370    2.3900   -7.2030 nd        1 C2R     -0.651000
     18 C2         -2.0510    2.3330   -5.9090 cc        1 C2R      0.432400
     19 N5         -4.6910    4.7930   -5.5620 nh        1 C2R     -0.779200
     20 C6         -4.1600    3.7000   -8.4810 c         1 C2R      0.590600
     21 O7         -3.6910    3.7740   -9.6200 o         1 C2R     -0.522000
     22 O8         -5.4900    4.0260   -8.4390 oh        1 C2R     -0.607100
     23 H3         -4.4100    4.6690   -1.6580 ho        1 C2R      0.447000
     24 H1         -3.4500    2.6720    0.3360 ho        1 C2R      0.522000
     25 H5'1       -0.5430    0.6260   -2.4130 h1        1 C2R      0.003700
     26 H5'2       -2.2160    0.0960   -1.8670 h1        1 C2R      0.003700
     27 H4'        -1.2350    2.9300   -1.1500 h1        1 C2R      0.073700
     28 H1'        -2.3290    4.5780   -3.6040 h2        1 C2R      0.052700
     29 H2         -1.2680    1.6890   -5.4840 h5        1 C2R      0.093100
     30 HN51       -4.2590    5.6870   -5.4050 hn        1 C2R      0.383300
     31 HN52       -5.1630    4.5100   -4.7180 hn        1 C2R      0.383300
     32 H3'        -3.8590    1.4770   -1.4300 h1        1 C2R      0.128700
     33 H53        -5.8240    3.9600   -7.5340 ho        1 C2R      0.443000
     34 H2'        -4.6180    2.5470   -3.3620 h1        1 C2R      0.063700
@<TRIPOS>BOND
     1    1    2 1   
     2    1    3 1   
     3    1    4 1   
     4    1    5 1   
     5    5   10 1   
     6    6    7 1   
     7    6    8 1   
     8    6   13 1   
     9    6   34 1   
    10    7   23 1   
    11    8    9 1   
    12    8   11 1   
    13    8   32 1   
    14    9   24 1   
    15   10   11 1   
    16   10   25 1   
    17   10   26 1   
    18   11   12 1   
    19   11   27 1   
    20   12   13 1   
    21   13   14 1   
    22   13   28 1   
    23   14   15 1   
    24   14   18 1   
    25   15   16 2   
    26   15   19 1   
    27   16   17 1   
    28   16   20 1   
    29   17   18 2   
    30   18   29 1   
    31   19   30 1   
    32   19   31 1   
    33   20   21 2   
    34   20   22 1   
    35   22   33 1   
@<TRIPOS>SUBSTRUCTURE
     1 C2R         1 TEMP              0 ****  ****    0 ROOT
