@<TRIPOS>MOLECULE
C2R
   33    30     1     0     0
SMALL
bcc


@<TRIPOS>ATOM
      1 PA          2.2460    4.7150    0.5620 p3        1 C2R      2.518000
      2 O1A         3.0850    4.4090    1.7340 o         1 C2R     -1.256000
      3 O2A         0.9220    5.2910    1.0240 os        1 C2R     -1.239000
      4 O3A         2.9700    5.7440   -0.3330 o         1 C2R     -1.256000
      5 O5'         1.9810    3.3750   -0.2690 os        1 C2R     -0.731000
      6 C2'        -0.5110   -0.3080   -1.6520 c3        1 C2R     -0.009000
      7 O2'         0.1500   -0.7060   -2.9350 oh        1 C2R     -0.304000
      8 C3'        -0.4180    0.9780   -1.4770 c3        1 C2R      0.050000
      9 O3'        -0.3200    1.6620   -2.7820 oh        1 C2R     -0.382000
     10 C5'         0.8530    2.5490    0.1060 c3        1 C2R      0.070000
     11 C4'         0.9220    1.2150   -0.6330 c3        1 C2R     -0.051000
     12 O4'         0.9990    0.2350    0.2220 os        1 C2R     -0.298000
     13 C1'         0.2430   -0.9340   -0.4370 c3        1 C2R      0.126000
     14 N1         -0.6060   -1.4680    0.4120 n3        1 C2R     -0.170000
     15 C5         -0.5450   -2.7270    0.9050 c1        1 C2R     -0.058000
     16 C4         -1.5360   -2.8660    1.8410 c1        1 C2R     -0.176000
     17 N3         -2.2000   -1.6960    1.9180 n2        1 C2R     -0.144000
     18 C2         -1.6240   -0.8240    1.0300 c1        1 C2R     -0.113000
     19 N5          0.4470   -3.6900    0.5960 n2        1 C2R     -0.288000
     20 C6         -1.9050   -4.1520    2.5640 c1        1 C2R      0.395000
     21 O7         -2.7480   -4.9640    2.0360 o         1 C2R     -0.592500
     22 O8         -1.5040   -4.3460    3.7090 o         1 C2R     -0.592500
     23 H2'        -1.4420   -0.5850   -1.6510 h1        1 C2R      0.076000
     24 H3         -0.2950   -1.4210   -3.2990 ho        1 C2R      0.191000
     25 H3'        -1.1800    1.3030   -0.9890 h1        1 C2R      0.118000
     26 H1         -1.0950    2.0780   -2.9600 ho        1 C2R      0.298000
     27 H5'1        0.0530    2.9900   -0.1190 h1        1 C2R      0.047000
     28 H5'2        0.8760    2.3920    1.0510 h1        1 C2R      0.047000
     29 H4'         1.7040    1.2020   -1.2330 h1        1 C2R      0.100000
     30 H1'         0.8680   -1.6010   -0.7430 h2        1 C2R      0.091000
     31 H2         -1.9050    0.1190    0.8690 DU        1 C2R      0.197000
     32 HN51        0.3520   -4.5110    0.8630 hn        1 C2R      0.168000
     33 HN52        1.1640   -3.4580    0.0680 hn        1 C2R      0.168000
@<TRIPOS>BOND
     1    1    2 1   
     2    1    4 1   
     3    1    5 1   
     4    5   10 1   
     5    6    7 1   
     6    6    8 1   
     7    6   13 1   
     8    6   23 1   
     9    7   24 1   
    10    8    9 1   
    11    8   11 1   
    12    8   25 1   
    13    9   26 1   
    14   10   11 1   
    15   10   27 1   
    16   10   28 1   
    17   11   12 1   
    18   11   29 1   
    19   12   13 1   
    20   13   14 1   
    21   13   30 1   
    22   14   15 1   
    23   14   18 1   
    24   15   16 1   
    25   16   17 1   
    26   17   18 1   
    27   19   32 1   
    28   19   33 1   
    29   20   21 1   
    30   20   22 1   
@<TRIPOS>SUBSTRUCTURE
     1 C2R         1 TEMP              0 ****  ****    0 ROOT
