@<TRIPOS>MOLECULE
C2R
   33    34     1     0     0
SMALL
bcc


@<TRIPOS>ATOM
      1 PA         -0.3510   -0.5100   -1.0500 p5        1 C2R      1.335900
      2 O1A         0.9520   -0.6270   -0.3130 o         1 C2R     -0.934833
      3 O2A        -1.5020   -1.3310   -0.5460 o         1 C2R     -0.934833
      4 O3A        -0.2160   -0.4110   -2.5570 o         1 C2R     -0.934833
      5 O5'        -0.8430    1.1160   -0.7040 os        1 C2R     -0.569200
      6 C2'         0.6030    3.6030   -4.4150 c3        1 C2R      0.101100
      7 O2'        -0.0220    3.7200   -5.6750 oh        1 C2R     -0.611800
      8 C3'         0.2220    2.3310   -3.6230 c3        1 C2R      0.126100
      9 O3'        -0.7060    1.5890   -4.3800 oh        1 C2R     -0.693800
     10 C5'         0.0690    2.0790   -1.0530 c3        1 C2R      0.234400
     11 C4'        -0.4080    2.8400   -2.3120 c3        1 C2R      0.066100
     12 O4'        -0.0760    4.2390   -2.1840 os        1 C2R     -0.441600
     13 C1'         0.1650    4.7920   -3.4920 c3        1 C2R      0.216800
     14 N1          1.1090    5.8770   -3.4120 na        1 C2R     -0.201900
     15 C5          0.8400    7.2580   -3.5690 cc        1 C2R     -0.034000
     16 C4          2.0900    7.9330   -3.4100 cd        1 C2R      0.230800
     17 N3          3.0890    6.9950   -3.1460 nd        1 C2R     -0.661000
     18 C2          2.4830    5.7900   -3.1350 cc        1 C2R      0.357400
     19 N5         -0.4160    7.8010   -3.9040 nh        1 C2R     -0.779200
     20 C6          2.2670    9.4240   -3.5120 c         1 C2R      0.838100
     21 O7          3.4190    9.9380   -3.5440 o         1 C2R     -0.860300
     22 O8          1.2120   10.1380   -3.5710 o         1 C2R     -0.860300
     23 H3         -0.8700    3.2600   -5.6250 ho        1 C2R      0.418000
     24 H1         -0.7960    0.7210   -3.9090 ho        1 C2R      0.515000
     25 H5'1        1.0830    1.6270   -1.2410 h1        1 C2R      0.005700
     26 H5'2        0.1550    2.8380   -0.2210 h1        1 C2R      0.005700
     27 H4'        -1.5280    2.7700   -2.3810 h1        1 C2R      0.054700
     28 H1'        -0.8150    5.2070   -3.8740 h2        1 C2R      0.063700
     29 H2          2.9590    4.8300   -2.9200 h5        1 C2R      0.046100
     30 HN51       -0.2800    8.7860   -4.0850 hn        1 C2R      0.375300
     31 HN52       -1.0510    7.6860   -3.1340 hn        1 C2R      0.375300
     32 H2'         1.7040    3.6300   -4.6310 h1        1 C2R      0.065700
     33 H3'         1.1280    1.7030   -3.4120 h1        1 C2R      0.083700
@<TRIPOS>BOND
     1    1    2 1   
     2    1    3 1   
     3    1    4 1   
     4    1    5 1   
     5    5   10 1   
     6    6    7 1   
     7    6    8 1   
     8    6   13 1   
     9    6   32 1   
    10    7   23 1   
    11    8    9 1   
    12    8   11 1   
    13    8   33 1   
    14    9   24 1   
    15   10   11 1   
    16   10   25 1   
    17   10   26 1   
    18   11   12 1   
    19   11   27 1   
    20   12   13 1   
    21   13   14 1   
    22   13   28 1   
    23   14   15 1   
    24   14   18 1   
    25   15   16 2   
    26   15   19 1   
    27   16   17 1   
    28   16   20 1   
    29   17   18 2   
    30   18   29 1   
    31   19   30 1   
    32   19   31 1   
    33   20   21 1   
    34   20   22 1   
@<TRIPOS>SUBSTRUCTURE
     1 C2R         1 TEMP              0 ****  ****    0 ROOT
