@<TRIPOS>MOLECULE
C2S
   34    35     1     0     0
SMALL
bcc


@<TRIPOS>ATOM
      1 OP3        -3.5380   -1.6050    5.1830 oh        1 C2S     -0.674400
      2 P          -3.7660   -1.5280    3.6180 p5        1 C2S      0.992200
      3 S1P        -3.3540   -2.9530    2.4940 s         1 C2S     -0.530000
      4 S2P        -5.8030   -1.1100    3.3110 sh        1 C2S     -0.477200
      5 O5'        -2.9830   -0.1500    3.4410 os        1 C2S     -0.536200
      6 C5'        -2.2350    0.1020    2.2600 c3        1 C2S      0.141400
      7 C4'        -0.7740    0.3290    2.6440 c3        1 C2S      0.114100
      8 O4'        -0.1310   -0.9330    2.8590 os        1 C2S     -0.433600
      9 C3'        -0.0030    1.0840    1.5440 c3        1 C2S      0.122100
     10 O3'         0.2140    2.3990    2.0220 oh        1 C2S     -0.591800
     11 C2'         1.2920    0.2940    1.3590 c3        1 C2S     -0.147400
     12 C1'         1.0450   -1.0730    2.0350 c3        1 C2S      0.322500
     13 N1          0.9160   -2.1860    1.1010 n         1 C2S     -0.415000
     14 C2          2.0670   -2.4970    0.2730 c         1 C2S      0.835900
     15 O2          3.0600   -1.7460    0.3840 o         1 C2S     -0.644500
     16 N3          2.0370   -3.5860   -0.5990 nc        1 C2S     -0.731100
     17 C4          0.9260   -4.3490   -0.6500 cd        1 C2S      0.755500
     18 N4          0.8540   -5.3890   -1.5500 nh        1 C2S     -0.917800
     19 C5         -0.2290   -4.0850    0.2030 cd        1 C2S     -0.424600
     20 C6         -0.1790   -3.0100    1.0530 cc        1 C2S      0.067600
     21 HOP3       -3.1420   -0.8380    5.6100 ho        1 C2S      0.511000
     22 HOP2       -6.1410   -2.1480    2.5110 hs        1 C2S      0.375800
     23 H5'        -2.3440   -0.7710    1.5560 h1        1 C2S      0.089200
     24 H5''       -2.6500    1.0490    1.8110 h1        1 C2S      0.089200
     25 H4'        -0.7180    0.8850    3.6220 h1        1 C2S      0.104700
     26 H3'        -0.5920    1.1290    0.5870 h1        1 C2S      0.053700
     27 HO3'        0.8390    2.8180    1.4160 ho        1 C2S      0.418000
     28 H2'1        1.5690    0.1910    0.2810 hc        1 C2S      0.092700
     29 H1'         1.8830   -1.3300    2.7520 h2        1 C2S      0.099700
     30 H41         0.1220   -6.0450   -1.4410 hn        1 C2S      0.437800
     31 H42         1.6590   -5.6570   -2.0630 hn        1 C2S      0.437800
     32 H5         -1.1190   -4.7250    0.1720 ha        1 C2S      0.167000
     33 H6         -1.0370   -2.7880    1.7310 h4        1 C2S      0.203000
     34 H2'2        2.1430    0.8020    1.8800 hc        1 C2S      0.092700
@<TRIPOS>BOND
     1    1    2 1   
     2    1   21 1   
     3    2    3 2   
     4    2    4 1   
     5    2    5 1   
     6    4   22 1   
     7    5    6 1   
     8    6    7 1   
     9    6   23 1   
    10    6   24 1   
    11    7    8 1   
    12    7    9 1   
    13    7   25 1   
    14    8   12 1   
    15    9   10 1   
    16    9   11 1   
    17    9   26 1   
    18   10   27 1   
    19   11   12 1   
    20   11   28 1   
    21   11   34 1   
    22   12   13 1   
    23   12   29 1   
    24   13   14 1   
    25   13   20 1   
    26   14   15 2   
    27   14   16 1   
    28   16   17 2   
    29   17   18 1   
    30   17   19 1   
    31   18   30 1   
    32   18   31 1   
    33   19   20 2   
    34   19   32 1   
    35   20   33 1   
@<TRIPOS>SUBSTRUCTURE
     1 C2S         1 TEMP              0 ****  ****    0 ROOT
