@<TRIPOS>MOLECULE
C2S
   34    34     1     0     0
SMALL
bcc


@<TRIPOS>ATOM
      1 OP3        -3.1750    3.2880   -0.2670 oh        1 C2S     -0.706000
      2 P          -1.6150    3.2330   -0.0240 p5        1 C2S      2.386000
      3 S1P        -1.2610    3.1240    1.8780 s         1 C2S     -1.097000
      4 S2P        -0.7360    4.9450   -0.7920 sh        1 C2S     -0.683000
      5 O5'        -1.0130    1.9620   -0.7460 os        1 C2S     -0.707000
      6 C5'        -1.0650    0.7240   -0.0780 c3        1 C2S     -0.006000
      7 C4'        -1.6730   -0.3180   -0.9940 c3        1 C2S     -0.026000
      8 O4'        -0.5220   -1.0050   -1.8920 os        1 C2S     -0.271000
      9 C3'        -2.2030   -1.2640   -0.2970 c3        1 C2S      0.021000
     10 O3'        -3.3660   -1.8410   -1.0160 oh        1 C2S     -0.333000
     11 C2'        -1.0730   -2.3370   -0.1450 c3        1 C2S     -0.182000
     12 C1'         0.0280   -1.9180   -1.1410 c3        1 C2S      0.156000
     13 N1          1.1590   -1.3710   -0.4360 n         1 C2S     -0.291000
     14 C2          1.7940   -0.1440   -0.9130 c2        1 C2S      0.363000
     15 O2          1.2950    0.4810   -1.8270 o         1 C2S     -0.373000
     16 N3          3.0260    0.3330   -0.2890 n2        1 C2S     -0.299000
     17 C4          3.5250   -0.3060    0.8760 c1        1 C2S      0.235000
     18 N4          4.7260    0.1490    1.4740 n2        1 C2S     -0.361000
     19 C5          2.8450   -1.4960    1.4050 c2        1 C2S     -0.338000
     20 C6          1.6490   -2.0170    0.7270 c2        1 C2S      0.069000
     21 HOP3       -3.4710    4.1090   -0.1050 ho        1 C2S      0.307000
     22 HOP2       -1.1460    5.8890   -0.2170 hs        1 C2S      0.210000
     23 H5'        -1.6150    0.8110    0.7280 h1        1 C2S      0.135500
     24 H5''       -0.1600    0.4500    0.1730 h1        1 C2S      0.135500
     25 H4'        -2.3480    0.0930   -1.5700 h1        1 C2S      0.131000
     26 H3'        -2.4760   -0.9290    0.5810 h1        1 C2S      0.126000
     27 HO3'       -3.8880   -2.2700   -0.4390 ho        1 C2S      0.242000
     28 H2'1       -0.7230   -2.3320    0.7670 hc        1 C2S      0.125000
     29 H1'         0.3040   -2.6840   -1.6840 h2        1 C2S      0.118000
     30 H41         5.0170   -0.2240    2.2570 hn        1 C2S      0.238000
     31 H42         5.1920    0.8370    1.0960 hn        1 C2S      0.238000
     32 H5          3.1860   -1.9390    2.2070 ha        1 C2S      0.156000
     33 H6          1.1950   -2.8070    1.0760 h4        1 C2S      0.157000
     34 H2'2       -1.4160   -3.2250   -0.3720 hc        1 C2S      0.125000
@<TRIPOS>BOND
     1    1    2 1   
     2    1   21 1   
     3    2    3 1   
     4    2    4 1   
     5    2    5 1   
     6    4   22 1   
     7    5    6 1   
     8    6    7 1   
     9    6   23 1   
    10    6   24 1   
    11    7    8 1   
    12    7    9 1   
    13    7   25 1   
    14    8   12 1   
    15    9   10 1   
    16    9   11 1   
    17    9   26 1   
    18   10   27 1   
    19   11   12 1   
    20   11   28 1   
    21   11   34 1   
    22   12   13 1   
    23   12   29 1   
    24   13   14 1   
    25   13   20 1   
    26   14   15 1   
    27   14   16 1   
    28   16   17 1   
    29   17   19 1   
    30   18   30 1   
    31   18   31 1   
    32   19   20 1   
    33   19   32 1   
    34   20   33 1   
@<TRIPOS>SUBSTRUCTURE
     1 C2S         1 TEMP              0 ****  ****    0 ROOT
