@<TRIPOS>MOLECULE
C2T
   27    26     1     0     0
SMALL
bcc


@<TRIPOS>ATOM
      1 C1         -1.5830   -0.4870    0.1240 c         1 C2T      0.886600
      2 N1         -2.8020   -0.1720    2.6150 n3        1 C2T     -0.585000
      3 O1         -1.4720   -1.6620    0.5910 o         1 C2T     -0.833800
      4 C2         -1.0330    0.6710    0.9640 c3        1 C2T     -0.241400
      5 N2         -4.1110   -0.2430    1.9950 n4        1 C2T     -0.383600
      6 O2         -2.2430   -0.2210   -0.9200 o         1 C2T     -0.833800
      7 C3         -1.8820    0.8960    2.2130 c3        1 C2T      0.141800
      8 C4         -4.4080    0.8450    1.0000 c3        1 C2T      0.061600
      9 C5         -4.3510   -1.5620    1.2930 c3        1 C2T      0.061600
     10 C6         -5.1180   -0.1290    3.1410 c3        1 C2T      0.138800
     11 C10        -6.5670   -0.0090    2.7220 c3        1 C2T     -0.126100
     12 H21C        0.0160    0.4240    1.2620 hc        1 C2T      0.063200
     13 H22C       -1.0160    1.6040    0.3480 hc        1 C2T      0.063200
     14 HA         -2.3290   -1.0640    2.4130 hn        1 C2T      0.441800
     15 H31C       -2.4220    1.8800    2.1410 h1        1 C2T      0.066200
     16 H32C       -1.2050    0.9550    3.1180 h1        1 C2T      0.066200
     17 H41C       -3.6070    0.8640    0.1970 hx        1 C2T      0.108200
     18 H42C       -4.4650    1.8320    1.5240 hx        1 C2T      0.108200
     19 H43C       -5.3910    0.6230    0.5090 hx        1 C2T      0.108200
     20 H51C       -4.1810   -2.4050    2.0110 hx        1 C2T      0.108200
     21 H52C       -5.4040   -1.5850    0.9170 hx        1 C2T      0.108200
     22 H53C       -3.6330   -1.6640    0.4200 hx        1 C2T      0.108200
     23 H61C       -4.8410    0.7790    3.7500 hx        1 C2T      0.088700
     24 H62C       -4.9870   -1.0430    3.7870 hx        1 C2T      0.088700
     25 H101       -6.7640    0.9430    2.1720 hc        1 C2T      0.061700
     26 H102       -7.1860   -0.0050    3.6550 hc        1 C2T      0.061700
     27 H103       -6.9030   -0.8660    2.0900 hc        1 C2T      0.061700
@<TRIPOS>BOND
     1    1    3 1   
     2    1    4 1   
     3    1    6 1   
     4    2    5 1   
     5    2    7 1   
     6    2   14 1   
     7    4    7 1   
     8    4   12 1   
     9    4   13 1   
    10    5    8 1   
    11    5    9 1   
    12    5   10 1   
    13    7   15 1   
    14    7   16 1   
    15    8   17 1   
    16    8   18 1   
    17    8   19 1   
    18    9   20 1   
    19    9   21 1   
    20    9   22 1   
    21   10   11 1   
    22   10   23 1   
    23   10   24 1   
    24   11   25 1   
    25   11   26 1   
    26   11   27 1   
@<TRIPOS>SUBSTRUCTURE
     1 C2T         1 TEMP              0 ****  ****    0 ROOT
