@<TRIPOS>MOLECULE
C2U
   15    15     1     0     0
SMALL
bcc


@<TRIPOS>ATOM
      1 O7B         0.1480    0.1710   -0.0260 o         1 C2U     -0.822300
      2 C7          1.4060    0.1720    0.0240 c         1 C2U      0.920200
      3 O7A         2.0640    0.2330    1.1080 o         1 C2U     -0.822300
      4 C6          2.1740    0.0940   -1.2860 ca        1 C2U     -0.209600
      5 C1          1.4400    0.0270   -2.4680 ca        1 C2U     -0.056000
      6 C5          3.5870    0.0870   -1.3460 ca        1 C2U      0.199100
      7 O5          4.3880    0.1490   -0.2460 oh        1 C2U     -0.532100
      8 C4          4.2290    0.0130   -2.6040 ca        1 C2U     -0.052600
      9 CL4         5.9320    0.0010   -2.7450 cl        1 C2U     -0.126400
     10 C3          3.4800   -0.0530   -3.7800 ca        1 C2U     -0.105000
     11 C2          2.0890   -0.0450   -3.7040 ca        1 C2U     -0.044600
     12 CL2         1.1730   -0.1270   -5.1460 cl        1 C2U     -0.147400
     13 H1          0.3380    0.0340   -2.3950 ha        1 C2U      0.173000
     14 HO5         3.8270    0.1970    0.5620 ho        1 C2U      0.490000
     15 H3          3.9880   -0.1110   -4.7540 ha        1 C2U      0.136000
@<TRIPOS>BOND
     1    1    2 1   
     2    2    3 1   
     3    2    4 1   
     4    4    5 ar  
     5    4    6 ar  
     6    5   11 ar  
     7    5   13 1   
     8    6    7 1   
     9    6    8 ar  
    10    7   14 1   
    11    8    9 1   
    12    8   10 ar  
    13   10   11 ar  
    14   10   15 1   
    15   11   12 1   
@<TRIPOS>SUBSTRUCTURE
     1 C2U         1 TEMP              0 ****  ****    0 ROOT
