@<TRIPOS>MOLECULE
C2U
   15    15     1     0     0
SMALL
bcc


@<TRIPOS>ATOM
      1 O7B         2.3770    2.4340    0.0890 o         1 C2U     -0.822300
      2 C7          2.3070    1.1770    0.1150 c         1 C2U      0.920200
      3 O7A         3.3240    0.4190    0.1760 o         1 C2U     -0.822300
      4 C6          0.9270    0.5360    0.0730 ca        1 C2U     -0.209600
      5 C1         -0.1800    1.3790    0.0060 ca        1 C2U     -0.056000
      6 C5          0.7330   -0.8640    0.0980 ca        1 C2U      0.199100
      7 O5          1.7530   -1.7660    0.1620 oh        1 C2U     -0.532100
      8 C4         -0.5810   -1.3840    0.0550 ca        1 C2U     -0.052600
      9 CL4        -0.8840   -3.0660    0.0820 cl        1 C2U     -0.126400
     10 C3         -1.6810   -0.5280   -0.0120 ca        1 C2U     -0.105000
     11 C2         -1.4720    0.8490   -0.0350 ca        1 C2U     -0.044600
     12 CL2        -2.8220    1.8970   -0.1170 cl        1 C2U     -0.147400
     13 H1         -0.0020    2.4690   -0.0120 ha        1 C2U      0.173000
     14 HO5         2.6110   -1.2840    0.1860 ho        1 C2U      0.490000
     15 H3         -2.7000   -0.9410   -0.0440 ha        1 C2U      0.136000
@<TRIPOS>BOND
     1    1    2 1   
     2    2    3 1   
     3    2    4 1   
     4    4    5 ar  
     5    4    6 ar  
     6    5   11 ar  
     7    5   13 1   
     8    6    7 1   
     9    6    8 ar  
    10    7   14 1   
    11    8    9 1   
    12    8   10 ar  
    13   10   11 ar  
    14   10   15 1   
    15   11   12 1   
@<TRIPOS>SUBSTRUCTURE
     1 C2U         1 TEMP              0 ****  ****    0 ROOT
