@<TRIPOS>MOLECULE
C2U
   15    13     1     0     0
SMALL
bcc


@<TRIPOS>ATOM
      1 O7B        -2.4100    0.2190    2.0440 o         1 C2U     -0.557000
      2 C7         -1.1510    0.2190    2.0440 c2        1 C2U      0.369000
      3 O7A        -0.5220    0.2190    3.1350 o         1 C2U     -0.557000
      4 C6         -0.3950    0.2190    0.7340 c2        1 C2U     -0.189000
      5 C1         -0.1770    1.4110    0.0600 c2        1 C2U     -0.056000
      6 C5          0.0800   -0.9720    0.2080 c1        1 C2U      0.154000
      7 O5         -0.1320   -2.1800    0.8970 o         1 C2U     -0.286000
      8 C4          0.7730   -0.9710   -0.9930 c2        1 C2U     -0.131000
      9 CL4         1.3570   -2.4710   -1.6620 cl        1 C2U     -0.048000
     10 C3          0.9910    0.2200   -1.6670 c1        1 C2U     -0.105000
     11 C2          0.5160    1.4110   -1.1410 c1        1 C2U     -0.123000
     12 CL2         0.7690    2.9060   -2.0010 cl        1 C2U     -0.069000
     13 H1         -0.5110    2.2500    0.4300 ha        1 C2U      0.173000
     14 HO5        -0.6710   -2.7010    0.4220 ho        1 C2U      0.289000
     15 H3          1.4810    0.2200   -2.5110 ha        1 C2U      0.136000
@<TRIPOS>BOND
     1    1    2 1   
     2    2    3 1   
     3    2    4 1   
     4    4    5 1   
     5    4    6 1   
     6    5   11 1   
     7    5   13 1   
     8    6    8 1   
     9    7   14 1   
    10    8    9 1   
    11    8   10 1   
    12   10   15 1   
    13   11   12 1   
@<TRIPOS>SUBSTRUCTURE
     1 C2U         1 TEMP              0 ****  ****    0 ROOT
