@<TRIPOS>MOLECULE
C31
   44    43     1     0     0
SMALL
bcc


@<TRIPOS>ATOM
      1 P           4.4300    3.7410    2.3520 p3        1 C31      2.534000
      2 O1P         5.8930    3.4950    2.6620 os        1 C31     -1.217000
      3 O2P         3.6900    4.0540    3.6330 o         1 C31     -1.258000
      4 O3P         4.3080    4.9050    1.4040 o         1 C31     -1.258000
      5 O5'         3.8000    2.4340    1.6760 os        1 C31     -0.732000
      6 C5'         2.5170    2.5300    1.0900 c3        1 C31      0.072000
      7 C4'         2.2430    1.2640    0.2320 c3        1 C31     -0.045000
      8 O4'         2.0440    0.2440    0.9930 os        1 C31     -0.289000
      9 C3'         0.9330    1.4320   -0.5660 c3        1 C31     -0.028000
     10 O3'         1.2010    1.5670   -1.8820 oh        1 C31     -0.387000
     11 C2'         0.1300    0.1430   -0.3150 c3        1 C31     -0.005000
     12 O2'        -0.3520   -0.4310   -1.6190 os        1 C31     -0.282000
     13 C1'         0.9650   -0.6670    0.2440 c3        1 C31      0.143000
     14 N1          0.2890   -1.4900    1.1840 n         1 C31     -0.265000
     15 C2          0.2820   -2.9340    1.0120 c2        1 C31      0.341000
     16 O2          0.6780   -3.4250   -0.0340 o         1 C31     -0.405000
     17 N3         -0.2440   -3.8030    2.0800 n2        1 C31     -0.334000
     18 C4         -0.8390   -3.2350    3.2230 c1        1 C31      0.178000
     19 N4         -1.3800   -4.0740    4.2390 n2        1 C31     -0.333000
     20 C5         -0.8790   -1.7740    3.3790 c2        1 C31     -0.369000
     21 C6         -0.3090   -0.9100    2.3310 c2        1 C31      0.080000
     22 CA'        -1.6380    0.0480   -2.0280 c3        1 C31      0.005000
     23 CB'        -2.1050   -0.7280   -3.3240 c3        1 C31     -0.219000
     24 CC         -3.3490   -0.0510   -3.9000 c3        1 C31     -0.091000
     25 ND'        -4.0010   -0.9430   -4.8330 n3        1 C31     -0.341000
     26 H5'1        2.4770    3.3170    0.5270 h1        1 C31      0.037500
     27 H5'2        1.8300    2.5990    1.8060 h1        1 C31      0.037500
     28 H4'         2.9900    1.0950   -0.3740 h1        1 C31      0.089000
     29 H3'         0.4370    2.2080   -0.2410 h1        1 C31      0.190000
     30 HA          1.3320    2.4370   -2.0730 ho        1 C31      0.289000
     31 H2'        -0.6240    0.3220    0.2810 h1        1 C31      0.090000
     32 H1'         1.4070   -1.2250   -0.4420 h2        1 C31      0.155000
     33 H4N1       -1.4210   -4.9780    4.1110 hn        1 C31      0.184500
     34 H4N2       -1.7250   -3.6990    5.0170 hn        1 C31      0.184500
     35 H5         -1.2880   -1.3800    4.1650 ha        1 C31      0.170000
     36 H6         -0.2920    0.0520    2.4520 h4        1 C31      0.300000
     37 HA'1       -2.2880   -0.1000   -1.3070 h1        1 C31      0.074500
     38 HA'2       -1.5820    1.0120   -2.2260 h1        1 C31      0.074500
     39 HB'1       -2.3160   -1.6560   -3.0910 hc        1 C31      0.102500
     40 HB'2       -1.3870   -0.7140   -3.9890 hc        1 C31      0.102500
     41 HCC1       -3.0890    0.7670   -4.3600 h1        1 C31      0.081500
     42 HCC2       -3.9680    0.1680   -3.1700 h1        1 C31      0.081500
     43 HD'1       -4.9140   -0.9870   -4.6360 hn        1 C31      0.131000
     44 HD'2       -3.8880   -0.6300   -5.6830 hn        1 C31      0.131000
@<TRIPOS>BOND
     1    1    3 1   
     2    1    4 1   
     3    1    5 1   
     4    5    6 1   
     5    6    7 1   
     6    6   26 1   
     7    6   27 1   
     8    7    8 1   
     9    7    9 1   
    10    7   28 1   
    11    8   13 1   
    12    9   10 1   
    13    9   11 1   
    14    9   29 1   
    15   10   30 1   
    16   11   12 1   
    17   11   13 1   
    18   11   31 1   
    19   12   22 1   
    20   13   14 1   
    21   13   32 1   
    22   14   15 1   
    23   14   21 1   
    24   15   16 1   
    25   15   17 1   
    26   17   18 1   
    27   18   20 1   
    28   19   33 1   
    29   19   34 1   
    30   20   21 1   
    31   20   35 1   
    32   21   36 1   
    33   22   23 1   
    34   22   37 1   
    35   22   38 1   
    36   23   24 1   
    37   23   39 1   
    38   23   40 1   
    39   24   25 1   
    40   24   41 1   
    41   24   42 1   
    42   25   43 1   
    43   25   44 1   
@<TRIPOS>SUBSTRUCTURE
     1 C31         1 TEMP              0 ****  ****    0 ROOT
