@<TRIPOS>MOLECULE
C31
   44    45     1     0     0
SMALL
bcc


@<TRIPOS>ATOM
      1 P          -0.6010    0.1480   -2.7940 p5        1 C31      1.341900
      2 O1P        -0.5470   -0.0430   -4.2740 o         1 C31     -0.923833
      3 O2P         0.7010    0.4440   -2.0730 o         1 C31     -0.923833
      4 O3P        -1.7490    0.9080   -2.1720 o         1 C31     -0.923833
      5 O5'        -0.9970   -1.4070   -2.1390 os        1 C31     -0.571200
      6 C5'        -0.1930   -1.9250   -1.1640 c3        1 C31      0.223400
      7 C4'        -0.7140   -1.6290    0.2640 c3        1 C31      0.066100
      8 O4'         0.3040   -2.0230    1.2150 os        1 C31     -0.432600
      9 C3'        -1.0290   -0.1410    0.5180 c3        1 C31      0.085100
     10 O3'        -2.4090    0.1190    0.4760 oh        1 C31     -0.661800
     11 C2'        -0.3960    0.1850    1.8790 c3        1 C31      0.105100
     12 O2'        -1.2370    0.0370    3.0220 os        1 C31     -0.425600
     13 C1'         0.6890   -0.9290    2.0440 c3        1 C31      0.292500
     14 N1          2.0390   -0.4590    1.7110 n         1 C31     -0.372000
     15 C2          3.0780   -0.5440    2.7050 c         1 C31      0.821900
     16 O2          2.7900   -0.9740    3.8490 o         1 C31     -0.681500
     17 N3          4.3840   -0.1240    2.4140 nc        1 C31     -0.764100
     18 C4          4.6530    0.3130    1.1680 cd        1 C31      0.707500
     19 N4          5.9730    0.6520    0.8270 nh        1 C31     -0.897800
     20 C5          3.6370    0.4080    0.1490 cd        1 C31     -0.458600
     21 C6          2.3510    0.0060    0.4600 cc        1 C31      0.085600
     22 CA'        -2.2780    1.0030    3.1110 c3        1 C31      0.155400
     23 CB'        -3.6000    0.2640    3.2350 c3        1 C31     -0.141400
     24 CC         -4.7230    1.2360    3.5840 c3        1 C31      0.145800
     25 ND'        -6.0580    0.6830    3.5980 n3        1 C31     -0.908800
     26 H5'1        0.8640   -1.5450   -1.2540 h1        1 C31     -0.001300
     27 H5'2       -0.1740   -3.0510   -1.2650 h1        1 C31     -0.001300
     28 H4'        -1.6090   -2.2640    0.4960 h1        1 C31      0.046700
     29 H3'        -0.5120    0.4770   -0.2950 h1        1 C31      0.147700
     30 HA         -2.5850    0.3690   -0.4650 ho        1 C31      0.494000
     31 H2'         0.0350    1.2200    1.8790 h1        1 C31      0.048700
     32 H1'         0.7120   -1.3310    3.1010 h2        1 C31      0.114700
     33 H4N1        6.5880    0.8390    1.5860 hn        1 C31      0.390800
     34 H4N2        6.0300    1.3100    0.0840 hn        1 C31      0.390800
     35 H5          3.8520    0.7650   -0.8640 ha        1 C31      0.170000
     36 H6          1.5400    0.0790   -0.3380 h4        1 C31      0.302000
     37 HA'1       -2.2960    1.6810    2.2190 h1        1 C31      0.034700
     38 HA'2       -2.0690    1.6020    4.0400 h1        1 C31      0.034700
     39 HB'1       -3.5130   -0.5290    4.0210 hc        1 C31      0.064200
     40 HB'2       -3.8010   -0.2470    2.2540 hc        1 C31      0.064200
     41 HCC1       -4.7080    2.0880    2.8460 h1        1 C31      0.041700
     42 HCC2       -4.5270    1.6690    4.6060 h1        1 C31      0.041700
     43 HD'1       -6.3320    0.4300    2.6670 hn        1 C31      0.335800
     44 HD'2       -6.0770   -0.1500    4.1570 hn        1 C31      0.335800
@<TRIPOS>BOND
     1    1    2 1   
     2    1    3 1   
     3    1    4 1   
     4    1    5 1   
     5    5    6 1   
     6    6    7 1   
     7    6   26 1   
     8    6   27 1   
     9    7    8 1   
    10    7    9 1   
    11    7   28 1   
    12    8   13 1   
    13    9   10 1   
    14    9   11 1   
    15    9   29 1   
    16   10   30 1   
    17   11   12 1   
    18   11   13 1   
    19   11   31 1   
    20   12   22 1   
    21   13   14 1   
    22   13   32 1   
    23   14   15 1   
    24   14   21 1   
    25   15   16 2   
    26   15   17 1   
    27   17   18 2   
    28   18   19 1   
    29   18   20 1   
    30   19   33 1   
    31   19   34 1   
    32   20   21 2   
    33   20   35 1   
    34   21   36 1   
    35   22   23 1   
    36   22   37 1   
    37   22   38 1   
    38   23   24 1   
    39   23   39 1   
    40   23   40 1   
    41   24   25 1   
    42   24   41 1   
    43   24   42 1   
    44   25   43 1   
    45   25   44 1   
@<TRIPOS>SUBSTRUCTURE
     1 C31         1 TEMP              0 ****  ****    0 ROOT
