@<TRIPOS>MOLECULE
C32
   32    33     1     0     0
SMALL
bcc


@<TRIPOS>ATOM
      1 O3P         1.2440   -1.1960   -5.7850 o         1 C32     -0.929500
      2 P           0.9460   -0.4210   -4.5400 p5        1 C32      1.329900
      3 O1P         2.0750    0.2910   -3.8540 o         1 C32     -0.929500
      4 O2P        -0.3730    0.3240   -4.4900 o         1 C32     -0.929500
      5 O5'         0.5600   -1.6590   -3.3660 os        1 C32     -0.551200
      6 C5'         0.3230   -1.1670   -2.1140 c3        1 C32      0.227400
      7 C4'        -1.1940   -1.1580   -1.8080 c3        1 C32      0.049100
      8 O4'        -1.4090   -1.4610   -0.4010 os        1 C32     -0.441600
      9 C3'        -1.8880    0.1850   -2.1100 c3        1 C32      0.155100
     10 O3'        -2.7850    0.0650   -3.1900 oh        1 C32     -0.669800
     11 C2'        -2.6890    0.5200   -0.8430 c3        1 C32     -0.128400
     12 C1'        -2.1490   -0.4350    0.2390 c3        1 C32      0.293500
     13 N1         -1.2980    0.2330    1.2540 n         1 C32     -0.361000
     14 C2         -1.8880    0.6670    2.4950 c         1 C32      0.826900
     15 O2         -3.1090    0.4660    2.6830 o         1 C32     -0.651500
     16 N3         -1.1030    1.3120    3.4610 nc        1 C32     -0.752100
     17 C4          0.2140    1.4700    3.2330 cd        1 C32      0.750500
     18 N4          1.0040    2.0350    4.2340 nh        1 C32     -0.905800
     19 C5          0.8410    1.0250    2.0010 cd        1 C32     -0.392900
     20 C6          0.0310    0.4160    1.0480 cc        1 C32      0.139600
     21 BR          2.6550    1.2400    1.6700 br        1 C32     -0.055700
     22 H5'1        0.7410   -0.1240   -2.0050 h1        1 C32     -0.004800
     23 H5'2        0.8070   -1.8370   -1.3410 h1        1 C32     -0.004800
     24 H4'        -1.6930   -1.9930   -2.3690 h1        1 C32      0.079700
     25 H3'        -1.1270    0.9820   -2.3410 h1        1 C32      0.101700
     26 HA         -2.2200    0.0840   -3.9980 ho        1 C32      0.501000
     27 H2'1       -3.7750    0.3070   -1.0030 hc        1 C32      0.055200
     28 H2'2       -2.5810    1.5940   -0.5700 hc        1 C32      0.055200
     29 H1'        -2.9760   -0.9400    0.8200 h2        1 C32      0.086700
     30 H4N1        0.5320    2.5210    4.9610 hn        1 C32      0.411300
     31 H4N2        1.8550    2.4450    3.9240 hn        1 C32      0.411300
     32 H6          0.4410    0.0490    0.0720 h4        1 C32      0.234000
@<TRIPOS>BOND
     1    1    2 1   
     2    2    3 1   
     3    2    4 1   
     4    2    5 1   
     5    5    6 1   
     6    6    7 1   
     7    6   22 1   
     8    6   23 1   
     9    7    8 1   
    10    7    9 1   
    11    7   24 1   
    12    8   12 1   
    13    9   10 1   
    14    9   11 1   
    15    9   25 1   
    16   10   26 1   
    17   11   12 1   
    18   11   27 1   
    19   11   28 1   
    20   12   13 1   
    21   12   29 1   
    22   13   14 1   
    23   13   20 1   
    24   14   15 2   
    25   14   16 1   
    26   16   17 2   
    27   17   18 1   
    28   17   19 1   
    29   18   30 1   
    30   18   31 1   
    31   19   20 2   
    32   19   21 1   
    33   20   32 1   
@<TRIPOS>SUBSTRUCTURE
     1 C32         1 TEMP              0 ****  ****    0 ROOT
