@<TRIPOS>MOLECULE
C33
   83    85     1     0     0
SMALL
bcc


@<TRIPOS>ATOM
      1 C5          0.1640   -0.0090    0.3090 ce        1 C33     -0.068200
      2 C10         1.6170   -0.1680    0.3070 ce        1 C33     -0.122200
      3 C1          2.2520   -0.4140    1.6530 c3        1 C33      0.181300
      4 C2          1.5350   -1.5500    2.3980 c3        1 C33     -0.046700
      5 C3          0.0470   -1.2020    2.5140 c3        1 C33      0.145100
      6 C4         -0.5810   -1.0040    1.1330 c3        1 C33     -0.074200
      7 C6         -0.5000    0.9410   -0.3820 cf        1 C33     -0.117000
      8 C7          0.1220    1.9630   -1.1910 cf        1 C33     -0.153000
      9 C8         -0.4790    2.6740   -2.1610 c2        1 C33     -0.075400
     10 C14         0.2180    3.7160   -2.9580 c3        1 C33     -0.038500
     11 C13        -0.5390    5.0730   -2.8940 c3        1 C33     -0.040000
     12 C12        -1.8980    4.8490   -3.5390 c3        1 C33     -0.067400
     13 C11        -2.6630    3.7540   -2.8170 c3        1 C33     -0.073400
     14 C9         -1.8810    2.4640   -2.6340 c3        1 C33     -0.044200
     15 C15         1.6640    4.0910   -2.6660 c3        1 C33     -0.073400
     16 C16         1.8290    5.4810   -3.2840 c3        1 C33     -0.079400
     17 C17         0.4280    5.9950   -3.6730 c3        1 C33     -0.053700
     18 C19         2.3580   -0.1330   -0.8070 c2        1 C33     -0.193000
     19 O3         -0.5920   -2.2910    3.1740 oh        1 C33     -0.600800
     20 O1          2.2030    0.7480    2.4780 oh        1 C33     -0.595800
     21 C20         0.2850    7.4950   -3.4360 c3        1 C33     -0.055700
     22 C22         1.3210    8.2620   -4.2570 c3        1 C33     -0.079400
     23 C18        -0.6950    5.5440   -1.4580 c3        1 C33     -0.083100
     24 C21        -1.1040    7.9910   -3.7910 c3        1 C33     -0.091100
     25 C23         1.6280    9.6170   -3.6540 c3        1 C33     -0.079400
     26 C24         2.6050   10.3840   -4.5190 c3        1 C33     -0.064400
     27 C25         3.0990   11.6760   -3.8600 c3        1 C33      0.147800
     28 O25         3.8000   11.2750   -2.6800 oh        1 C33     -0.597800
     29 C27         4.0560   12.3960   -4.8050 c3        1 C33     -0.123100
     30 C26         1.9440   12.5990   -3.4910 c3        1 C33     -0.123100
     31 C28         2.1450   -1.7940    3.7680 c3        1 C33     -0.078400
     32 C29         3.4530   -2.5520    3.6850 c3        1 C33     -0.077400
     33 C30         4.0230   -2.8110    5.0560 c3        1 C33     -0.091100
     34 H1          3.3380   -0.6960    1.5170 h1        1 C33      0.041700
     35 H2          1.6340   -2.4830    1.7770 hc        1 C33      0.064700
     36 H3         -0.0660   -0.2650    3.1290 h1        1 C33      0.056700
     37 H41        -1.6510   -0.6900    1.2620 hc        1 C33      0.053700
     38 H42        -0.5850   -1.9910    0.5940 hc        1 C33      0.053700
     39 H6         -1.6020    0.9740   -0.3130 ha        1 C33      0.124000
     40 H7          1.1870    2.1580   -0.9630 ha        1 C33      0.128000
     41 H14         0.1830    3.3630   -4.0340 hc        1 C33      0.054700
     42 H121       -1.7580    4.5670   -4.6160 hc        1 C33      0.042700
     43 H122       -2.5020    5.7930   -3.5170 hc        1 C33      0.042700
     44 H111       -3.5990    3.5250   -3.3930 hc        1 C33      0.041200
     45 H112       -2.9810    4.1350   -1.8100 hc        1 C33      0.041200
     46 H91        -2.4500    1.8010   -1.9300 hc        1 C33      0.047200
     47 H92        -1.8280    1.9250   -3.6210 hc        1 C33      0.047200
     48 H151        1.8550    4.1290   -1.5650 hc        1 C33      0.043700
     49 H152        2.3740    3.3560   -3.1140 hc        1 C33      0.043700
     50 H161        2.3120    6.1730   -2.5500 hc        1 C33      0.044200
     51 H162        2.4840    5.4320   -4.1890 hc        1 C33      0.044200
     52 H17         0.2670    5.8080   -4.7710 hc        1 C33      0.045700
     53 H191        1.9150    0.0240   -1.8000 ha        1 C33      0.120500
     54 H192        3.4470   -0.2690   -0.7920 ha        1 C33      0.120500
     55 HO3        -1.5130   -2.0340    3.2940 ho        1 C33      0.398000
     56 HO1         2.4110    1.5020    1.9140 ho        1 C33      0.404000
     57 H20         0.4720    7.7030   -2.3440 hc        1 C33      0.053700
     58 H221        2.2750    7.6760   -4.3220 hc        1 C33      0.040200
     59 H222        0.9420    8.3890   -5.3050 hc        1 C33      0.040200
     60 H181       -1.3740    6.4280   -1.4080 hc        1 C33      0.037700
     61 H182       -1.1230    4.7300   -0.8230 hc        1 C33      0.037700
     62 H183        0.2980    5.8310   -1.0340 hc        1 C33      0.037700
     63 H211       -1.8430    7.6960   -3.0080 hc        1 C33      0.033700
     64 H212       -1.4340    7.5690   -4.7710 hc        1 C33      0.033700
     65 H213       -1.1120    9.1050   -3.8680 hc        1 C33      0.033700
     66 H231        0.6810   10.2080   -3.5400 hc        1 C33      0.048700
     67 H232        2.0670    9.4890   -2.6290 hc        1 C33      0.048700
     68 H241        2.1270   10.6500   -5.4960 hc        1 C33      0.047200
     69 H242        3.4970    9.7380   -4.7330 hc        1 C33      0.047200
     70 H25         4.1150   12.0830   -2.2580 ho        1 C33      0.397000
     71 H271        4.4500   13.3230   -4.3240 hc        1 C33      0.042367
     72 H272        4.9180   11.7320   -5.0540 hc        1 C33      0.042367
     73 H273        3.5270   12.6760   -5.7450 hc        1 C33      0.042367
     74 H261        1.2790   12.7510   -4.3730 hc        1 C33      0.042367
     75 H262        1.3500   12.1530   -2.6580 hc        1 C33      0.042367
     76 H263        2.3330   13.5910   -3.1570 hc        1 C33      0.042367
     77 H281        1.4160   -2.3850    4.3850 hc        1 C33      0.060700
     78 H282        2.3070   -0.8100    4.2830 hc        1 C33      0.060700
     79 H291        4.1930   -1.9660    3.0780 hc        1 C33      0.034700
     80 H292        3.2890   -3.5280    3.1550 hc        1 C33      0.034700
     81 H301        4.2130   -1.8490    5.5910 hc        1 C33      0.032367
     82 H302        3.3130   -3.4170    5.6690 hc        1 C33      0.032367
     83 H303        4.9870   -3.3680    4.9770 hc        1 C33      0.032367
@<TRIPOS>BOND
     1    1    2 1   
     2    1    6 1   
     3    1    7 2   
     4    2    3 1   
     5    2   18 2   
     6    3    4 1   
     7    3   20 1   
     8    3   34 1   
     9    4    5 1   
    10    4   31 1   
    11    4   35 1   
    12    5    6 1   
    13    5   19 1   
    14    5   36 1   
    15    6   37 1   
    16    6   38 1   
    17    7    8 1   
    18    7   39 1   
    19    8    9 2   
    20    8   40 1   
    21    9   10 1   
    22    9   14 1   
    23   10   11 1   
    24   10   15 1   
    25   10   41 1   
    26   11   12 1   
    27   11   17 1   
    28   11   23 1   
    29   12   13 1   
    30   12   42 1   
    31   12   43 1   
    32   13   14 1   
    33   13   44 1   
    34   13   45 1   
    35   14   46 1   
    36   14   47 1   
    37   15   16 1   
    38   15   48 1   
    39   15   49 1   
    40   16   17 1   
    41   16   50 1   
    42   16   51 1   
    43   17   21 1   
    44   17   52 1   
    45   18   53 1   
    46   18   54 1   
    47   19   55 1   
    48   20   56 1   
    49   21   22 1   
    50   21   24 1   
    51   21   57 1   
    52   22   25 1   
    53   22   58 1   
    54   22   59 1   
    55   23   60 1   
    56   23   61 1   
    57   23   62 1   
    58   24   63 1   
    59   24   64 1   
    60   24   65 1   
    61   25   26 1   
    62   25   66 1   
    63   25   67 1   
    64   26   27 1   
    65   26   68 1   
    66   26   69 1   
    67   27   28 1   
    68   27   29 1   
    69   27   30 1   
    70   28   70 1   
    71   29   71 1   
    72   29   72 1   
    73   29   73 1   
    74   30   74 1   
    75   30   75 1   
    76   30   76 1   
    77   31   32 1   
    78   31   77 1   
    79   31   78 1   
    80   32   33 1   
    81   32   79 1   
    82   32   80 1   
    83   33   81 1   
    84   33   82 1   
    85   33   83 1   
@<TRIPOS>SUBSTRUCTURE
     1 C33         1 TEMP              0 ****  ****    0 ROOT
