@<TRIPOS>MOLECULE
C33
   83    81     1     0     0
SMALL
bcc


@<TRIPOS>ATOM
      1 C5          3.8430   -0.1720    1.9360 c1        1 C33     -0.060000
      2 C10         5.5260   -0.2540    2.0300 c1        1 C33     -0.116000
      3 C1          6.2110    0.8840    2.6220 c3        1 C33      0.066000
      4 C2          5.2910    1.6130    3.8190 c3        1 C33     -0.085000
      5 C3          4.0810    1.8960    3.4870 c3        1 C33      0.035000
      6 C4          3.1620    0.5970    2.9620 c3        1 C33     -0.156000
      7 C6          3.1440   -0.8090    0.9260 c1        1 C33     -0.121000
      8 C7          1.6020   -0.7110    0.8720 c1        1 C33     -0.159000
      9 C8          0.8780   -1.5810    0.0640 c1        1 C33     -0.065000
     10 C14        -0.5650   -1.9700    0.4480 c2        1 C33     -0.072000
     11 C13        -1.3200   -2.3550   -0.6350 c3        1 C33     -0.033000
     12 C12        -0.6020   -3.4250   -1.5850 c3        1 C33     -0.150000
     13 C11         0.7250   -3.0330   -1.9820 c3        1 C33     -0.154000
     14 C9          1.6180   -2.6480   -0.7830 c3        1 C33     -0.126000
     15 C15        -1.2210   -0.5650    0.8940 c3        1 C33     -0.153000
     16 C16        -2.1800   -0.1260   -0.3470 c3        1 C33     -0.158000
     17 C17        -1.8420   -0.9930   -1.3720 c3        1 C33     -0.096000
     18 C19         6.2130   -1.3390    1.5730 c1        1 C33     -0.200000
     19 O3          3.3990    2.5010    4.6760 oh        1 C33     -0.328000
     20 O1          6.6300    1.8330    1.6210 oh        1 C33     -0.322000
     21 C20        -3.0530   -1.2890   -2.2290 c3        1 C33     -0.095000
     22 C22        -3.6080    0.0200   -2.7990 c3        1 C33     -0.156000
     23 C18        -2.5750   -3.0550   -0.0670 c3        1 C33     -0.204000
     24 C21        -2.6560   -2.2070   -3.3650 c3        1 C33     -0.211000
     25 C23        -5.1220   -0.1480   -3.1010 c3        1 C33     -0.158000
     26 C24        -5.6430    1.1090   -3.8410 c3        1 C33     -0.143000
     27 C25        -7.1840    1.0400   -3.9530 c3        1 C33      0.076000
     28 O25        -7.6930    0.1780   -2.9480 oh        1 C33     -0.325000
     29 C27        -7.5750    0.4980   -5.3410 c3        1 C33     -0.241500
     30 C26        -7.7750    2.4490   -3.7670 c3        1 C33     -0.241500
     31 C28         6.0290    2.9890    4.2570 c3        1 C33     -0.157000
     32 C29         6.6280    2.8260    5.6670 c3        1 C33     -0.156000
     33 C30         7.3330    4.1260    6.0780 c3        1 C33     -0.209000
     34 H1          7.0800    0.6050    2.9860 h1        1 C33      0.081000
     35 H2          5.2660    1.0130    4.5980 hc        1 C33      0.104000
     36 H3          4.1060    2.5670    2.7680 h1        1 C33      0.097000
     37 H41         2.8830    0.0110    3.7030 hc        1 C33      0.095500
     38 H42         2.2910    0.9150    2.6410 hc        1 C33      0.095500
     39 H6          3.6260   -1.3220    0.2440 ha        1 C33      0.123000
     40 H7          1.1370   -0.0170    1.3830 ha        1 C33      0.124000
     41 H14        -0.5900   -2.6340    1.1750 ha        1 C33      0.092000
     42 H121       -0.5470   -4.2860   -1.1070 hc        1 C33      0.083000
     43 H122       -1.1480   -3.5460   -2.3910 hc        1 C33      0.083000
     44 H111        1.1460   -3.7830   -2.4640 hc        1 C33      0.081500
     45 H112        0.6600   -2.2630   -2.5890 hc        1 C33      0.081500
     46 H91         2.5150   -2.3310   -1.0290 hc        1 C33      0.089000
     47 H92         1.8360   -3.4510   -0.2570 hc        1 C33      0.089000
     48 H151       -0.5220    0.1080    1.0370 hc        1 C33      0.084500
     49 H152       -1.7560   -0.6820    1.7130 hc        1 C33      0.084500
     50 H161       -3.1270   -0.2350   -0.1050 hc        1 C33      0.084000
     51 H162       -1.9960    0.8050   -0.6110 hc        1 C33      0.084000
     52 H17        -1.1220   -0.6070   -1.9210 hc        1 C33      0.087000
     53 H191        7.1930   -1.3640    1.6380 DU        1 C33      0.116000
     54 H192        5.7300   -2.0950    1.1780 ha        1 C33      0.121000
     55 HO3         2.7260    3.0190    4.4020 ho        1 C33      0.197000
     56 HO1         7.4510    1.6250    1.3390 ho        1 C33      0.202000
     57 H20        -3.7420   -1.7260   -1.6810 hc        1 C33      0.093000
     58 H221       -3.4830    0.7410   -2.1440 hc        1 C33      0.078000
     59 H222       -3.1310    0.2440   -3.6300 hc        1 C33      0.078000
     60 H181       -3.1820   -2.3830    0.3130 hc        1 C33      0.076000
     61 H182       -2.3070   -3.6910    0.6360 hc        1 C33      0.076000
     62 H183       -3.0350   -3.5400   -0.7890 hc        1 C33      0.076000
     63 H211       -1.7350   -2.0040   -3.6440 hc        1 C33      0.073333
     64 H212       -3.2660   -2.0700   -4.1250 hc        1 C33      0.073333
     65 H213       -2.7100   -3.1420   -3.0660 hc        1 C33      0.073333
     66 H231       -5.6140   -0.2580   -2.2570 hc        1 C33      0.088500
     67 H232       -5.2580   -0.9400   -3.6650 hc        1 C33      0.088500
     68 H241       -5.2510    1.1440   -4.7420 hc        1 C33      0.086000
     69 H242       -5.3860    1.9150   -3.3390 hc        1 C33      0.086000
     70 H25        -8.5560    0.3600   -2.8090 ho        1 C33      0.196000
     71 H271       -7.2830    1.4020   -5.5930 hc        1 C33      0.081667
     72 H272       -8.3050    0.7430   -5.9580 hc        1 C33      0.081667
     73 H273       -8.3460    0.1840   -4.8180 hc        1 C33      0.081667
     74 H261       -8.7300    2.4380   -4.0000 hc        1 C33      0.081667
     75 H262       -7.3030    3.0830   -4.3530 hc        1 C33      0.081667
     76 H263       -7.6700    2.7280   -2.8290 hc        1 C33      0.081667
     77 H281        6.7480    3.1930    3.6180 hc        1 C33      0.100500
     78 H282        5.3770    3.7240    4.2610 hc        1 C33      0.100500
     79 H291        7.2770    2.0880    5.6640 hc        1 C33      0.074000
     80 H292        5.9090    2.6270    6.3070 hc        1 C33      0.074000
     81 H301        8.1550    4.2330    5.5510 hc        1 C33      0.071667
     82 H302        7.5590    4.0880    7.0340 hc        1 C33      0.071667
     83 H303        6.7360    4.8890    5.9120 hc        1 C33      0.071667
@<TRIPOS>BOND
     1    1    6 1   
     2    1    7 1   
     3    2    3 1   
     4    2   18 1   
     5    3    4 1   
     6    3   20 1   
     7    3   34 1   
     8    4    5 1   
     9    4   31 1   
    10    4   35 1   
    11    5    6 1   
    12    5   19 1   
    13    5   36 1   
    14    6   37 1   
    15    6   38 1   
    16    7   39 1   
    17    8    9 1   
    18    8   40 1   
    19    9   14 1   
    20   10   11 1   
    21   10   15 1   
    22   10   41 1   
    23   11   12 1   
    24   11   17 1   
    25   11   23 1   
    26   12   13 1   
    27   12   42 1   
    28   12   43 1   
    29   13   14 1   
    30   13   44 1   
    31   13   45 1   
    32   14   46 1   
    33   14   47 1   
    34   15   16 1   
    35   15   48 1   
    36   15   49 1   
    37   16   17 1   
    38   16   50 1   
    39   16   51 1   
    40   17   21 1   
    41   17   52 1   
    42   18   54 1   
    43   19   55 1   
    44   20   56 1   
    45   21   22 1   
    46   21   24 1   
    47   21   57 1   
    48   22   25 1   
    49   22   58 1   
    50   22   59 1   
    51   23   60 1   
    52   23   61 1   
    53   23   62 1   
    54   24   63 1   
    55   24   64 1   
    56   24   65 1   
    57   25   26 1   
    58   25   66 1   
    59   25   67 1   
    60   26   27 1   
    61   26   68 1   
    62   26   69 1   
    63   27   28 1   
    64   27   29 1   
    65   27   30 1   
    66   28   70 1   
    67   29   71 1   
    68   29   72 1   
    69   29   73 1   
    70   30   74 1   
    71   30   75 1   
    72   30   76 1   
    73   31   32 1   
    74   31   77 1   
    75   31   78 1   
    76   32   33 1   
    77   32   79 1   
    78   32   80 1   
    79   33   81 1   
    80   33   82 1   
    81   33   83 1   
@<TRIPOS>SUBSTRUCTURE
     1 C33         1 TEMP              0 ****  ****    0 ROOT
