@<TRIPOS>MOLECULE
C33
   83    85     1     0     0
SMALL
bcc


@<TRIPOS>ATOM
      1 C5          0.1770   -0.0380    0.2570 ce        1 C33     -0.089200
      2 C10         1.6310   -0.1960    0.2430 ce        1 C33     -0.119200
      3 C1          2.2760   -0.4020    1.5910 c3        1 C33      0.181300
      4 C2          1.5670   -1.5210    2.3680 c3        1 C33     -0.084700
      5 C3          0.0670   -1.2220    2.4640 c3        1 C33      0.145100
      6 C4         -0.5550   -1.0440    1.0790 c3        1 C33     -0.077200
      7 C6         -0.4960    0.9120   -0.4250 cf        1 C33     -0.108000
      8 C7          0.1200    1.9380   -1.2330 cf        1 C33     -0.157000
      9 C8         -0.4920    2.6650   -2.1830 c2        1 C33     -0.072400
     10 C14         0.2020    3.7100   -2.9810 c3        1 C33     -0.038500
     11 C13        -0.5430    5.0720   -2.8890 c3        1 C33     -0.040000
     12 C12        -1.9140    4.8670   -3.5150 c3        1 C33     -0.067400
     13 C11        -2.6770    3.7710   -2.7920 c3        1 C33     -0.073400
     14 C9         -1.9040    2.4730   -2.6360 c3        1 C33     -0.045200
     15 C15         1.6550    4.0690   -2.7080 c3        1 C33     -0.074400
     16 C16         1.8230    5.4650   -3.3120 c3        1 C33     -0.079400
     17 C17         0.4190    5.9950   -3.6740 c3        1 C33     -0.053700
     18 C19         2.3600   -0.1800   -0.8780 c2        1 C33     -0.181000
     19 O3         -0.5380   -2.3290    3.1240 oh        1 C33     -0.595800
     20 O1          2.3250    0.8120    2.3250 oh        1 C33     -0.588800
     21 C20         0.2930    7.4930   -3.4190 c3        1 C33     -0.055700
     22 C22         1.3220    8.2590   -4.2490 c3        1 C33     -0.079400
     23 C18        -0.6710    5.5290   -1.4460 c3        1 C33     -0.083100
     24 C21        -1.0970    8.0040   -3.7470 c3        1 C33     -0.091100
     25 C23         1.6480    9.6080   -3.6400 c3        1 C33     -0.079400
     26 C24         2.6180   10.3740   -4.5120 c3        1 C33     -0.064400
     27 C25         3.1280   11.6590   -3.8520 c3        1 C33      0.147800
     28 O25         3.8410   11.2460   -2.6840 oh        1 C33     -0.597800
     29 C27         4.0790   12.3790   -4.8040 c3        1 C33     -0.123100
     30 C26         1.9850   12.5870   -3.4620 c3        1 C33     -0.123100
     31 C28         2.1710   -1.6980    3.7520 c3        1 C33     -0.078400
     32 C29         3.4740   -2.4690    3.7100 c3        1 C33     -0.076400
     33 C30         4.0480   -2.6460    5.0930 c3        1 C33     -0.092100
     34 H1          3.3650   -0.6760    1.4700 h1        1 C33      0.080700
     35 H2          1.6900   -2.4770    1.7870 hc        1 C33      0.070700
     36 H3         -0.0950   -0.2930    3.0810 h1        1 C33      0.033700
     37 H41        -0.5340   -2.0340    0.5460 hc        1 C33      0.055700
     38 H42        -1.6330   -0.7530    1.1980 hc        1 C33      0.055700
     39 H6         -1.5980    0.9390   -0.3500 ha        1 C33      0.122000
     40 H7          1.1920    2.1200   -1.0200 ha        1 C33      0.136000
     41 H14         0.1450    3.3680   -4.0590 hc        1 C33      0.054700
     42 H121       -2.5090    5.8160   -3.4720 hc        1 C33      0.042700
     43 H122       -1.7940    4.5960   -4.5970 hc        1 C33      0.042700
     44 H111       -3.6240    3.5560   -3.3560 hc        1 C33      0.040200
     45 H112       -2.9750    4.1440   -1.7760 hc        1 C33      0.040200
     46 H91        -2.4670    1.8080   -1.9300 hc        1 C33      0.047200
     47 H92        -1.8710    1.9440   -3.6290 hc        1 C33      0.047200
     48 H151        2.3520    3.3330   -3.1750 hc        1 C33      0.045700
     49 H152        1.8650    4.0920   -1.6090 hc        1 C33      0.045700
     50 H161        2.3220    6.1440   -2.5780 hc        1 C33      0.044200
     51 H162        2.4630    5.4200   -4.2280 hc        1 C33      0.044200
     52 H17         0.2400    5.8200   -4.7710 hc        1 C33      0.045700
     53 H191        3.4500   -0.3060   -0.8690 ha        1 C33      0.120500
     54 H192        1.9070   -0.0440   -1.8690 ha        1 C33      0.120500
     55 HO3        -1.4820   -2.1390    3.1710 ho        1 C33      0.399000
     56 HO1         1.4250    1.1530    2.3830 ho        1 C33      0.400000
     57 H20         0.5000    7.6890   -2.3280 hc        1 C33      0.053700
     58 H221        2.2710    7.6670   -4.3330 hc        1 C33      0.040700
     59 H222        0.9290    8.3990   -5.2900 hc        1 C33      0.040700
     60 H181       -1.0970    4.7130   -0.8130 hc        1 C33      0.037700
     61 H182       -1.3410    6.4190   -1.3760 hc        1 C33      0.037700
     62 H183        0.3310    5.8010   -1.0350 hc        1 C33      0.037700
     63 H211       -1.4470    7.5940   -4.7250 hc        1 C33      0.033367
     64 H212       -1.8250    7.7070   -2.9540 hc        1 C33      0.033367
     65 H213       -1.0970    9.1190   -3.8120 hc        1 C33      0.033367
     66 H231        2.1010    9.4670   -2.6220 hc        1 C33      0.048700
     67 H232        0.7070   10.2040   -3.5070 hc        1 C33      0.048700
     68 H241        2.1270   10.6500   -5.4810 hc        1 C33      0.047200
     69 H242        3.5030    9.7250   -4.7430 hc        1 C33      0.047200
     70 H25         4.1680   12.0490   -2.2610 ho        1 C33      0.397000
     71 H271        4.4840   13.3000   -4.3230 hc        1 C33      0.042200
     72 H272        3.5390   12.6680   -5.7360 hc        1 C33      0.042200
     73 H273        4.9320   11.7110   -5.0680 hc        1 C33      0.042200
     74 H261        1.3100   12.7490   -4.3350 hc        1 C33      0.042200
     75 H262        1.3980   12.1400   -2.6240 hc        1 C33      0.042200
     76 H263        2.3840   13.5750   -3.1270 hc        1 C33      0.042200
     77 H281        1.4380   -2.2480    4.4010 hc        1 C33      0.057700
     78 H282        2.3440   -0.6880    4.2110 hc        1 C33      0.057700
     79 H291        3.3000   -3.4750    3.2440 hc        1 C33      0.036700
     80 H292        4.2140   -1.9270    3.0640 hc        1 C33      0.036700
     81 H301        4.2510   -1.6540    5.5640 hc        1 C33      0.032700
     82 H302        5.0060   -3.2160    5.0450 hc        1 C33      0.032700
     83 H303        3.3360   -3.2050    5.7460 hc        1 C33      0.032700
@<TRIPOS>BOND
     1    1    2 1   
     2    1    6 1   
     3    1    7 2   
     4    2    3 1   
     5    2   18 2   
     6    3    4 1   
     7    3   20 1   
     8    3   34 1   
     9    4    5 1   
    10    4   31 1   
    11    4   35 1   
    12    5    6 1   
    13    5   19 1   
    14    5   36 1   
    15    6   37 1   
    16    6   38 1   
    17    7    8 1   
    18    7   39 1   
    19    8    9 2   
    20    8   40 1   
    21    9   10 1   
    22    9   14 1   
    23   10   11 1   
    24   10   15 1   
    25   10   41 1   
    26   11   12 1   
    27   11   17 1   
    28   11   23 1   
    29   12   13 1   
    30   12   42 1   
    31   12   43 1   
    32   13   14 1   
    33   13   44 1   
    34   13   45 1   
    35   14   46 1   
    36   14   47 1   
    37   15   16 1   
    38   15   48 1   
    39   15   49 1   
    40   16   17 1   
    41   16   50 1   
    42   16   51 1   
    43   17   21 1   
    44   17   52 1   
    45   18   53 1   
    46   18   54 1   
    47   19   55 1   
    48   20   56 1   
    49   21   22 1   
    50   21   24 1   
    51   21   57 1   
    52   22   25 1   
    53   22   58 1   
    54   22   59 1   
    55   23   60 1   
    56   23   61 1   
    57   23   62 1   
    58   24   63 1   
    59   24   64 1   
    60   24   65 1   
    61   25   26 1   
    62   25   66 1   
    63   25   67 1   
    64   26   27 1   
    65   26   68 1   
    66   26   69 1   
    67   27   28 1   
    68   27   29 1   
    69   27   30 1   
    70   28   70 1   
    71   29   71 1   
    72   29   72 1   
    73   29   73 1   
    74   30   74 1   
    75   30   75 1   
    76   30   76 1   
    77   31   32 1   
    78   31   77 1   
    79   31   78 1   
    80   32   33 1   
    81   32   79 1   
    82   32   80 1   
    83   33   81 1   
    84   33   82 1   
    85   33   83 1   
@<TRIPOS>SUBSTRUCTURE
     1 C33         1 TEMP              0 ****  ****    0 ROOT
