@<TRIPOS>MOLECULE
C33
   83    85     1     0     0
SMALL
bcc


@<TRIPOS>ATOM
      1 C5          4.1400    0.7890    0.0620 ce        1 C33     -0.068200
      2 C10         4.1990   -0.3160    1.0170 ce        1 C33     -0.122200
      3 C1          5.0190   -1.5080    0.5910 c3        1 C33      0.181300
      4 C2          6.4100   -1.0710    0.1070 c3        1 C33     -0.046700
      5 C3          6.2420   -0.0500   -1.0220 c3        1 C33      0.145100
      6 C4          5.4470    1.1680   -0.5490 c3        1 C33     -0.074200
      7 C6          3.0140    1.4600   -0.2600 cf        1 C33     -0.117000
      8 C7          1.6980    1.1630    0.2550 cf        1 C33     -0.153000
      9 C8          0.6460    2.0010    0.2570 c2        1 C33     -0.075400
     10 C14        -0.6870    1.6320    0.8030 c3        1 C33     -0.038500
     11 C13        -1.8060    1.8510   -0.2550 c3        1 C33     -0.040000
     12 C12        -1.8400    3.3410   -0.5570 c3        1 C33     -0.067400
     13 C11        -0.4930    3.8180   -1.0710 c3        1 C33     -0.073400
     14 C9          0.6830    3.4250   -0.1940 c3        1 C33     -0.044200
     15 C15        -0.9570    0.2340    1.3360 c3        1 C33     -0.073400
     16 C16        -2.4800    0.0970    1.2930 c3        1 C33     -0.079400
     17 C17        -3.0390    1.2900    0.4910 c3        1 C33     -0.053700
     18 C19         3.5980   -0.2860    2.2120 c2        1 C33     -0.193000
     19 O3          7.5460    0.3600   -1.4190 oh        1 C33     -0.600800
     20 O1          4.3930   -2.2240   -0.4710 oh        1 C33     -0.595800
     21 C20        -4.2360    0.8900   -0.3660 c3        1 C33     -0.055700
     22 C22        -5.3560    0.3390    0.5150 c3        1 C33     -0.079400
     23 C18        -1.5280    1.0510   -1.5160 c3        1 C33     -0.083100
     24 C21        -4.7630    2.0600   -1.1750 c3        1 C33     -0.091100
     25 C23        -6.2770   -0.5840   -0.2570 c3        1 C33     -0.079400
     26 C24        -7.4150   -1.0650    0.6170 c3        1 C33     -0.064400
     27 C25        -8.2630   -2.1510   -0.0530 c3        1 C33      0.147800
     28 O25        -7.3900   -3.2630   -0.2620 oh        1 C33     -0.597800
     29 C27        -9.3980   -2.5600    0.8820 c3        1 C33     -0.123100
     30 C26        -8.8350   -1.6810   -1.3850 c3        1 C33     -0.123100
     31 C28         7.2410   -2.2580   -0.3510 c3        1 C33     -0.078400
     32 C29         7.7950   -3.0520    0.8140 c3        1 C33     -0.077400
     33 C30         8.6420   -4.2030    0.3360 c3        1 C33     -0.091100
     34 H1          5.1410   -2.2180    1.4620 h1        1 C33      0.041700
     35 H2          6.9290   -0.5660    0.9680 hc        1 C33      0.064700
     36 H3          5.7170   -0.5420   -1.8890 h1        1 C33      0.056700
     37 H41         5.2920    1.8600   -1.4180 hc        1 C33      0.053700
     38 H42         6.0580    1.7220    0.2150 hc        1 C33      0.053700
     39 H6          3.0800    2.2830   -0.9950 ha        1 C33      0.124000
     40 H7          1.5760    0.1450    0.6730 ha        1 C33      0.128000
     41 H14        -0.8850    2.3520    1.6550 hc        1 C33      0.054700
     42 H121       -2.6250    3.5660   -1.3250 hc        1 C33      0.042700
     43 H122       -2.1120    3.9040    0.3740 hc        1 C33      0.042700
     44 H111       -0.3320    3.4080   -2.1040 hc        1 C33      0.041200
     45 H112       -0.5140    4.9370   -1.1590 hc        1 C33      0.041200
     46 H91         0.6850    4.0710    0.7280 hc        1 C33      0.047200
     47 H92         1.6310    3.6470   -0.7510 hc        1 C33      0.047200
     48 H151       -0.4780   -0.5440    0.6900 hc        1 C33      0.043700
     49 H152       -0.5630    0.1090    2.3740 hc        1 C33      0.043700
     50 H161       -2.7660   -0.8700    0.8090 hc        1 C33      0.044200
     51 H162       -2.9020    0.0990    2.3280 hc        1 C33      0.044200
     52 H17        -3.3870    2.0790    1.2150 hc        1 C33      0.045700
     53 H191        3.0130    0.5790    2.5520 ha        1 C33      0.120500
     54 H192        3.6640   -1.1200    2.9240 ha        1 C33      0.120500
     55 HO3         7.4300    0.9550   -2.1690 ho        1 C33      0.398000
     56 HO1         3.4520   -2.2640   -0.2670 ho        1 C33      0.404000
     57 H20        -3.9100    0.0790   -1.0770 hc        1 C33      0.053700
     58 H221       -4.9250   -0.2290    1.3810 hc        1 C33      0.040200
     59 H222       -5.9450    1.1920    0.9430 hc        1 C33      0.040200
     60 H181       -1.6340   -0.0430   -1.3140 hc        1 C33      0.037700
     61 H182       -2.2440    1.3350   -2.3250 hc        1 C33      0.037700
     62 H183       -0.4890    1.2400   -1.8790 hc        1 C33      0.037700
     63 H211       -4.0910    2.2790   -2.0390 hc        1 C33      0.033700
     64 H212       -5.7780    1.8270   -1.5800 hc        1 C33      0.033700
     65 H213       -4.8400    2.9760   -0.5410 hc        1 C33      0.033700
     66 H231       -6.6900   -0.0500   -1.1530 hc        1 C33      0.048700
     67 H232       -5.7020   -1.4720   -0.6320 hc        1 C33      0.048700
     68 H241       -7.0000   -1.4860    1.5700 hc        1 C33      0.047200
     69 H242       -8.0870   -0.2080    0.8800 hc        1 C33      0.047200
     70 H25        -7.9160   -3.9530   -0.6830 ho        1 C33      0.397000
     71 H271      -10.0620   -1.6870    1.0830 hc        1 C33      0.042367
     72 H272      -10.0050   -3.3750    0.4210 hc        1 C33      0.042367
     73 H273       -8.9810   -2.9320    1.8480 hc        1 C33      0.042367
     74 H261       -8.0140   -1.5650   -2.1320 hc        1 C33      0.042367
     75 H262       -9.5690   -2.4260   -1.7760 hc        1 C33      0.042367
     76 H263       -9.3510   -0.7010   -1.2540 hc        1 C33      0.042367
     77 H281        6.6130   -2.9230   -1.0010 hc        1 C33      0.060700
     78 H282        8.0940   -1.8790   -0.9760 hc        1 C33      0.060700
     79 H291        8.4100   -2.3800    1.4690 hc        1 C33      0.034700
     80 H292        6.9510   -3.4450    1.4400 hc        1 C33      0.034700
     81 H301        9.0410   -4.7790    1.2050 hc        1 C33      0.032367
     82 H302        8.0420   -4.8970   -0.3020 hc        1 C33      0.032367
     83 H303        9.5050   -3.8330   -0.2690 hc        1 C33      0.032367
@<TRIPOS>BOND
     1    1    2 1   
     2    1    6 1   
     3    1    7 2   
     4    2    3 1   
     5    2   18 2   
     6    3    4 1   
     7    3   20 1   
     8    3   34 1   
     9    4    5 1   
    10    4   31 1   
    11    4   35 1   
    12    5    6 1   
    13    5   19 1   
    14    5   36 1   
    15    6   37 1   
    16    6   38 1   
    17    7    8 1   
    18    7   39 1   
    19    8    9 2   
    20    8   40 1   
    21    9   10 1   
    22    9   14 1   
    23   10   11 1   
    24   10   15 1   
    25   10   41 1   
    26   11   12 1   
    27   11   17 1   
    28   11   23 1   
    29   12   13 1   
    30   12   42 1   
    31   12   43 1   
    32   13   14 1   
    33   13   44 1   
    34   13   45 1   
    35   14   46 1   
    36   14   47 1   
    37   15   16 1   
    38   15   48 1   
    39   15   49 1   
    40   16   17 1   
    41   16   50 1   
    42   16   51 1   
    43   17   21 1   
    44   17   52 1   
    45   18   53 1   
    46   18   54 1   
    47   19   55 1   
    48   20   56 1   
    49   21   22 1   
    50   21   24 1   
    51   21   57 1   
    52   22   25 1   
    53   22   58 1   
    54   22   59 1   
    55   23   60 1   
    56   23   61 1   
    57   23   62 1   
    58   24   63 1   
    59   24   64 1   
    60   24   65 1   
    61   25   26 1   
    62   25   66 1   
    63   25   67 1   
    64   26   27 1   
    65   26   68 1   
    66   26   69 1   
    67   27   28 1   
    68   27   29 1   
    69   27   30 1   
    70   28   70 1   
    71   29   71 1   
    72   29   72 1   
    73   29   73 1   
    74   30   74 1   
    75   30   75 1   
    76   30   76 1   
    77   31   32 1   
    78   31   77 1   
    79   31   78 1   
    80   32   33 1   
    81   32   79 1   
    82   32   80 1   
    83   33   81 1   
    84   33   82 1   
    85   33   83 1   
@<TRIPOS>SUBSTRUCTURE
     1 C33         1 TEMP              0 ****  ****    0 ROOT
