@<TRIPOS>MOLECULE
C34
   35    34     1     0     0
SMALL
bcc


@<TRIPOS>ATOM
      1 P           1.1410    1.5010    3.9800 p3        1 C34      2.517000
      2 OP1         1.8390    1.2150    5.2930 o         1 C34     -1.232500
      3 OP2         0.0460    2.5150    4.2030 os        1 C34     -1.266000
      4 OP3         2.1400    2.0480    2.9870 o         1 C34     -1.232500
      5 O5'         0.5160    0.1690    3.4160 os        1 C34     -0.740000
      6 C5'        -0.0820    0.1960    2.1360 c3        1 C34      0.059000
      7 C4'        -1.3820   -0.5810    2.1700 c3        1 C34     -0.049000
      8 O4'        -2.2500   -0.2620    0.8560 os        1 C34     -0.297000
      9 C1'        -1.7710   -1.0200   -0.0880 c3        1 C34      0.147000
     10 N1         -0.7350   -0.3120   -0.8280 n         1 C34     -0.261000
     11 C6         -0.7910    1.1130   -0.9370 c2        1 C34      0.095000
     12 C2          0.2550   -1.0660   -1.6010 c2        1 C34      0.339000
     13 O2          0.3590   -2.2680   -1.4450 o         1 C34     -0.412000
     14 N3          1.0460   -0.3890   -2.6510 n2        1 C34     -0.326000
     15 C4          0.9250    1.0230   -2.8370 c1        1 C34      0.187000
     16 N4          1.8080    1.7140   -3.7710 n2        1 C34     -0.290000
     17 C7          2.2070    1.0660   -5.0070 c3        1 C34     -0.085000
     18 C5         -0.0020    1.8020   -1.9810 c2        1 C34     -0.374000
     19 C2'        -1.1730   -2.2390    0.6410 c3        1 C34     -0.198000
     20 C3'        -1.1420   -1.8490    2.1480 c3        1 C34      0.011000
     21 O3'        -2.2000   -2.5870    2.8930 oh        1 C34     -0.389000
     22 H5'         0.5160   -0.2060    1.4930 h1        1 C34      0.052000
     23 H5''       -0.2620    1.1180    1.8810 h1        1 C34      0.052000
     24 H4'        -1.8870   -0.3510    2.9650 h1        1 C34      0.074000
     25 H1'        -2.4890   -1.3050   -0.6930 h2        1 C34      0.125000
     26 H6         -1.4070    1.6260   -0.3670 h4        1 C34      0.277000
     27 H4          2.1440    2.5430   -3.5590 hn        1 C34      0.199000
     28 H7C1        3.0060    1.5180   -5.3720 h1        1 C34      0.068667
     29 H7C2        1.4710    1.1210   -5.6600 h1        1 C34      0.068667
     30 H7C3        2.4160    0.1300   -4.8300 h1        1 C34      0.068667
     31 H5         -0.1630    2.7420   -2.1690 ha        1 C34      0.167000
     32 H2'        -1.7460   -3.0340    0.5050 hc        1 C34      0.089000
     33 H2''       -0.2680   -2.4150    0.3190 hc        1 C34      0.089000
     34 H3'        -0.2610   -2.0360    2.5310 h1        1 C34      0.187000
     35 HO3'       -1.8240   -3.2400    3.3780 ho        1 C34      0.281000
@<TRIPOS>BOND
     1    1    2 1   
     2    1    4 1   
     3    1    5 1   
     4    5    6 1   
     5    6    7 1   
     6    6   22 1   
     7    6   23 1   
     8    7    8 1   
     9    7   20 1   
    10    7   24 1   
    11    8    9 1   
    12    9   10 1   
    13    9   19 1   
    14    9   25 1   
    15   10   11 1   
    16   10   12 1   
    17   11   18 1   
    18   11   26 1   
    19   12   13 1   
    20   12   14 1   
    21   14   15 1   
    22   15   18 1   
    23   16   17 1   
    24   16   27 1   
    25   17   28 1   
    26   17   29 1   
    27   17   30 1   
    28   18   31 1   
    29   19   20 1   
    30   19   32 1   
    31   19   33 1   
    32   20   21 1   
    33   20   34 1   
    34   21   35 1   
@<TRIPOS>SUBSTRUCTURE
     1 C34         1 TEMP              0 ****  ****    0 ROOT
