@<TRIPOS>MOLECULE
C34
   35    36     1     0     0
SMALL
bcc


@<TRIPOS>ATOM
      1 P          -0.9660    0.2110   -2.7400 p5        1 C34      1.338900
      2 OP1        -1.2950   -0.1240   -1.2960 o         1 C34     -0.925833
      3 OP2        -2.0590    0.7790   -3.5830 o         1 C34     -0.925833
      4 OP3        -0.0050   -0.7950   -3.3280 o         1 C34     -0.925833
      5 O5'         0.1710    1.5050   -2.5330 os        1 C34     -0.569200
      6 C5'         0.5910    1.7980   -1.2660 c3        1 C34      0.224400
      7 C4'         1.9090    1.0830   -0.8800 c3        1 C34      0.062100
      8 O4'         2.1630    1.3250    0.5260 os        1 C34     -0.440600
      9 C1'         2.2370    0.0940    1.2480 c3        1 C34      0.292500
     10 N1          1.0460   -0.1010    2.0910 n         1 C34     -0.369000
     11 C6         -0.2090   -0.1990    1.5490 cc        1 C34      0.089600
     12 C2          1.1960   -0.1480    3.5190 c         1 C34      0.819900
     13 O2          2.3510   -0.0820    4.0120 o         1 C34     -0.694500
     14 N3          0.0810   -0.3000    4.3560 nc        1 C34     -0.759100
     15 C4         -1.1390   -0.3690    3.7880 cd        1 C34      0.710500
     16 N4         -2.2980   -0.4280    4.5910 nh        1 C34     -0.807200
     17 C7         -2.1990   -0.8070    5.9680 c3        1 C34      0.193100
     18 C5         -1.3230   -0.3400    2.3580 cd        1 C34     -0.460600
     19 C2'         2.4500   -1.0290    0.2120 c3        1 C34     -0.118400
     20 C3'         1.8910   -0.4470   -1.0870 c3        1 C34      0.108100
     21 O3'         2.6880   -0.8330   -2.1840 oh        1 C34     -0.655800
     22 H5'        -0.1980    1.5520   -0.5020 h1        1 C34     -0.003300
     23 H5''        0.8080    2.9070   -1.2030 h1        1 C34     -0.003300
     24 H4'         2.7760    1.5400   -1.4260 h1        1 C34      0.043700
     25 H1'         3.1180    0.2080    1.9460 h2        1 C34      0.091700
     26 H6         -0.3450   -0.1770    0.4160 h4        1 C34      0.305000
     27 H4         -3.0680   -0.8390    4.1060 hn        1 C34      0.400800
     28 H7C1       -3.2200   -0.7330    6.4300 h1        1 C34      0.027367
     29 H7C2       -1.8180   -1.8550    6.1120 h1        1 C34      0.027367
     30 H7C3       -1.5050   -0.1070    6.5040 h1        1 C34      0.027367
     31 H5         -2.3110   -0.4040    1.8880 ha        1 C34      0.171000
     32 H2'         3.5430   -1.2360    0.1170 hc        1 C34      0.049700
     33 H2''        1.9310   -1.9780    0.4830 hc        1 C34      0.049700
     34 H3'         0.8160   -0.7800   -1.2670 h1        1 C34      0.147700
     35 HO3'        2.0610   -0.8860   -2.9380 ho        1 C34      0.480000
@<TRIPOS>BOND
     1    1    2 1   
     2    1    3 1   
     3    1    4 1   
     4    1    5 1   
     5    5    6 1   
     6    6    7 1   
     7    6   22 1   
     8    6   23 1   
     9    7    8 1   
    10    7   20 1   
    11    7   24 1   
    12    8    9 1   
    13    9   10 1   
    14    9   19 1   
    15    9   25 1   
    16   10   11 1   
    17   10   12 1   
    18   11   18 2   
    19   11   26 1   
    20   12   13 2   
    21   12   14 1   
    22   14   15 2   
    23   15   16 1   
    24   15   18 1   
    25   16   17 1   
    26   16   27 1   
    27   17   28 1   
    28   17   29 1   
    29   17   30 1   
    30   18   31 1   
    31   19   20 1   
    32   19   32 1   
    33   19   33 1   
    34   20   21 1   
    35   20   34 1   
    36   21   35 1   
@<TRIPOS>SUBSTRUCTURE
     1 C34         1 TEMP              0 ****  ****    0 ROOT
