@<TRIPOS>MOLECULE
C36
   38    38     1     0     0
SMALL
bcc


@<TRIPOS>ATOM
      1 OXT        -4.6960   -1.5700   -0.9440 oh        1 C36     -0.371000
      2 O3P         2.6390    0.9350   -3.8860 o         1 C36     -0.929833
      3 P           2.6890    2.2790   -3.2030 p5        1 C36      1.579500
      4 O1P         2.2780    3.3570   -4.1820 o         1 C36     -0.929833
      5 O2P         4.0950    2.5460   -2.7200 o         1 C36     -0.929833
      6 O5'         1.6890    2.2810   -1.9600 os        1 C36     -0.732000
      7 C5'         1.8140    1.2440   -0.9820 c3        1 C36      0.075000
      8 C4'         1.7360    1.8080    0.3140 c3        1 C36     -0.046000
      9 O4'         0.3360    2.0210    0.6940 os        1 C36     -0.305000
     10 C3'         2.3280    0.7950    1.3950 c3        1 C36      0.006000
     11 O3'         3.6440    1.3180    1.9380 oh        1 C36     -0.383000
     12 C2'         1.4950    0.7590    2.2770 c3        1 C36     -0.197000
     13 C1'         0.0890    1.1070    1.5800 c3        1 C36      0.168000
     14 N1         -0.4460   -0.0530    0.9500 n         1 C36     -0.350000
     15 C2          0.2010   -1.3230    1.1190 c2        1 C36      0.361000
     16 O2          1.2290   -1.4010    1.7710 o         1 C36     -0.408000
     17 N3         -0.3970   -2.5110    0.5810 n2        1 C36     -0.306000
     18 C4         -1.7870   -2.5360    0.2890 c1        1 C36      0.116000
     19 N4         -2.4770   -3.7880    0.2040 n2        1 C36     -0.343000
     20 C5         -2.5620   -1.2290    0.1670 c3        1 C36      0.076000
     21 C6         -1.6940    0.0240    0.2650 c3        1 C36     -0.085000
     22 F          -3.5750   -1.1850    1.0440 f         1 C36     -0.159000
     23 C          -3.3480   -1.2130   -1.1810 c3        1 C36     -0.092000
     24 HXT        -5.1600   -1.4900   -1.6980 ho        1 C36      0.216000
     25 H5'1        1.0880    0.5930   -1.1000 h1        1 C36      0.036000
     26 H5'2        2.6770    0.7940   -1.0920 h1        1 C36      0.036000
     27 H4'         2.2270    2.6560    0.3440 h1        1 C36      0.076000
     28 H3'         2.4470   -0.0880    1.0030 h1        1 C36      0.175000
     29 HA          4.2070    0.6370    2.0620 ho        1 C36      0.281000
     30 H2'1        1.7050    1.4270    2.9680 hc        1 C36      0.086500
     31 H2'2        1.4620   -0.1380    2.6730 hc        1 C36      0.086500
     32 H1'        -0.5420    1.4480    2.2490 h2        1 C36      0.109000
     33 H4N1       -3.3530   -3.8100   -0.0550 hn        1 C36      0.208000
     34 H4N2       -2.0440   -4.5680    0.4300 hn        1 C36      0.208000
     35 H6         -1.5090    0.3250   -0.6470 h1        1 C36      0.163000
     36 HC1        -3.3120   -0.3160   -1.5690 h1        1 C36      0.170500
     37 HC2        -2.2290    0.7180    0.7060 h1        1 C36      0.163000
     38 HC3        -2.9440   -1.8550   -1.8020 h1        1 C36      0.170500
@<TRIPOS>BOND
     1    1   23 1   
     2    1   24 1   
     3    2    3 1   
     4    3    4 1   
     5    3    5 1   
     6    3    6 1   
     7    6    7 1   
     8    7    8 1   
     9    7   25 1   
    10    7   26 1   
    11    8    9 1   
    12    8   10 1   
    13    8   27 1   
    14    9   13 1   
    15   10   11 1   
    16   10   12 1   
    17   10   28 1   
    18   11   29 1   
    19   12   13 1   
    20   12   30 1   
    21   12   31 1   
    22   13   14 1   
    23   13   32 1   
    24   14   15 1   
    25   14   21 1   
    26   15   16 1   
    27   15   17 1   
    28   17   18 1   
    29   18   20 1   
    30   19   33 1   
    31   19   34 1   
    32   20   21 1   
    33   20   22 1   
    34   20   23 1   
    35   21   35 1   
    36   21   37 1   
    37   23   36 1   
    38   23   38 1   
@<TRIPOS>SUBSTRUCTURE
     1 C36         1 TEMP              0 ****  ****    0 ROOT
