@<TRIPOS>MOLECULE
C36
   38    39     1     0     0
SMALL
bcc


@<TRIPOS>ATOM
      1 OXT         5.6760    1.7240   -2.4310 oh        1 C36     -0.642800
      2 O3P         4.3560    3.6570    0.9240 o         1 C36     -0.918500
      3 P           4.6100    2.6750    2.0440 p5        1 C36      1.322900
      4 O1P         5.5610    3.0510    3.1340 o         1 C36     -0.918500
      5 O2P         4.7130    1.2820    1.4610 o         1 C36     -0.918500
      6 O5'         3.0950    2.6330    2.8810 os        1 C36     -0.551200
      7 C5'         2.2720    1.5820    2.6030 c3        1 C36      0.213400
      8 C4'         0.8140    2.0280    2.3500 c3        1 C36      0.111100
      9 O4'         0.6760    2.9750    1.2840 os        1 C36     -0.394600
     10 C3'        -0.0490    0.8020    1.9820 c3        1 C36      0.098100
     11 O3'        -1.2220    0.8220    2.7880 oh        1 C36     -0.604800
     12 C2'        -0.3740    0.9560    0.4950 c3        1 C36     -0.139400
     13 C1'         0.0940    2.3820    0.1130 c3        1 C36      0.298500
     14 N1          0.9980    2.4100   -1.0310 n         1 C36     -0.460800
     15 C2          0.7060    3.3070   -2.0790 c         1 C36      0.844900
     16 O2         -0.4680    3.7220   -2.2510 o         1 C36     -0.690500
     17 N3          1.7000    3.6970   -3.0220 ne        1 C36     -0.736100
     18 C4          2.8790    3.1120   -3.0170 c2        1 C36      0.655200
     19 N4          3.8090    3.3990   -4.0080 nh        1 C36     -0.907800
     20 C5          3.2960    2.0090   -1.9990 c3        1 C36      0.075000
     21 C6          2.3830    2.0890   -0.7530 c3        1 C36     -0.018000
     22 F           3.1910    0.7710   -2.6330 f         1 C36     -0.258300
     23 C           4.7450    2.2270   -1.4900 c3        1 C36      0.043400
     24 HXT         5.6760    0.7670   -2.3260 ho        1 C36      0.396000
     25 H5'1        2.6440    0.9820    1.7250 h1        1 C36      0.001700
     26 H5'2        2.1970    0.8910    3.5020 h1        1 C36      0.001700
     27 H4'         0.4110    2.5630    3.2520 h1        1 C36      0.068700
     28 H3'         0.5060   -0.1550    2.1780 h1        1 C36      0.045700
     29 HA         -1.7640    0.0810    2.4970 ho        1 C36      0.371000
     30 H2'1        0.1510    0.1710   -0.1010 hc        1 C36      0.047700
     31 H2'2       -1.4710    0.8650    0.3070 hc        1 C36      0.047700
     32 H1'        -0.8010    3.0330   -0.1320 h2        1 C36      0.079700
     33 H4N1        3.7190    4.2660   -4.4840 hn        1 C36      0.416300
     34 H4N2        4.7440    3.1170   -3.8030 hn        1 C36      0.416300
     35 H6          2.4040    1.0730   -0.2630 h1        1 C36      0.145700
     36 HC1         4.8600    1.7580   -0.4490 h1        1 C36      0.156700
     37 HC2         2.8690    2.8310   -0.0020 h1        1 C36      0.145700
     38 HC3         4.9560    3.3230   -1.3710 h1        1 C36      0.156700
@<TRIPOS>BOND
     1    1   23 1   
     2    1   24 1   
     3    2    3 1   
     4    3    4 1   
     5    3    5 1   
     6    3    6 1   
     7    6    7 1   
     8    7    8 1   
     9    7   25 1   
    10    7   26 1   
    11    8    9 1   
    12    8   10 1   
    13    8   27 1   
    14    9   13 1   
    15   10   11 1   
    16   10   12 1   
    17   10   28 1   
    18   11   29 1   
    19   12   13 1   
    20   12   30 1   
    21   12   31 1   
    22   13   14 1   
    23   13   32 1   
    24   14   15 1   
    25   14   21 1   
    26   15   16 2   
    27   15   17 1   
    28   17   18 2   
    29   18   19 1   
    30   18   20 1   
    31   19   33 1   
    32   19   34 1   
    33   20   21 1   
    34   20   22 1   
    35   20   23 1   
    36   21   35 1   
    37   21   37 1   
    38   23   36 1   
    39   23   38 1   
@<TRIPOS>SUBSTRUCTURE
     1 C36         1 TEMP              0 ****  ****    0 ROOT
