@<TRIPOS>MOLECULE
C37
   32    32     1     0     0
SMALL
bcc


@<TRIPOS>ATOM
      1 O3P        -4.9630    0.7130    3.3290 o         1 C37     -0.929500
      2 P          -3.5040    1.0610    3.5650 p5        1 C37      1.563500
      3 O1P        -3.1220    0.7140    4.9970 o         1 C37     -0.929500
      4 O2P        -3.2970    2.5330    3.3350 o         1 C37     -0.929500
      5 O5'        -2.5840    0.2270    2.5530 os        1 C37     -0.714000
      6 C5'        -1.1580    0.4500    2.5820 c3        1 C37      0.076000
      7 C4'        -0.4470   -0.6760    1.8190 c3        1 C37     -0.061000
      8 O4'        -0.6690   -0.5700    0.5570 os        1 C37     -0.298000
      9 C3'         1.1300   -0.5440    1.9750 c3        1 C37      0.044000
     10 O3'         1.6080   -1.5460    2.7520 oh        1 C37     -0.397000
     11 C2'         1.6810   -0.6520    0.5830 c3        1 C37     -0.207000
     12 C1'         0.6500   -1.0740   -0.1670 c3        1 C37      0.147000
     13 N1          0.7400   -0.5130   -1.4870 n         1 C37     -0.251000
     14 C2          1.9970   -0.5640   -2.2020 c2        1 C37      0.341000
     15 O2          2.9760   -1.0860   -1.6820 o         1 C37     -0.378000
     16 N3          2.1130    0.0500   -3.5400 n2        1 C37     -0.312000
     17 C4          0.9670    0.5110   -4.2020 c1        1 C37      0.183000
     18 N4          1.0900    1.1790   -5.4740 n2        1 C37     -0.338000
     19 C5         -0.3490    0.4290   -3.5340 c2        1 C37     -0.176000
     20 C6         -0.4380   -0.0860   -2.1590 c2        1 C37      0.080000
     21 F          -1.4960    0.7290   -4.2300 f         1 C37     -0.101000
     22 H5'1       -0.8520    0.4600    3.5070 h1        1 C37      0.034500
     23 H5'2       -0.9530    1.3080    2.1620 h1        1 C37      0.034500
     24 H4'        -0.7520   -1.5600    2.1470 h1        1 C37      0.118000
     25 H3'         1.3640    0.3330    2.3670 h1        1 C37      0.141000
     26 HA          2.2430   -1.2110    3.3330 ho        1 C37      0.300000
     27 H2'1        1.9970    0.2370    0.2670 hc        1 C37      0.094000
     28 H2'2        2.4410   -1.3290    0.5540 hc        1 C37      0.094000
     29 H1'         0.6510   -2.0570   -0.2190 h2        1 C37      0.125000
     30 H4N1        0.3550    1.4160   -5.9280 hn        1 C37      0.204500
     31 H4N2        1.9290    1.3340   -5.8370 hn        1 C37      0.204500
     32 H6         -1.3500   -0.2170   -1.7230 h4        1 C37      0.236000
@<TRIPOS>BOND
     1    1    2 1   
     2    2    3 1   
     3    2    4 1   
     4    2    5 1   
     5    5    6 1   
     6    6    7 1   
     7    6   22 1   
     8    6   23 1   
     9    7    8 1   
    10    7    9 1   
    11    7   24 1   
    12    8   12 1   
    13    9   10 1   
    14    9   11 1   
    15    9   25 1   
    16   10   26 1   
    17   11   12 1   
    18   11   27 1   
    19   11   28 1   
    20   12   13 1   
    21   12   29 1   
    22   13   14 1   
    23   13   20 1   
    24   14   15 1   
    25   14   16 1   
    26   16   17 1   
    27   17   19 1   
    28   18   30 1   
    29   18   31 1   
    30   19   20 1   
    31   19   21 1   
    32   20   32 1   
@<TRIPOS>SUBSTRUCTURE
     1 C37         1 TEMP              0 ****  ****    0 ROOT
