@<TRIPOS>MOLECULE
C37
   32    33     1     0     0
SMALL
bcc


@<TRIPOS>ATOM
      1 O3P         0.7240   -0.7990   -5.0830 o         1 C37     -0.929500
      2 P           0.6250   -0.1710   -3.7290 p5        1 C37      1.329900
      3 O1P         1.8820    0.3350   -3.0820 o         1 C37     -0.929500
      4 O2P        -0.5970    0.6820   -3.4490 o         1 C37     -0.929500
      5 O5'         0.2210   -1.5120   -2.6800 os        1 C37     -0.552200
      6 C5'         0.1710   -1.1730   -1.3590 c3        1 C37      0.226400
      7 C4'        -1.2960   -1.0560   -0.8770 c3        1 C37      0.050100
      8 O4'        -1.3940   -1.5110    0.5010 os        1 C37     -0.441600
      9 C3'        -1.8650    0.3750   -0.9410 c3        1 C37      0.155100
     10 O3'        -2.8760    0.4810   -1.9170 oh        1 C37     -0.669800
     11 C2'        -2.4890    0.6230    0.4400 c3        1 C37     -0.128400
     12 C1'        -1.9420   -0.5060    1.3360 c3        1 C37      0.295500
     13 N1         -0.9190   -0.0520    2.3090 n         1 C37     -0.358000
     14 C2         -1.3200    0.2890    3.6470 c         1 C37      0.822900
     15 O2         -2.5290    0.1940    3.9570 o         1 C37     -0.653500
     16 N3         -0.3710    0.7320    4.5830 nc        1 C37     -0.739100
     17 C4          0.9220    0.7820    4.2300 cd        1 C37      0.709500
     18 N4          1.8890    1.1300    5.1750 nh        1 C37     -0.899800
     19 C5          1.3570    0.4250    2.8810 cd        1 C37     -0.200100
     20 C6          0.3950    0.0190    1.9620 cc        1 C37      0.082600
     21 F           2.6660    0.4970    2.5380 f         1 C37     -0.163500
     22 H5'1        0.7140   -0.2010   -1.1710 h1        1 C37     -0.004800
     23 H5'2        0.6520   -1.9870   -0.7360 h1        1 C37     -0.004800
     24 H4'        -1.9400   -1.7610   -1.4680 h1        1 C37      0.078700
     25 H3'        -1.0490    1.1180   -1.1640 h1        1 C37      0.101700
     26 HA         -2.3970    0.5510   -2.7760 ho        1 C37      0.501000
     27 H2'1       -3.6020    0.5320    0.3850 hc        1 C37      0.054700
     28 H2'2       -2.2400    1.6400    0.8200 hc        1 C37      0.054700
     29 H1'        -2.7520   -0.9970    1.9530 h2        1 C37      0.085700
     30 H4N1        1.5740    1.6090    5.9870 hn        1 C37      0.409300
     31 H4N2        2.7400    1.4650    4.7830 hn        1 C37      0.409300
     32 H6          0.6680   -0.2630    0.9150 h4        1 C37      0.236000
@<TRIPOS>BOND
     1    1    2 1   
     2    2    3 1   
     3    2    4 1   
     4    2    5 1   
     5    5    6 1   
     6    6    7 1   
     7    6   22 1   
     8    6   23 1   
     9    7    8 1   
    10    7    9 1   
    11    7   24 1   
    12    8   12 1   
    13    9   10 1   
    14    9   11 1   
    15    9   25 1   
    16   10   26 1   
    17   11   12 1   
    18   11   27 1   
    19   11   28 1   
    20   12   13 1   
    21   12   29 1   
    22   13   14 1   
    23   13   20 1   
    24   14   15 2   
    25   14   16 1   
    26   16   17 2   
    27   17   18 1   
    28   17   19 1   
    29   18   30 1   
    30   18   31 1   
    31   19   20 2   
    32   19   21 1   
    33   20   32 1   
@<TRIPOS>SUBSTRUCTURE
     1 C37         1 TEMP              0 ****  ****    0 ROOT
