@<TRIPOS>MOLECULE
C38
   32    33     1     0     0
SMALL
bcc


@<TRIPOS>ATOM
      1 O3P         1.8390   -0.6750   -6.0080 o         1 C38     -0.925833
      2 P           0.8960   -0.1760   -4.9590 p5        1 C38      1.325900
      3 O1P         1.4010    0.8420   -3.9720 o         1 C38     -0.925833
      4 O2P        -0.5460    0.0600   -5.3540 o         1 C38     -0.925833
      5 O5'         0.6560   -1.5710   -3.9330 os        1 C38     -0.556200
      6 C5'         0.3590   -1.3090   -2.6260 c3        1 C38      0.209400
      7 C4'        -1.1670   -1.3640   -2.3730 c3        1 C38      0.053100
      8 O4'        -1.4240   -1.4830   -0.9500 os        1 C38     -0.445600
      9 C3'        -1.8870   -0.1010   -2.8870 c3        1 C38      0.123100
     10 O3'        -2.8530   -0.4300   -3.8620 oh        1 C38     -0.667800
     11 C2'        -2.5940    0.4980   -1.6690 c3        1 C38     -0.119400
     12 C1'        -2.1860   -0.3840   -0.4720 c3        1 C38      0.291500
     13 N1         -1.4140    0.3350    0.5690 n         1 C38     -0.358000
     14 C2         -2.0800    0.7700    1.7720 c         1 C38      0.827900
     15 O2         -3.3040    0.5400    1.9010 o         1 C38     -0.652500
     16 N3         -1.3640    1.4500    2.7670 nc        1 C38     -0.754100
     17 C4         -0.0420    1.6390    2.6040 cd        1 C38      0.750500
     18 N4          0.6790    2.2410    3.6380 nh        1 C38     -0.904800
     19 C5          0.6610    1.1960    1.4160 cd        1 C38     -0.337800
     20 C6         -0.0820    0.5570    0.4310 cc        1 C38      0.148600
     21 I           2.6330    1.4620    1.1650 i         1 C38     -0.117800
     22 H5'1        0.7540   -0.2950   -2.3240 h1        1 C38      0.000700
     23 H5'2        0.8270   -2.0980   -1.9660 h1        1 C38      0.000700
     24 H4'        -1.6040   -2.2890   -2.8310 h1        1 C38      0.068700
     25 H3'        -1.1120    0.5920   -3.3530 h1        1 C38      0.150700
     26 HA         -2.3680   -0.4050   -4.7170 ho        1 C38      0.489000
     27 H2'1       -3.7040    0.4500   -1.7950 hc        1 C38      0.056200
     28 H2'2       -2.3030    1.5670   -1.5360 hc        1 C38      0.056200
     29 H1'        -3.0830   -0.8190    0.0610 h2        1 C38      0.086700
     30 H4N1        0.1520    2.7220    4.3300 hn        1 C38      0.408800
     31 H4N2        1.5210    2.6920    3.3570 hn        1 C38      0.408800
     32 H6          0.3850    0.1960   -0.5220 h4        1 C38      0.236000
@<TRIPOS>BOND
     1    1    2 1   
     2    2    3 1   
     3    2    4 1   
     4    2    5 1   
     5    5    6 1   
     6    6    7 1   
     7    6   22 1   
     8    6   23 1   
     9    7    8 1   
    10    7    9 1   
    11    7   24 1   
    12    8   12 1   
    13    9   10 1   
    14    9   11 1   
    15    9   25 1   
    16   10   26 1   
    17   11   12 1   
    18   11   27 1   
    19   11   28 1   
    20   12   13 1   
    21   12   29 1   
    22   13   14 1   
    23   13   20 1   
    24   14   15 2   
    25   14   16 1   
    26   16   17 2   
    27   17   18 1   
    28   17   19 1   
    29   18   30 1   
    30   18   31 1   
    31   19   20 2   
    32   19   21 1   
    33   20   32 1   
@<TRIPOS>SUBSTRUCTURE
     1 C38         1 TEMP              0 ****  ****    0 ROOT
