@<TRIPOS>MOLECULE
C38
   32    32     1     0     0
SMALL
bcc


@<TRIPOS>ATOM
      1 O3P        -0.8500    3.8510    0.7460 o         1 C38     -0.922833
      2 P           0.4700    3.6560    1.4540 p5        1 C38      1.557500
      3 O1P         0.2180    3.3270    2.9070 o         1 C38     -0.922833
      4 O2P         1.2840    4.9250    1.3600 o         1 C38     -0.922833
      5 O5'         1.2620    2.4710    0.7750 os        1 C38     -0.739000
      6 C5'         0.6790    1.1920    0.7700 c3        1 C38      0.054000
      7 C4'         1.7240    0.1600    1.1330 c3        1 C38     -0.050000
      8 O4'         1.0290   -1.2810    1.3460 os        1 C38     -0.298000
      9 C3'         2.5610    0.0200    0.1640 c3        1 C38      0.011000
     10 O3'         3.9000   -0.3420    0.6900 oh        1 C38     -0.390000
     11 C2'         1.9850   -1.1500   -0.7030 c3        1 C38     -0.197000
     12 C1'         0.8730   -1.7890    0.1560 c3        1 C38      0.145000
     13 N1         -0.4220   -1.4450   -0.3680 n         1 C38     -0.257000
     14 C2         -0.6600   -1.4840   -1.8110 c2        1 C38      0.343000
     15 O2          0.2310   -1.8220   -2.5630 o         1 C38     -0.397000
     16 N3         -1.9720   -1.1310   -2.3460 n2        1 C38     -0.334000
     17 C4         -3.0620   -0.9130   -1.4660 c1        1 C38      0.219000
     18 N4         -4.3730   -0.7580   -1.9850 n2        1 C38     -0.344000
     19 C5         -2.8430   -0.9220   -0.0130 c2        1 C38     -0.521000
     20 C6         -1.4950   -1.1670    0.5200 c2        1 C38      0.140000
     21 I          -4.4830   -0.7670    1.3010 i         1 C38      0.170000
     22 H5'1       -0.0500    1.1630    1.4250 h1        1 C38      0.054000
     23 H5'2        0.3240    0.9980   -0.1220 h1        1 C38      0.054000
     24 H4'         2.1940    0.4290    1.9450 h1        1 C38      0.079000
     25 H3'         2.6130    0.8410   -0.3640 h1        1 C38      0.191000
     26 HA          4.5250   -0.0800    0.1150 ho        1 C38      0.282000
     27 H2'1        2.6850   -1.8070   -0.8940 hc        1 C38      0.091000
     28 H2'2        1.6110   -0.8020   -1.5350 hc        1 C38      0.091000
     29 H1'         0.9820   -2.7610    0.1840 h2        1 C38      0.125000
     30 H4N1       -4.5170   -0.8100   -2.8860 hn        1 C38      0.201000
     31 H4N2       -5.0750   -0.6030   -1.4170 hn        1 C38      0.201000
     32 H6         -1.3500   -1.1980    1.4840 h4        1 C38      0.285000
@<TRIPOS>BOND
     1    1    2 1   
     2    2    3 1   
     3    2    4 1   
     4    2    5 1   
     5    5    6 1   
     6    6    7 1   
     7    6   22 1   
     8    6   23 1   
     9    7    8 1   
    10    7    9 1   
    11    7   24 1   
    12    8   12 1   
    13    9   10 1   
    14    9   11 1   
    15    9   25 1   
    16   10   26 1   
    17   11   12 1   
    18   11   27 1   
    19   11   28 1   
    20   12   13 1   
    21   12   29 1   
    22   13   14 1   
    23   13   20 1   
    24   14   15 1   
    25   14   16 1   
    26   16   17 1   
    27   17   19 1   
    28   18   30 1   
    29   18   31 1   
    30   19   20 1   
    31   19   21 1   
    32   20   32 1   
@<TRIPOS>SUBSTRUCTURE
     1 C38         1 TEMP              0 ****  ****    0 ROOT
