@<TRIPOS>MOLECULE
C39
   85    85     1     0     0
SMALL
bcc


@<TRIPOS>ATOM
      1 C1          1.6250    0.8780   -1.8750 c3        1 C39      0.112700
      2 O2          2.8960    0.6160   -1.2930 os        1 C39     -0.430600
      3 C3          2.8530    0.6130    0.1310 c3        1 C39      0.131400
      4 C4          4.2620    0.2660    0.5850 c3        1 C39     -0.092400
      5 C5          4.3480    0.3440    2.0960 c3        1 C39      0.131400
      6 O6          5.7200   -0.0080    2.4050 os        1 C39     -0.334900
      7 C7          6.0690   -0.0680    3.7170 ca        1 C39      0.252100
      8 C8          5.2350    0.3080    4.7910 ca        1 C39     -0.206000
      9 C9          5.7130    0.2500    6.0880 ca        1 C39      0.004000
     10 C10         7.0310   -0.1780    6.3490 ca        1 C39     -0.142000
     11 C11         7.8580   -0.5510    5.3100 ca        1 C39     -0.074000
     12 C12         7.3940   -0.5110    3.9750 ca        1 C39     -0.281600
     13 C13         8.1900   -0.9790    2.8630 c         1 C39      0.617700
     14 O14         7.9170   -1.6000    1.8530 o         1 C39     -0.416100
     15 N15         9.7070   -0.6100    2.9790 ny        1 C39     -0.697800
     16 C16        10.3280   -0.3620    1.6560 c3        1 C39      0.098800
     17 C17        11.8670   -0.3510    1.6390 c3        1 C39     -0.084700
     18 C18        12.4380    0.6470    2.6550 c3        1 C39     -0.083700
     19 C19        13.9500    0.5810    2.7210 c3        1 C39     -0.110100
     20 C20        11.9830    2.0710    2.4120 c3        1 C39     -0.110100
     21 C21        12.3160   -0.0640    0.2040 c3        1 C39     -0.114400
     22 C22        13.0730   -1.2140   -0.4760 c3        1 C39      0.094500
     23 N23        14.4260   -1.4230    0.1410 nz        1 C39     -0.842600
     24 C24        13.2090   -0.9230   -2.0070 c3        1 C39      0.115100
     25 O25        14.2710   -0.0090   -2.2040 oh        1 C39     -0.609800
     26 C26        13.5290   -2.2020   -2.7860 c3        1 C39     -0.088400
     27 C27        13.8110   -1.9550   -4.2690 c3        1 C39     -0.129700
     28 C28        14.5910   -3.1170   -4.8520 c3        1 C39     -0.132100
     29 C29        12.5180   -1.6930   -5.0160 c         1 C39      0.538100
     30 O30        11.4740   -1.2960   -4.5160 o         1 C39     -0.430100
     31 N31        12.5360   -1.9100   -6.5030 ny        1 C39     -0.670800
     32 C32        11.2720   -1.4880   -7.1980 c3        1 C39      0.107800
     33 C33        11.3370   -1.7380   -8.7000 c3        1 C39     -0.113400
     34 C34        10.0310   -1.2860   -9.3320 c3        1 C39     -0.074400
     35 C35        10.0580   -1.5180  -10.8220 c3        1 C39     -0.104100
     36 H1C1        1.8190    0.8510   -2.9760 h1        1 C39      0.047033
     37 H1C2        0.8900    0.0890   -1.5840 h1        1 C39      0.047033
     38 H1C3        1.2530    1.8860   -1.5650 h1        1 C39      0.047033
     39 H3C1        2.1130   -0.1520    0.4910 h1        1 C39      0.040200
     40 H3C2        2.5460    1.6270    0.5020 h1        1 C39      0.040200
     41 H4C1        4.5270   -0.7660    0.2360 hc        1 C39      0.068700
     42 H4C2        4.9920    0.9770    0.1200 hc        1 C39      0.068700
     43 H5C1        3.6630   -0.3930    2.5910 h1        1 C39      0.067200
     44 H5C2        4.1490    1.3820    2.4700 h1        1 C39      0.067200
     45 H8          4.2020    0.6410    4.5970 ha        1 C39      0.182000
     46 H9          5.0600    0.5380    6.9320 ha        1 C39      0.184000
     47 H10         7.3880   -0.2250    7.3920 ha        1 C39      0.178000
     48 H11         8.8690   -0.9210    5.5360 ha        1 C39      0.124000
     49 H15        10.1850   -1.3800    3.4530 hn        1 C39      0.452300
     50 H161        9.9360    0.6300    1.2820 hx        1 C39      0.116200
     51 H162        9.9630   -1.1700    0.9530 hx        1 C39      0.116200
     52 H17        12.2210   -1.3780    1.9440 hc        1 C39      0.047700
     53 H18        12.0690    0.3370    3.6770 hc        1 C39      0.056700
     54 H211       12.9480    0.8670    0.1760 hc        1 C39      0.098700
     55 H212       11.4160    0.1490   -0.4400 hc        1 C39      0.098700
     56 H191       14.2940   -0.4500    2.9830 hc        1 C39      0.056033
     57 H192       14.3190    1.2700    3.5250 hc        1 C39      0.056033
     58 H193       14.4200    0.9080    1.7630 hc        1 C39      0.056033
     59 H201       10.8740    2.1620    2.5100 hc        1 C39      0.056033
     60 H202       12.4510    2.7520    3.1680 hc        1 C39      0.056033
     61 H203       12.2800    2.4320    1.3980 hc        1 C39      0.056033
     62 H22        12.4940   -2.1770   -0.3450 hx        1 C39      0.116700
     63 H231       15.0690   -0.6910   -0.2040 hn        1 C39      0.473800
     64 H232       14.8010   -2.3380   -0.1240 hn        1 C39      0.473800
     65 H24        12.2250   -0.5070   -2.3670 h1        1 C39      0.104700
     66 H25        13.9020    0.8800   -2.3010 ho        1 C39      0.452000
     67 H261       14.4450   -2.6870   -2.3530 hc        1 C39      0.080700
     68 H262       12.6690   -2.9140   -2.6720 hc        1 C39      0.080700
     69 H27        14.4320   -1.0100   -4.3600 hc        1 C39      0.132700
     70 H281       13.9720   -4.0460   -4.8940 hc        1 C39      0.079367
     71 H282       14.9800   -2.8800   -5.8730 hc        1 C39      0.079367
     72 H283       15.4870   -3.3300   -4.2140 hc        1 C39      0.079367
     73 H31        13.3290   -1.3930   -6.9060 hn        1 C39      0.470300
     74 H321       11.1160   -0.3910   -6.9870 hx        1 C39      0.114700
     75 H322       10.4180   -2.0650   -6.7390 hx        1 C39      0.114700
     76 H331       11.4930   -2.8280   -8.9140 hc        1 C39      0.073200
     77 H332       12.1870   -1.1680   -9.1610 hc        1 C39      0.073200
     78 H341        9.8680   -0.1960   -9.1230 hc        1 C39      0.057200
     79 H342        9.1760   -1.8510   -8.8770 hc        1 C39      0.057200
     80 H351       10.1940   -2.6010  -11.0560 hc        1 C39      0.059700
     81 H352       10.8870   -0.9430  -11.3020 hc        1 C39      0.059700
     82 H353        9.0920   -1.1810  -11.2730 hc        1 C39      0.059700
     83 H152        9.7880    0.2280    3.5660 hn        1 C39      0.452300
     84 H233       14.3660   -1.3550    1.1650 hn        1 C39      0.473800
     85 H312       12.6960   -2.9130   -6.6830 hn        1 C39      0.470300
@<TRIPOS>BOND
     1    1    2 1   
     2    1   36 1   
     3    1   37 1   
     4    1   38 1   
     5    2    3 1   
     6    3    4 1   
     7    3   39 1   
     8    3   40 1   
     9    4    5 1   
    10    4   41 1   
    11    4   42 1   
    12    5    6 1   
    13    5   43 1   
    14    5   44 1   
    15    6    7 1   
    16    7    8 ar  
    17    7   12 ar  
    18    8    9 ar  
    19    8   45 1   
    20    9   10 ar  
    21    9   46 1   
    22   10   11 ar  
    23   10   47 1   
    24   11   12 ar  
    25   11   48 1   
    26   12   13 1   
    27   13   14 2   
    28   13   15 1   
    29   15   16 1   
    30   15   49 1   
    31   15   83 1   
    32   16   17 1   
    33   16   50 1   
    34   16   51 1   
    35   17   18 1   
    36   17   21 1   
    37   17   52 1   
    38   18   19 1   
    39   18   20 1   
    40   18   53 1   
    41   19   56 1   
    42   19   57 1   
    43   19   58 1   
    44   20   59 1   
    45   20   60 1   
    46   20   61 1   
    47   21   22 1   
    48   21   54 1   
    49   21   55 1   
    50   22   23 1   
    51   22   24 1   
    52   22   62 1   
    53   23   63 1   
    54   23   64 1   
    55   23   84 1   
    56   24   25 1   
    57   24   26 1   
    58   24   65 1   
    59   25   66 1   
    60   26   27 1   
    61   26   67 1   
    62   26   68 1   
    63   27   28 1   
    64   27   29 1   
    65   27   69 1   
    66   28   70 1   
    67   28   71 1   
    68   28   72 1   
    69   29   30 2   
    70   29   31 1   
    71   31   32 1   
    72   31   73 1   
    73   31   85 1   
    74   32   33 1   
    75   32   74 1   
    76   32   75 1   
    77   33   34 1   
    78   33   76 1   
    79   33   77 1   
    80   34   35 1   
    81   34   78 1   
    82   34   79 1   
    83   35   80 1   
    84   35   81 1   
    85   35   82 1   
@<TRIPOS>SUBSTRUCTURE
     1 C39         1 TEMP              0 ****  ****    0 ROOT
