@<TRIPOS>MOLECULE
C39
   82    80     1     0     0
SMALL
bcc


@<TRIPOS>ATOM
      1 C1         -9.7890    7.7060   -0.2270 c3        1 C39     -0.074000
      2 O2         -8.7220    6.7530   -0.3400 os        1 C39     -0.272000
      3 C3         -8.5470    5.9330    0.8240 c3        1 C39     -0.020000
      4 C4         -7.3700    4.9330    0.5860 c3        1 C39     -0.172000
      5 C5         -7.0430    4.2030    1.8960 c3        1 C39     -0.017000
      6 O6         -5.9050    3.4280    1.7230 os        1 C39     -0.224000
      7 C7         -5.4490    2.8150    2.9080 c2        1 C39      0.110000
      8 C8         -6.2630    2.7910    4.0360 c1        1 C39     -0.213000
      9 C9         -5.8480    2.1090    5.1840 c1        1 C39     -0.125000
     10 C10        -4.6140    1.4510    5.1990 c1        1 C39     -0.125000
     11 C11        -3.7980    1.4760    4.0690 c1        1 C39     -0.051000
     12 C12        -4.2120    2.1570    2.9230 c2        1 C39     -0.143000
     13 C13        -3.3220    2.1500    1.6520 c2        1 C39      0.352000
     14 O14        -3.7000    2.7200    0.6390 o         1 C39     -0.383000
     15 N15        -2.0600    1.4270    1.6520 n         1 C39     -0.360000
     16 C16        -1.3160    1.2780    0.4310 c3        1 C39     -0.028000
     17 C17         0.1750    1.0210    0.7660 c3        1 C39     -0.109000
     18 C18         0.7750    2.2600    1.3300 c3        1 C39     -0.105000
     19 C19         1.8600    1.8830    2.3640 c3        1 C39     -0.208500
     20 C20         1.4120    3.0860    0.1920 c3        1 C39     -0.208500
     21 C21         0.9230    0.6280   -0.4970 c3        1 C39     -0.147000
     22 C22         1.2700   -0.8910   -0.4470 c3        1 C39     -0.022000
     23 N23         1.7230   -1.2260    0.8300 n3        1 C39     -0.328000
     24 C24         2.3550   -1.1960   -1.4620 c3        1 C39     -0.019000
     25 O25         3.4960   -0.4700   -1.1500 oh        1 C39     -0.332000
     26 C26         2.6800   -2.6960   -1.4340 c3        1 C39     -0.196000
     27 C27         4.0680   -2.9280   -2.0370 c3        1 C39     -0.125000
     28 C28         5.1220   -2.7020   -0.9790 c3        1 C39     -0.216000
     29 C29         4.1630   -4.3410   -2.5450 c2        1 C39      0.298000
     30 O30         3.2030   -5.0770   -2.4710 o         1 C39     -0.362000
     31 N31         5.3690   -4.7950   -3.1880 n         1 C39     -0.375000
     32 C32         5.7120   -6.2090   -3.1790 c3        1 C39     -0.034000
     33 C33         7.1800   -6.3850   -3.6390 c3        1 C39     -0.184000
     34 C34         7.6060   -7.8540   -3.4570 c3        1 C39     -0.157000
     35 C35         9.0130   -8.0390   -3.9820 c3        1 C39     -0.211000
     36 H1C1       -9.8180    8.0620    0.7010 h1        1 C39      0.073000
     37 H1C2       -9.6370    8.4420   -0.8550 h1        1 C39      0.073000
     38 H1C3      -10.6400    7.2690   -0.4360 h1        1 C39      0.073000
     39 H3C1       -8.3410    6.5030    1.6000 h1        1 C39      0.065500
     40 H3C2       -9.3730    5.4310    0.9980 h1        1 C39      0.065500
     41 H4C1       -6.5790    5.4260    0.2810 hc        1 C39      0.114500
     42 H4C2       -7.6310    4.2750   -0.1010 hc        1 C39      0.114500
     43 H5C1       -6.8870    4.8560    2.6010 h1        1 C39      0.081000
     44 H5C2       -7.8010    3.6230    2.1470 h1        1 C39      0.081000
     45 H8         -7.1330    3.2540    4.0250 ha        1 C39      0.139000
     46 H9         -6.4270    2.0920    5.9860 ha        1 C39      0.136500
     47 H10        -4.3230    0.9740    6.0030 ha        1 C39      0.136500
     48 H11        -2.9250    1.0110    4.0800 ha        1 C39      0.158000
     49 H15        -1.7730    1.0170    2.4100 hn        1 C39      0.235000
     50 H161       -1.3960    2.0960   -0.1030 h1        1 C39      0.091500
     51 H162       -1.6740    0.5170   -0.0800 h1        1 C39      0.091500
     52 H17         0.2420    0.2990    1.4220 hc        1 C39      0.111000
     53 H18         0.0750    2.7930    1.7700 hc        1 C39      0.095000
     54 H211        1.7550    1.1520   -0.5630 hc        1 C39      0.090500
     55 H212        0.3680    0.8060   -1.2700 hc        1 C39      0.090500
     56 H191        1.5760    1.0860    2.8610 hc        1 C39      0.072500
     57 H192        2.7110    1.6940    1.8960 hc        1 C39      0.072500
     58 H193        1.9890    2.6280    2.9890 hc        1 C39      0.072500
     59 H201        1.5320    4.0100    0.4870 hc        1 C39      0.072500
     60 H202        0.8220    3.0680   -0.5960 hc        1 C39      0.072500
     61 H203        2.2910    2.6990   -0.0450 hc        1 C39      0.072500
     62 H22         0.4650   -1.4190   -0.6580 h1        1 C39      0.105000
     63 H231        2.3840   -1.8660    0.7630 hn        1 C39      0.148000
     64 H232        1.0210   -1.5600    1.3290 hn        1 C39      0.148000
     65 H24         2.0470   -0.9480   -2.3480 h1        1 C39      0.079000
     66 H25         3.7920   -0.0610   -1.8740 ho        1 C39      0.198000
     67 H261        2.0100   -3.1860   -1.9570 hc        1 C39      0.114500
     68 H262        2.6700   -3.0160   -0.5040 hc        1 C39      0.114500
     69 H27         4.2100   -2.3030   -2.7790 hc        1 C39      0.100000
     70 H281        5.3480   -3.5650   -0.5480 hc        1 C39      0.083667
     71 H282        4.7810   -2.0820   -0.3080 hc        1 C39      0.083667
     72 H283        5.9340   -2.3200   -1.3990 hc        1 C39      0.083667
     73 H31         5.9180   -4.1990   -3.5870 hn        1 C39      0.215000
     74 H321        5.1150   -6.6960   -3.7940 h1        1 C39      0.103000
     75 H322        5.6080   -6.5660   -2.2720 h1        1 C39      0.103000
     76 H331        7.7640   -5.8070   -3.1000 hc        1 C39      0.082500
     77 H332        7.2590   -6.1360   -4.5910 hc        1 C39      0.082500
     78 H341        6.9960   -8.4330   -3.9510 hc        1 C39      0.082000
     79 H342        7.5790   -8.0850   -2.5110 hc        1 C39      0.082000
     80 H351        9.0750   -7.6670   -4.8870 hc        1 C39      0.073333
     81 H352        9.2290   -8.9920   -4.0060 hc        1 C39      0.073333
     82 H353        9.6440   -7.5760   -3.3960 hc        1 C39      0.073333
@<TRIPOS>BOND
     1    1    2 1   
     2    1   36 1   
     3    1   37 1   
     4    1   38 1   
     5    2    3 1   
     6    3    4 1   
     7    3   39 1   
     8    3   40 1   
     9    4    5 1   
    10    4   41 1   
    11    4   42 1   
    12    5    6 1   
    13    5   43 1   
    14    5   44 1   
    15    6    7 1   
    16    7    8 1   
    17    7   12 1   
    18    8   45 1   
    19    9   10 1   
    20    9   46 1   
    21   10   47 1   
    22   11   12 1   
    23   11   48 1   
    24   12   13 1   
    25   13   14 1   
    26   13   15 1   
    27   15   16 1   
    28   15   49 1   
    29   16   17 1   
    30   16   50 1   
    31   16   51 1   
    32   17   18 1   
    33   17   21 1   
    34   17   52 1   
    35   18   19 1   
    36   18   20 1   
    37   18   53 1   
    38   19   56 1   
    39   19   57 1   
    40   19   58 1   
    41   20   59 1   
    42   20   60 1   
    43   20   61 1   
    44   21   22 1   
    45   21   54 1   
    46   21   55 1   
    47   22   23 1   
    48   22   24 1   
    49   22   62 1   
    50   23   63 1   
    51   23   64 1   
    52   24   25 1   
    53   24   26 1   
    54   24   65 1   
    55   25   66 1   
    56   26   27 1   
    57   26   67 1   
    58   26   68 1   
    59   27   28 1   
    60   27   29 1   
    61   27   69 1   
    62   28   70 1   
    63   28   71 1   
    64   28   72 1   
    65   29   30 1   
    66   29   31 1   
    67   31   32 1   
    68   31   73 1   
    69   32   33 1   
    70   32   74 1   
    71   32   75 1   
    72   33   34 1   
    73   33   76 1   
    74   33   77 1   
    75   34   35 1   
    76   34   78 1   
    77   34   79 1   
    78   35   80 1   
    79   35   81 1   
    80   35   82 1   
@<TRIPOS>SUBSTRUCTURE
     1 C39         1 TEMP              0 ****  ****    0 ROOT
