@<TRIPOS>MOLECULE
C39
   82    82     1     0     0
SMALL
bcc


@<TRIPOS>ATOM
      1 C1          3.5740    5.5340    2.6570 c3        1 C39      0.115700
      2 O2          3.2360    4.2910    2.0670 os        1 C39     -0.416600
      3 C3          4.3830    3.5320    1.6930 c3        1 C39      0.130400
      4 C4          3.8650    2.2620    1.0450 c3        1 C39     -0.092400
      5 C5          5.0340    1.3590    0.6940 c3        1 C39      0.133400
      6 O6          4.4560    0.1990    0.0790 os        1 C39     -0.342900
      7 C7          5.3390   -0.6580   -0.5470 ca        1 C39      0.155100
      8 C8          6.7180   -0.6480   -0.2870 ca        1 C39     -0.212000
      9 C9          7.5520   -1.5590   -0.9300 ca        1 C39     -0.077000
     10 C10         7.0240   -2.4770   -1.8370 ca        1 C39     -0.171000
     11 C11         5.6570   -2.4830   -2.1000 ca        1 C39     -0.052000
     12 C12         4.7940   -1.5850   -1.4600 ca        1 C39     -0.165600
     13 C13         3.3500   -1.6710   -1.8340 c         1 C39      0.681700
     14 O14         3.0200   -1.9660   -3.0040 o         1 C39     -0.621100
     15 N15         2.4050   -1.4740   -0.8540 n         1 C39     -0.558900
     16 C16         0.9930   -1.5410   -1.1060 c3        1 C39      0.090000
     17 C17         0.3030   -2.8000   -0.5390 c3        1 C39     -0.076700
     18 C18         0.5550   -4.0020   -1.4560 c3        1 C39     -0.066700
     19 C19         0.4190   -5.3020   -0.6900 c3        1 C39     -0.089600
     20 C20        -0.3470   -4.0160   -2.6720 c3        1 C39     -0.089600
     21 C21        -1.1810   -2.5310   -0.3540 c3        1 C39     -0.113400
     22 C22        -1.5210   -1.6950    0.8910 c3        1 C39      0.132500
     23 N23        -1.2030   -2.3140    2.1650 n3        1 C39     -0.907800
     24 C24        -3.0250   -1.3120    0.8050 c3        1 C39      0.143100
     25 O25        -3.8640   -2.4400    0.9920 oh        1 C39     -0.603800
     26 C26        -3.3540   -0.1870    1.7790 c3        1 C39     -0.099400
     27 C27        -4.7750    0.3200    1.5850 c3        1 C39     -0.137700
     28 C28        -5.2080    1.1580    2.7690 c3        1 C39     -0.092100
     29 C29        -4.8800    1.1520    0.3060 c         1 C39      0.659100
     30 O30        -3.8730    1.6010   -0.2780 o         1 C39     -0.614100
     31 N31        -6.1500    1.3590   -0.1970 n         1 C39     -0.568900
     32 C32        -6.4120    2.2020   -1.3310 c3        1 C39      0.085000
     33 C33        -7.1710    3.4890   -1.0020 c3        1 C39     -0.104400
     34 C34        -7.4360    4.2710   -2.2700 c3        1 C39     -0.078400
     35 C35        -8.1840    5.5480   -1.9820 c3        1 C39     -0.093100
     36 H1C1        2.5890    6.0060    2.8940 h1        1 C39      0.034367
     37 H1C2        4.1700    5.3790    3.5900 h1        1 C39      0.034367
     38 H1C3        4.1510    6.1680    1.9380 h1        1 C39      0.034367
     39 H3C1        5.0110    4.1250    0.9750 h1        1 C39      0.026700
     40 H3C2        4.9940    3.3010    2.6070 h1        1 C39      0.026700
     41 H4C1        3.1670    1.7340    1.7440 hc        1 C39      0.073700
     42 H4C2        3.2810    2.5140    0.1220 hc        1 C39      0.073700
     43 H5C1        5.7360    1.8620   -0.0210 h1        1 C39      0.042700
     44 H5C2        5.5900    1.0430    1.6150 h1        1 C39      0.042700
     45 H8          7.1490    0.0710    0.4240 ha        1 C39      0.139000
     46 H9          8.6320   -1.5500   -0.7190 ha        1 C39      0.135000
     47 H10         7.6850   -3.1910   -2.3490 ha        1 C39      0.140000
     48 H11         5.2320   -3.1900   -2.8330 ha        1 C39      0.160000
     49 H15         2.6990   -1.1990    0.0530 hn        1 C39      0.321500
     50 H161        0.5150   -0.6280   -0.6460 h1        1 C39      0.062700
     51 H162        0.8170   -1.5030   -2.2200 h1        1 C39      0.062700
     52 H17         0.7610   -3.0450    0.4610 hc        1 C39      0.038700
     53 H18         1.6200   -3.9250   -1.8250 hc        1 C39      0.063700
     54 H211       -1.5690   -1.9950   -1.2610 hc        1 C39      0.058200
     55 H212       -1.7360   -3.5060   -0.2860 hc        1 C39      0.058200
     56 H191       -0.6110   -5.4130   -0.2720 hc        1 C39      0.033700
     57 H192        0.6180   -6.1670   -1.3670 hc        1 C39      0.033700
     58 H193        1.1490   -5.3390    0.1540 hc        1 C39      0.033700
     59 H201       -0.3030   -3.0380   -3.2070 hc        1 C39      0.033700
     60 H202       -0.0180   -4.8180   -3.3770 hc        1 C39      0.033700
     61 H203       -1.4080   -4.2180   -2.3850 hc        1 C39      0.033700
     62 H22        -0.9390   -0.7270    0.8430 h1        1 C39      0.065700
     63 H231       -1.6160   -3.2260    2.2200 hn        1 C39      0.346800
     64 H232       -0.2110   -2.4070    2.2660 hn        1 C39      0.346800
     65 H24        -3.2490   -0.9750   -0.2490 h1        1 C39      0.088700
     66 H25        -3.8570   -2.6590    1.9310 ho        1 C39      0.399000
     67 H261       -3.2350   -0.5530    2.8330 hc        1 C39      0.069200
     68 H262       -2.6300    0.6550    1.6190 hc        1 C39      0.069200
     69 H27        -5.4530   -0.5780    1.4910 hc        1 C39      0.075700
     70 H281       -6.2640    1.5000    2.6490 hc        1 C39      0.042033
     71 H282       -5.1380    0.5560    3.7080 hc        1 C39      0.042033
     72 H283       -4.5520    2.0550    2.8750 hc        1 C39      0.042033
     73 H31        -6.9290    1.0820    0.3490 hn        1 C39      0.304500
     74 H321       -5.4300    2.4680   -1.8190 h1        1 C39      0.062200
     75 H322       -7.0200    1.6060   -2.0720 h1        1 C39      0.062200
     76 H331       -8.1440    3.2480   -0.4990 hc        1 C39      0.042700
     77 H332       -6.5730    4.1160   -0.2900 hc        1 C39      0.042700
     78 H341       -6.4610    4.5110   -2.7720 hc        1 C39      0.042200
     79 H342       -8.0290    3.6400   -2.9840 hc        1 C39      0.042200
     80 H351       -7.5970    6.2010   -1.2920 hc        1 C39      0.033700
     81 H352       -8.3690    6.1100   -2.9280 hc        1 C39      0.033700
     82 H353       -9.1690    5.3290   -1.5030 hc        1 C39      0.033700
@<TRIPOS>BOND
     1    1    2 1   
     2    1   36 1   
     3    1   37 1   
     4    1   38 1   
     5    2    3 1   
     6    3    4 1   
     7    3   39 1   
     8    3   40 1   
     9    4    5 1   
    10    4   41 1   
    11    4   42 1   
    12    5    6 1   
    13    5   43 1   
    14    5   44 1   
    15    6    7 1   
    16    7    8 ar  
    17    7   12 ar  
    18    8    9 ar  
    19    8   45 1   
    20    9   10 ar  
    21    9   46 1   
    22   10   11 ar  
    23   10   47 1   
    24   11   12 ar  
    25   11   48 1   
    26   12   13 1   
    27   13   14 2   
    28   13   15 1   
    29   15   16 1   
    30   15   49 1   
    31   16   17 1   
    32   16   50 1   
    33   16   51 1   
    34   17   18 1   
    35   17   21 1   
    36   17   52 1   
    37   18   19 1   
    38   18   20 1   
    39   18   53 1   
    40   19   56 1   
    41   19   57 1   
    42   19   58 1   
    43   20   59 1   
    44   20   60 1   
    45   20   61 1   
    46   21   22 1   
    47   21   54 1   
    48   21   55 1   
    49   22   23 1   
    50   22   24 1   
    51   22   62 1   
    52   23   63 1   
    53   23   64 1   
    54   24   25 1   
    55   24   26 1   
    56   24   65 1   
    57   25   66 1   
    58   26   27 1   
    59   26   67 1   
    60   26   68 1   
    61   27   28 1   
    62   27   29 1   
    63   27   69 1   
    64   28   70 1   
    65   28   71 1   
    66   28   72 1   
    67   29   30 2   
    68   29   31 1   
    69   31   32 1   
    70   31   73 1   
    71   32   33 1   
    72   32   74 1   
    73   32   75 1   
    74   33   34 1   
    75   33   76 1   
    76   33   77 1   
    77   34   35 1   
    78   34   78 1   
    79   34   79 1   
    80   35   80 1   
    81   35   81 1   
    82   35   82 1   
@<TRIPOS>SUBSTRUCTURE
     1 C39         1 TEMP              0 ****  ****    0 ROOT
