@<TRIPOS>MOLECULE
C39
   85    85     1     0     0
SMALL
bcc


@<TRIPOS>ATOM
      1 C1          1.6290    0.8560   -1.8850 c3        1 C39      0.112700
      2 O2          2.8990    0.5990   -1.3010 os        1 C39     -0.430600
      3 C3          2.8560    0.6060    0.1220 c3        1 C39      0.131400
      4 C4          4.2650    0.2640    0.5790 c3        1 C39     -0.092400
      5 C5          4.3510    0.3520    2.0890 c3        1 C39      0.131400
      6 O6          5.7230    0.0030    2.4010 os        1 C39     -0.334900
      7 C7          6.0720   -0.0490    3.7140 ca        1 C39      0.252100
      8 C8          5.2370    0.3340    4.7850 ca        1 C39     -0.206000
      9 C9          5.7150    0.2840    6.0820 ca        1 C39      0.004000
     10 C10         7.0330   -0.1420    6.3460 ca        1 C39     -0.142000
     11 C11         7.8600   -0.5210    5.3100 ca        1 C39     -0.074000
     12 C12         7.3970   -0.4900    3.9740 ca        1 C39     -0.281600
     13 C13         8.1930   -0.9650    2.8660 c         1 C39      0.617700
     14 O14         7.9200   -1.5910    1.8590 o         1 C39     -0.416100
     15 N15         9.7100   -0.5980    2.9810 n4        1 C39     -0.697800
     16 C16        10.3310   -0.3540    1.6570 c3        1 C39      0.098800
     17 C17        11.8710   -0.3490    1.6400 c3        1 C39     -0.084700
     18 C18        12.4460    0.6480    2.6530 c3        1 C39     -0.083700
     19 C19        13.9580    0.5750    2.7200 c3        1 C39     -0.110100
     20 C20        11.9980    2.0740    2.4080 c3        1 C39     -0.110100
     21 C21        12.3200   -0.0670    0.2040 c3        1 C39     -0.114400
     22 C22        13.0710   -1.2220   -0.4740 c3        1 C39      0.094500
     23 N23        14.4250   -1.4360    0.1430 n4        1 C39     -0.842600
     24 C24        13.2080   -0.9340   -2.0060 c3        1 C39      0.115100
     25 O25        14.2750   -0.0260   -2.2050 oh        1 C39     -0.609800
     26 C26        13.5210   -2.2160   -2.7820 c3        1 C39     -0.088400
     27 C27        13.8040   -1.9730   -4.2660 c3        1 C39     -0.129700
     28 C28        14.5770   -3.1400   -4.8480 c3        1 C39     -0.132100
     29 C29        12.5120   -1.7050   -5.0140 c         1 C39      0.538100
     30 O30        11.4700   -1.3010   -4.5130 o         1 C39     -0.430100
     31 N31        12.5280   -1.9240   -6.5000 n4        1 C39     -0.670800
     32 C32        11.2680   -1.4910   -7.1960 c3        1 C39      0.107800
     33 C33        11.3300   -1.7440   -8.6970 c3        1 C39     -0.113400
     34 C34        10.0290   -1.2810   -9.3300 c3        1 C39     -0.074400
     35 C35        10.0530   -1.5150  -10.8200 c3        1 C39     -0.104100
     36 H1C1        1.2560    1.8660   -1.5830 h1        1 C39      0.047033
     37 H1C2        1.8220    0.8210   -2.9870 h1        1 C39      0.047033
     38 H1C3        0.8930    0.0690   -1.5890 h1        1 C39      0.047033
     39 H3C1        2.5480    1.6230    0.4860 h1        1 C39      0.040200
     40 H3C2        2.1170   -0.1560    0.4880 h1        1 C39      0.040200
     41 H4C1        4.9950    0.9730    0.1090 hc        1 C39      0.068700
     42 H4C2        4.5320   -0.7700    0.2360 hc        1 C39      0.068700
     43 H5C1        3.6660   -0.3810    2.5890 h1        1 C39      0.067200
     44 H5C2        4.1520    1.3920    2.4570 h1        1 C39      0.067200
     45 H8          4.2040    0.6650    4.5880 ha        1 C39      0.182000
     46 H9          5.0610    0.5780    6.9240 ha        1 C39      0.184000
     47 H10         7.3890   -0.1820    7.3890 ha        1 C39      0.178000
     48 H11         8.8710   -0.8900    5.5390 ha        1 C39      0.124000
     49 H15         9.7930    0.2410    3.5660 hn        1 C39      0.452300
     50 H161        9.9440    0.6390    1.2830 hx        1 C39      0.116200
     51 H162        9.9640   -1.1620    0.9560 hx        1 C39      0.116200
     52 H17        12.2200   -1.3780    1.9460 hc        1 C39      0.047700
     53 H18        12.0760    0.3410    3.6770 hc        1 C39      0.056700
     54 H211       11.4220    0.1500   -0.4400 hc        1 C39      0.098700
     55 H212       12.9570    0.8600    0.1740 hc        1 C39      0.098700
     56 H191       14.3310    1.2640    3.5220 hc        1 C39      0.056033
     57 H192       14.4290    0.8980    1.7610 hc        1 C39      0.056033
     58 H193       14.2970   -0.4570    2.9830 hc        1 C39      0.056033
     59 H201       10.8890    2.1690    2.5060 hc        1 C39      0.056033
     60 H202       12.2960    2.4310    1.3930 hc        1 C39      0.056033
     61 H203       12.4690    2.7540    3.1630 hc        1 C39      0.056033
     62 H22        12.4880   -2.1820   -0.3410 hx        1 C39      0.116700
     63 H231       14.3650   -1.3660    1.1670 hn        1 C39      0.473800
     64 H232       14.7940   -2.3540   -0.1200 hn        1 C39      0.473800
     65 H24        12.2260   -0.5140   -2.3660 h1        1 C39      0.104700
     66 H25        13.9100    0.8650   -2.3030 ho        1 C39      0.452000
     67 H261       14.4350   -2.7050   -2.3500 hc        1 C39      0.080700
     68 H262       12.6580   -2.9240   -2.6670 hc        1 C39      0.080700
     69 H27        14.4300   -1.0320   -4.3600 hc        1 C39      0.132700
     70 H281       13.9520   -4.0660   -4.8880 hc        1 C39      0.079033
     71 H282       14.9670   -2.9070   -5.8700 hc        1 C39      0.079033
     72 H283       15.4720   -3.3590   -4.2100 hc        1 C39      0.079033
     73 H31        13.3250   -1.4140   -6.9030 hn        1 C39      0.470300
     74 H321       11.1220   -0.3930   -6.9860 hx        1 C39      0.114200
     75 H322       10.4090   -2.0600   -6.7350 hx        1 C39      0.114200
     76 H331       12.1860   -1.1830   -9.1590 hc        1 C39      0.073200
     77 H332       11.4760   -2.8370   -8.9090 hc        1 C39      0.073200
     78 H341        9.8760   -0.1890   -9.1220 hc        1 C39      0.057200
     79 H342        9.1680   -1.8370   -8.8740 hc        1 C39      0.057200
     80 H351        9.0900   -1.1690  -11.2710 hc        1 C39      0.059700
     81 H352       10.8890   -0.9510  -11.3000 hc        1 C39      0.059700
     82 H353       10.1790   -2.6010  -11.0510 hc        1 C39      0.059700
     83 H152       10.1870   -1.3670    3.4570 hn        1 C39      0.452300
     84 H233       15.0700   -0.7080   -0.2050 hn        1 C39      0.473800
     85 H312       12.6790   -2.9280   -6.6790 hn        1 C39      0.470300
@<TRIPOS>BOND
     1    1    2 1   
     2    1   36 1   
     3    1   37 1   
     4    1   38 1   
     5    2    3 1   
     6    3    4 1   
     7    3   39 1   
     8    3   40 1   
     9    4    5 1   
    10    4   41 1   
    11    4   42 1   
    12    5    6 1   
    13    5   43 1   
    14    5   44 1   
    15    6    7 1   
    16    7    8 ar  
    17    7   12 ar  
    18    8    9 ar  
    19    8   45 1   
    20    9   10 ar  
    21    9   46 1   
    22   10   11 ar  
    23   10   47 1   
    24   11   12 ar  
    25   11   48 1   
    26   12   13 1   
    27   13   14 2   
    28   13   15 1   
    29   15   16 1   
    30   15   49 1   
    31   15   83 1   
    32   16   17 1   
    33   16   50 1   
    34   16   51 1   
    35   17   18 1   
    36   17   21 1   
    37   17   52 1   
    38   18   19 1   
    39   18   20 1   
    40   18   53 1   
    41   19   56 1   
    42   19   57 1   
    43   19   58 1   
    44   20   59 1   
    45   20   60 1   
    46   20   61 1   
    47   21   22 1   
    48   21   54 1   
    49   21   55 1   
    50   22   23 1   
    51   22   24 1   
    52   22   62 1   
    53   23   63 1   
    54   23   64 1   
    55   23   84 1   
    56   24   25 1   
    57   24   26 1   
    58   24   65 1   
    59   25   66 1   
    60   26   27 1   
    61   26   67 1   
    62   26   68 1   
    63   27   28 1   
    64   27   29 1   
    65   27   69 1   
    66   28   70 1   
    67   28   71 1   
    68   28   72 1   
    69   29   30 2   
    70   29   31 1   
    71   31   32 1   
    72   31   73 1   
    73   31   85 1   
    74   32   33 1   
    75   32   74 1   
    76   32   75 1   
    77   33   34 1   
    78   33   76 1   
    79   33   77 1   
    80   34   35 1   
    81   34   78 1   
    82   34   79 1   
    83   35   80 1   
    84   35   81 1   
    85   35   82 1   
@<TRIPOS>SUBSTRUCTURE
     1 C39         1 TEMP              0 ****  ****    0 ROOT
