@<TRIPOS>MOLECULE
C39
   85    85     1     0     0
SMALL
bcc


@<TRIPOS>ATOM
      1 C1          1.6220    0.9010   -1.8590 c3        1 C39      0.112700
      2 O2          2.8930    0.6360   -1.2800 os        1 C39     -0.430600
      3 C3          2.8530    0.6310    0.1440 c3        1 C39      0.131400
      4 C4          4.2630    0.2820    0.5950 c3        1 C39     -0.092400
      5 C5          4.3520    0.3590    2.1060 c3        1 C39      0.131400
      6 O6          5.7250    0.0060    2.4110 os        1 C39     -0.334900
      7 C7          6.0770   -0.0540    3.7230 ca        1 C39      0.252100
      8 C8          5.2450    0.3220    4.7990 ca        1 C39     -0.206000
      9 C9          5.7270    0.2640    6.0940 ca        1 C39      0.004000
     10 C10         7.0450   -0.1660    6.3520 ca        1 C39     -0.142000
     11 C11         7.8690   -0.5380    5.3110 ca        1 C39     -0.074000
     12 C12         7.4020   -0.4980    3.9770 ca        1 C39     -0.281600
     13 C13         8.1950   -0.9670    2.8640 c         1 C39      0.617700
     14 O14         7.9200   -1.5890    1.8550 o         1 C39     -0.416100
     15 N15         9.7120   -0.5970    2.9750 n4        1 C39     -0.697800
     16 C16        10.3310   -0.3540    1.6510 c3        1 C39      0.098800
     17 C17        11.8700   -0.3400    1.6310 c3        1 C39     -0.084700
     18 C18        12.4400    0.6640    2.6420 c3        1 C39     -0.083700
     19 C19        13.9520    0.6020    2.7060 c3        1 C39     -0.110100
     20 C20        11.9810    2.0860    2.3930 c3        1 C39     -0.110100
     21 C21        12.3160   -0.0580    0.1940 c3        1 C39     -0.114400
     22 C22        13.0750   -1.2090   -0.4810 c3        1 C39      0.094500
     23 N23        14.4300   -1.4110    0.1350 n4        1 C39     -0.842600
     24 C24        13.2080   -0.9250   -2.0140 c3        1 C39      0.115100
     25 O25        14.2680   -0.0090   -2.2160 oh        1 C39     -0.609800
     26 C26        13.5320   -2.2070   -2.7870 c3        1 C39     -0.088400
     27 C27        13.8110   -1.9650   -4.2710 c3        1 C39     -0.129700
     28 C28        14.5950   -3.1260   -4.8510 c3        1 C39     -0.132100
     29 C29        12.5150   -1.7120   -5.0190 c         1 C39      0.538100
     30 O30        11.4710   -1.3160   -4.5190 o         1 C39     -0.429100
     31 N31        12.5310   -1.9370   -6.5040 n4        1 C39     -0.670800
     32 C32        11.2640   -1.5240   -7.1990 c3        1 C39      0.107800
     33 C33        11.3280   -1.7810   -8.6990 c3        1 C39     -0.113400
     34 C34        10.0180   -1.3390   -9.3320 c3        1 C39     -0.074400
     35 C35        10.0430   -1.5790  -10.8200 c3        1 C39     -0.104100
     36 H1C1        1.8130    0.8750   -2.9610 h1        1 C39      0.047033
     37 H1C2        0.8860    0.1130   -1.5670 h1        1 C39      0.047033
     38 H1C3        1.2530    1.9090   -1.5470 h1        1 C39      0.047033
     39 H3C1        2.1130   -0.1320    0.5050 h1        1 C39      0.040200
     40 H3C2        2.5490    1.6460    0.5170 h1        1 C39      0.040200
     41 H4C1        4.9930    0.9920    0.1280 hc        1 C39      0.068700
     42 H4C2        4.5260   -0.7500    0.2440 hc        1 C39      0.068700
     43 H5C1        3.6680   -0.3770    2.6020 h1        1 C39      0.067200
     44 H5C2        4.1550    1.3970    2.4810 h1        1 C39      0.067200
     45 H8          4.2120    0.6550    4.6070 ha        1 C39      0.182000
     46 H9          5.0760    0.5520    6.9400 ha        1 C39      0.184000
     47 H10         7.4040   -0.2120    7.3940 ha        1 C39      0.178000
     48 H11         8.8810   -0.9090    5.5350 ha        1 C39      0.124000
     49 H15         9.7940    0.2420    3.5600 hn        1 C39      0.452300
     50 H161        9.9670   -1.1670    0.9520 hx        1 C39      0.116200
     51 H162        9.9360    0.6350    1.2730 hx        1 C39      0.116200
     52 H17        12.2260   -1.3650    1.9400 hc        1 C39      0.047700
     53 H18        12.0730    0.3580    3.6660 hc        1 C39      0.056700
     54 H211       11.4150    0.1500   -0.4490 hc        1 C39      0.098700
     55 H212       12.9450    0.8740    0.1610 hc        1 C39      0.098700
     56 H191       14.3210    1.2960    3.5070 hc        1 C39      0.056033
     57 H192       14.2990   -0.4270    2.9720 hc        1 C39      0.056033
     58 H193       14.4200    0.9260    1.7460 hc        1 C39      0.056033
     59 H201       12.4490    2.7720    3.1460 hc        1 C39      0.056033
     60 H202       12.2750    2.4430    1.3770 hc        1 C39      0.056033
     61 H203       10.8720    2.1750    2.4930 hc        1 C39      0.056033
     62 H22        12.4990   -2.1730   -0.3450 hx        1 C39      0.116700
     63 H231       14.3710   -1.3400    1.1590 hn        1 C39      0.473800
     64 H232       15.0700   -0.6800   -0.2140 hn        1 C39      0.473800
     65 H24        12.2220   -0.5140   -2.3740 h1        1 C39      0.104700
     66 H25        13.8950    0.8790   -2.3170 ho        1 C39      0.452000
     67 H261       14.4500   -2.6860   -2.3540 hc        1 C39      0.080700
     68 H262       12.6750   -2.9210   -2.6690 hc        1 C39      0.080700
     69 H27        14.4270   -1.0180   -4.3690 hc        1 C39      0.132700
     70 H281       14.9810   -2.8930   -5.8730 hc        1 C39      0.079367
     71 H282       13.9790   -4.0580   -4.8870 hc        1 C39      0.079367
     72 H283       15.4920   -3.3330   -4.2130 hc        1 C39      0.079367
     73 H31        13.3210   -1.4180   -6.9110 hn        1 C39      0.470300
     74 H321       10.4140   -2.1020   -6.7350 hx        1 C39      0.114700
     75 H322       11.1040   -0.4270   -6.9930 hx        1 C39      0.114700
     76 H331       12.1740   -1.2100   -9.1650 hc        1 C39      0.073200
     77 H332       11.4880   -2.8720   -8.9080 hc        1 C39      0.073200
     78 H341        9.1660   -1.9060   -8.8720 hc        1 C39      0.057200
     79 H342        9.8500   -0.2480   -9.1280 hc        1 C39      0.057200
     80 H351       10.1840   -2.6630  -11.0480 hc        1 C39      0.059700
     81 H352        9.0740   -1.2490  -11.2710 hc        1 C39      0.059700
     82 H353       10.8690   -1.0040  -11.3050 hc        1 C39      0.059700
     83 H152       10.1910   -1.3660    3.4510 hn        1 C39      0.452300
     84 H233       14.8070   -2.3270   -0.1260 hn        1 C39      0.473800
     85 H312       12.6950   -2.9390   -6.6790 hn        1 C39      0.470300
@<TRIPOS>BOND
     1    1    2 1   
     2    1   36 1   
     3    1   37 1   
     4    1   38 1   
     5    2    3 1   
     6    3    4 1   
     7    3   39 1   
     8    3   40 1   
     9    4    5 1   
    10    4   41 1   
    11    4   42 1   
    12    5    6 1   
    13    5   43 1   
    14    5   44 1   
    15    6    7 1   
    16    7    8 ar  
    17    7   12 ar  
    18    8    9 ar  
    19    8   45 1   
    20    9   10 ar  
    21    9   46 1   
    22   10   11 ar  
    23   10   47 1   
    24   11   12 ar  
    25   11   48 1   
    26   12   13 1   
    27   13   14 2   
    28   13   15 1   
    29   15   16 1   
    30   15   49 1   
    31   15   83 1   
    32   16   17 1   
    33   16   50 1   
    34   16   51 1   
    35   17   18 1   
    36   17   21 1   
    37   17   52 1   
    38   18   19 1   
    39   18   20 1   
    40   18   53 1   
    41   19   56 1   
    42   19   57 1   
    43   19   58 1   
    44   20   59 1   
    45   20   60 1   
    46   20   61 1   
    47   21   22 1   
    48   21   54 1   
    49   21   55 1   
    50   22   23 1   
    51   22   24 1   
    52   22   62 1   
    53   23   63 1   
    54   23   64 1   
    55   23   84 1   
    56   24   25 1   
    57   24   26 1   
    58   24   65 1   
    59   25   66 1   
    60   26   27 1   
    61   26   67 1   
    62   26   68 1   
    63   27   28 1   
    64   27   29 1   
    65   27   69 1   
    66   28   70 1   
    67   28   71 1   
    68   28   72 1   
    69   29   30 2   
    70   29   31 1   
    71   31   32 1   
    72   31   73 1   
    73   31   85 1   
    74   32   33 1   
    75   32   74 1   
    76   32   75 1   
    77   33   34 1   
    78   33   76 1   
    79   33   77 1   
    80   34   35 1   
    81   34   78 1   
    82   34   79 1   
    83   35   80 1   
    84   35   81 1   
    85   35   82 1   
@<TRIPOS>SUBSTRUCTURE
     1 C39         1 TEMP              0 ****  ****    0 ROOT
