@<TRIPOS>MOLECULE
C3A
   76    80     1     0     0
SMALL
bcc


@<TRIPOS>ATOM
      1 C2          9.3540    0.5980    3.0300 c2        1 C3A     -0.174200
      2 C5          6.4320   -0.1310    1.0200 c         1 C3A      0.731100
      3 C1         10.6790    0.6840    3.1150 c2        1 C3A     -0.214000
      4 C3          8.6620    0.1470    1.7940 c3        1 C3A      0.179600
      5 O4          7.2470    0.2330    2.0700 os        1 C3A     -0.438900
      6 O6          6.9470   -0.5540   -0.0290 o         1 C3A     -0.579000
      7 C8          4.0910   -0.5400    0.4560 c3        1 C3A      0.011700
      8 C9          2.9360    0.4120    0.0930 c3        1 C3A     -0.077400
      9 N7          5.0900    0.1060    1.2790 n         1 C3A     -0.512900
     10 C10         3.3860    1.4850   -0.8750 c3        1 C3A     -0.073400
     11 C11         2.2320    2.3710   -1.3000 c3        1 C3A     -0.089700
     12 C12         2.6180    3.2800   -2.4710 c3        1 C3A     -0.102400
     13 C13         2.2360    4.7060   -2.0370 c3        1 C3A      0.143800
     14 N14         1.9440    4.7150   -0.6060 n3        1 C3A     -0.794200
     15 C15         1.7700    3.3300   -0.1760 c3        1 C3A      0.145800
     16 C16         3.4710   -1.7710    1.1260 c         1 C3A      0.485600
     17 O17         3.5510   -2.0180    2.3260 o         1 C3A     -0.475100
     18 C18         2.7230   -2.6660    0.2000 cc        1 C3A      0.452500
     19 N19         3.1890   -3.2050   -0.9550 nd        1 C3A     -0.323300
     20 O20         2.2320   -3.9500   -1.4470 os        1 C3A     -0.134100
     21 C21         1.1010   -3.8800   -0.5700 cd        1 C3A      0.509700
     22 C22        -0.0880   -4.6740   -0.9570 c3        1 C3A     -0.066400
     23 C23        -1.3120   -3.8320   -1.0630 ca        1 C3A     -0.082300
     24 C24        -1.9070   -3.3040    0.0880 ca        1 C3A     -0.119000
     25 C25        -3.0670   -2.5370   -0.0090 ca        1 C3A     -0.092500
     26 C26        -3.6400   -2.2940   -1.2610 ca        1 C3A     -0.129600
     27 C27        -3.0550   -2.8320   -2.4130 ca        1 C3A     -0.092500
     28 C28        -1.8930   -3.5940   -2.3140 ca        1 C3A     -0.119000
     29 C29        -4.8930   -1.4960   -1.4190 c         1 C3A      0.672700
     30 O30        -5.7580   -1.8110   -2.2620 o         1 C3A     -0.602100
     31 N31        -5.0420   -0.3910   -0.6060 n         1 C3A     -0.565900
     32 C32        -6.1870    0.4780   -0.6690 c3        1 C3A      0.100700
     33 C33        -6.9720    0.5570    0.6780 c3        1 C3A     -0.052100
     34 C34        -7.0850    2.0070    0.9890 ca        1 C3A     -0.089800
     35 C35        -7.7190    2.6050    2.0670 ca        1 C3A     -0.115500
     36 C36        -7.7040    4.0020    2.1700 ca        1 C3A     -0.129000
     37 C37        -7.0630    4.7780    1.2070 ca        1 C3A     -0.129000
     38 C38        -6.4220    4.1770    0.1160 ca        1 C3A     -0.115500
     39 C39        -6.4350    2.7950    0.0120 ca        1 C3A     -0.089800
     40 C40        -5.8250    1.9490   -1.0490 c3        1 C3A     -0.052100
     41 N41         1.3880   -3.0890    0.4610 nc        1 C3A     -0.650000
     42 H2          8.6930    0.8530    3.8750 ha        1 C3A      0.143000
     43 H11A       11.1820    1.0150    4.0330 ha        1 C3A      0.117500
     44 H12        11.3490    0.4330    2.2820 ha        1 C3A      0.117500
     45 H31A        8.8970    0.8020    0.9140 h1        1 C3A      0.065700
     46 H32A        8.9100   -0.9180    1.5380 h1        1 C3A      0.065700
     47 H8          4.5950   -0.8810   -0.5030 h1        1 C3A      0.125700
     48 H91         2.1220   -0.2010   -0.3780 hc        1 C3A      0.057200
     49 H92         2.5130    0.8810    1.0190 hc        1 C3A      0.057200
     50 HN7         4.8400    0.2740    2.2300 hn        1 C3A      0.328500
     51 H101        4.1910    2.1110   -0.4070 hc        1 C3A      0.054700
     52 H102        3.8300    0.9990   -1.7850 hc        1 C3A      0.054700
     53 H11         1.3670    1.7210   -1.6000 hc        1 C3A      0.054700
     54 H121        3.7130    3.2180   -2.6870 hc        1 C3A      0.049700
     55 H122        2.0690    2.9920   -3.3990 hc        1 C3A      0.049700
     56 H131        3.0490    5.4350   -2.2960 h1        1 C3A      0.048200
     57 H132        1.3000    5.0300   -2.5700 h1        1 C3A      0.048200
     58 H14         2.7010    5.1400   -0.1020 hn        1 C3A      0.347800
     59 H151        0.6730    3.1780    0.0180 h1        1 C3A      0.046700
     60 H152        2.3210    3.1250    0.7800 h1        1 C3A      0.046700
     61 H221        0.1290   -5.1860   -1.9350 hc        1 C3A      0.092200
     62 H222       -0.2430   -5.4730   -0.1760 hc        1 C3A      0.092200
     63 H24        -1.4530   -3.4900    1.0740 ha        1 C3A      0.147000
     64 H25        -3.5290   -2.1430    0.9090 ha        1 C3A      0.150500
     65 H27        -3.5290   -2.6580   -3.3920 ha        1 C3A      0.150500
     66 H28        -1.4360   -4.0110   -3.2240 ha        1 C3A      0.147000
     67 H31        -4.3150   -0.1440    0.0220 hn        1 C3A      0.312500
     68 H32        -6.8840    0.0700   -1.4600 h1        1 C3A      0.094700
     69 H331       -7.9810    0.0910    0.5490 hc        1 C3A      0.062450
     70 H332       -6.4520    0.0140    1.5080 hc        1 C3A      0.062450
     71 H35        -8.2270    1.9970    2.8290 ha        1 C3A      0.134500
     72 H36        -8.2040    4.4870    3.0210 ha        1 C3A      0.131500
     73 H37        -7.0600    5.8740    1.3010 ha        1 C3A      0.131500
     74 H38        -5.9180    4.7950   -0.6410 ha        1 C3A      0.134500
     75 H401       -4.7200    2.1170   -1.1010 hc        1 C3A      0.062450
     76 H402       -6.2530    2.1910   -2.0540 hc        1 C3A      0.062450
@<TRIPOS>BOND
     1    1    3 2   
     2    1    4 1   
     3    1   42 1   
     4    2    5 1   
     5    2    6 2   
     6    2    9 1   
     7    3   43 1   
     8    3   44 1   
     9    4    5 1   
    10    4   45 1   
    11    4   46 1   
    12    7    8 1   
    13    7    9 1   
    14    7   16 1   
    15    7   47 1   
    16    8   10 1   
    17    8   48 1   
    18    8   49 1   
    19    9   50 1   
    20   10   11 1   
    21   10   51 1   
    22   10   52 1   
    23   11   12 1   
    24   11   15 1   
    25   11   53 1   
    26   12   13 1   
    27   12   54 1   
    28   12   55 1   
    29   13   14 1   
    30   13   56 1   
    31   13   57 1   
    32   14   15 1   
    33   14   58 1   
    34   15   59 1   
    35   15   60 1   
    36   16   17 2   
    37   16   18 1   
    38   18   19 2   
    39   18   41 1   
    40   19   20 1   
    41   20   21 1   
    42   21   22 1   
    43   21   41 2   
    44   22   23 1   
    45   22   61 1   
    46   22   62 1   
    47   23   24 ar  
    48   23   28 ar  
    49   24   25 ar  
    50   24   63 1   
    51   25   26 ar  
    52   25   64 1   
    53   26   27 ar  
    54   26   29 1   
    55   27   28 ar  
    56   27   65 1   
    57   28   66 1   
    58   29   30 2   
    59   29   31 1   
    60   31   32 1   
    61   31   67 1   
    62   32   33 1   
    63   32   40 1   
    64   32   68 1   
    65   33   34 1   
    66   33   69 1   
    67   33   70 1   
    68   34   35 ar  
    69   34   39 ar  
    70   35   36 ar  
    71   35   71 1   
    72   36   37 ar  
    73   36   72 1   
    74   37   38 ar  
    75   37   73 1   
    76   38   39 ar  
    77   38   74 1   
    78   39   40 1   
    79   40   75 1   
    80   40   76 1   
@<TRIPOS>SUBSTRUCTURE
     1 C3A         1 TEMP              0 ****  ****    0 ROOT
