@<TRIPOS>MOLECULE
C3A
   78    82     1     0     0
SMALL
bcc


@<TRIPOS>ATOM
      1 C2         -0.9620    2.6580   -0.7500 c2        1 C3A     -0.269200
      2 C5         -2.7850    1.6140    1.5500 c         1 C3A      0.622100
      3 C1         -0.3560    3.8410   -0.6670 c2        1 C3A     -0.118000
      4 C3         -0.7680    1.5830    0.2490 c3        1 C3A      0.195600
      5 O4         -2.0630    0.9870    0.6080 os        1 C3A     -0.404900
      6 O6         -2.4370    2.5450    2.2600 o         1 C3A     -0.419000
      7 C8         -4.7920    1.1770    3.0040 c3        1 C3A      0.035500
      8 C9         -5.5050   -0.0950    3.4780 c3        1 C3A     -0.110400
      9 N7         -4.1360    0.9670    1.6600 n4        1 C3A     -0.646800
     10 C10        -4.5360   -1.2020    3.8430 c3        1 C3A     -0.083400
     11 C11        -5.2670   -2.3750    4.4680 c3        1 C3A     -0.091700
     12 C12        -4.2960   -3.4090    5.0430 c3        1 C3A     -0.102400
     13 C13        -4.8240   -4.7740    4.5670 c3        1 C3A      0.144800
     14 N14        -5.7880   -4.5680    3.4910 n3        1 C3A     -0.791200
     15 C15        -6.1380   -3.1550    3.4510 c3        1 C3A      0.154800
     16 C16        -5.8110    2.3270    2.9380 c         1 C3A      0.509600
     17 O17        -6.3050    2.6690    1.8650 o         1 C3A     -0.459100
     18 C18        -6.1370    2.9650    4.2260 cc        1 C3A      0.438500
     19 N19        -5.5640    2.6970    5.4350 nd        1 C3A     -0.294300
     20 O20        -6.1050    3.4920    6.3050 os        1 C3A     -0.099100
     21 C21        -7.0730    4.3220    5.6370 cd        1 C3A      0.514700
     22 C22        -7.7470    5.3340    6.4810 c3        1 C3A     -0.082400
     23 C23        -9.2230    5.3800    6.2730 ca        1 C3A     -0.031300
     24 C24        -9.7580    5.9590    5.1130 ca        1 C3A     -0.107000
     25 C25       -11.1360    6.0700    4.9530 ca        1 C3A     -0.067500
     26 C26       -11.9950    5.5940    5.9540 ca        1 C3A     -0.194600
     27 C27       -11.4640    4.9890    7.1040 ca        1 C3A     -0.067500
     28 C28       -10.0820    4.8910    7.2620 ca        1 C3A     -0.107000
     29 C29       -13.4590    5.6590    5.8510 c         1 C3A      0.562700
     30 O30       -14.2700    4.8780    6.3280 o         1 C3A     -0.402100
     31 N31       -14.0090    6.8530    5.1010 n4        1 C3A     -0.675800
     32 C32       -15.4860    7.0870    5.2980 c3        1 C3A      0.125500
     33 C33       -15.8700    8.5420    4.9070 c3        1 C3A     -0.045600
     34 C34       -16.5280    8.4110    3.5760 ca        1 C3A     -0.128300
     35 C35       -16.8980    9.4160    2.6990 ca        1 C3A     -0.093500
     36 C36       -17.5420    9.0580    1.5050 ca        1 C3A     -0.106000
     37 C37       -17.8060    7.7230    1.2100 ca        1 C3A     -0.106000
     38 C38       -17.4340    6.7040    2.0990 ca        1 C3A     -0.093500
     39 C39       -16.7960    7.0550    3.2770 ca        1 C3A     -0.128300
     40 C40       -16.3400    6.1670    4.3830 c3        1 C3A     -0.045600
     41 N41        -7.1080    4.0040    4.3460 nc        1 C3A     -0.621000
     42 H2         -1.6020    2.3900   -1.6070 ha        1 C3A      0.149000
     43 H11A        0.2980    4.1270    0.1700 ha        1 C3A      0.138500
     44 H12        -0.4650    4.6050   -1.4530 ha        1 C3A      0.138500
     45 H31A       -0.2580    0.6810   -0.1980 h1        1 C3A      0.104700
     46 H32A       -0.2530    1.9230    1.1840 h1        1 C3A      0.104700
     47 H8         -3.9670    1.4470    3.7370 hx        1 C3A      0.156700
     48 H91        -6.1020    0.1820    4.3910 hc        1 C3A      0.093200
     49 H92        -6.2350   -0.4530    2.7040 hc        1 C3A      0.093200
     50 HN7        -4.0320   -0.0430    1.4820 hn        1 C3A      0.484800
     51 H101       -3.9770   -1.5590    2.9380 hc        1 C3A      0.048700
     52 H102       -3.7800   -0.8140    4.5770 hc        1 C3A      0.048700
     53 H11        -5.9280   -1.9910    5.2910 hc        1 C3A      0.066700
     54 H121       -3.2560   -3.2400    4.6710 hc        1 C3A      0.056200
     55 H122       -4.2730   -3.3630    6.1580 hc        1 C3A      0.056200
     56 H131       -5.3680   -5.2870    5.4080 h1        1 C3A      0.065200
     57 H132       -3.9800   -5.4410    4.2470 h1        1 C3A      0.065200
     58 H14        -5.4120   -4.8680    2.6110 hn        1 C3A      0.359800
     59 H151       -6.0270   -2.7270    2.4180 h1        1 C3A      0.038200
     60 H152       -7.2210   -3.0700    3.7410 h1        1 C3A      0.038200
     61 H221       -7.5070    5.1120    7.5600 hc        1 C3A      0.114700
     62 H222       -7.2990    6.3410    6.2360 hc        1 C3A      0.114700
     63 H24        -9.0840    6.3240    4.3190 ha        1 C3A      0.172000
     64 H25       -11.5240    6.5130    4.0220 ha        1 C3A      0.157500
     65 H27       -12.1400    4.5900    7.8810 ha        1 C3A      0.157500
     66 H28        -9.6750    4.4260    8.1760 ha        1 C3A      0.172000
     67 H31       -13.4940    7.6870    5.4030 hn        1 C3A      0.459300
     68 H32       -15.7050    6.8860    6.3850 hx        1 C3A      0.119700
     69 H331      -16.5990    8.9290    5.6690 hc        1 C3A      0.088450
     70 H332      -15.0030    9.2480    4.8840 hc        1 C3A      0.088450
     71 H35       -16.7040   10.4750    2.9300 ha        1 C3A      0.151000
     72 H36       -17.8480    9.8470    0.7990 ha        1 C3A      0.158000
     73 H37       -18.3200    7.4600    0.2720 ha        1 C3A      0.158000
     74 H38       -17.6570    5.6520    1.8650 ha        1 C3A      0.151000
     75 H401      -15.7830    5.2690    4.0170 hc        1 C3A      0.088450
     76 H402      -17.2180    5.7960    4.9780 hc        1 C3A      0.088450
     77 H72        -4.7370    1.3670    0.9180 hn        1 C3A      0.484800
     78 H312      -13.8350    6.7150    4.0980 hn        1 C3A      0.459300
@<TRIPOS>BOND
     1    1    3 2   
     2    1    4 1   
     3    1   42 1   
     4    2    5 1   
     5    2    6 2   
     6    2    9 1   
     7    3   43 1   
     8    3   44 1   
     9    4    5 1   
    10    4   45 1   
    11    4   46 1   
    12    7    8 1   
    13    7    9 1   
    14    7   16 1   
    15    7   47 1   
    16    8   10 1   
    17    8   48 1   
    18    8   49 1   
    19    9   50 1   
    20    9   77 1   
    21   10   11 1   
    22   10   51 1   
    23   10   52 1   
    24   11   12 1   
    25   11   15 1   
    26   11   53 1   
    27   12   13 1   
    28   12   54 1   
    29   12   55 1   
    30   13   14 1   
    31   13   56 1   
    32   13   57 1   
    33   14   15 1   
    34   14   58 1   
    35   15   59 1   
    36   15   60 1   
    37   16   17 2   
    38   16   18 1   
    39   18   19 2   
    40   18   41 1   
    41   19   20 1   
    42   20   21 1   
    43   21   22 1   
    44   21   41 2   
    45   22   23 1   
    46   22   61 1   
    47   22   62 1   
    48   23   24 ar  
    49   23   28 ar  
    50   24   25 ar  
    51   24   63 1   
    52   25   26 ar  
    53   25   64 1   
    54   26   27 ar  
    55   26   29 1   
    56   27   28 ar  
    57   27   65 1   
    58   28   66 1   
    59   29   30 2   
    60   29   31 1   
    61   31   32 1   
    62   31   67 1   
    63   31   78 1   
    64   32   33 1   
    65   32   40 1   
    66   32   68 1   
    67   33   34 1   
    68   33   69 1   
    69   33   70 1   
    70   34   35 ar  
    71   34   39 ar  
    72   35   36 ar  
    73   35   71 1   
    74   36   37 ar  
    75   36   72 1   
    76   37   38 ar  
    77   37   73 1   
    78   38   39 ar  
    79   38   74 1   
    80   39   40 1   
    81   40   75 1   
    82   40   76 1   
@<TRIPOS>SUBSTRUCTURE
     1 C3A         1 TEMP              0 ****  ****    0 ROOT
