@<TRIPOS>MOLECULE
C3A
   76    72     1     0     0
SMALL
bcc


@<TRIPOS>ATOM
      1 C2          4.0990   -3.2710    6.4960 c1        1 C3A     -0.157250
      2 C5          5.5250   -1.2000    3.8190 c1        1 C3A      0.393000
      3 C1          3.5320   -4.5320    6.5550 c1        1 C3A     -0.157250
      4 C3          5.0910   -2.9360    5.4090 c2        1 C3A      0.025000
      5 O4          4.9910   -1.5620    5.1010 o         1 C3A     -0.281000
      6 O6          6.4730   -1.8020    3.3630 o         1 C3A     -0.391000
      7 C8          5.3290    0.1470    1.7130 c3        1 C3A     -0.003000
      8 C9          5.4420    1.6500    1.4830 c3        1 C3A     -0.179000
      9 N7          4.9190   -0.0980    3.0590 n3        1 C3A     -0.349000
     10 C10         6.0190    1.9230    0.0760 c3        1 C3A     -0.160000
     11 C11         5.9690    3.5040   -0.2150 c3        1 C3A     -0.127000
     12 C12         4.8570    3.8240   -1.2570 c3        1 C3A     -0.183000
     13 C13         5.5270    4.7530   -2.3140 c3        1 C3A     -0.092000
     14 N14         6.6720    5.1030   -1.7900 n3        1 C3A     -0.272000
     15 C15         7.0870    3.9150   -0.7740 c3        1 C3A     -0.090000
     16 C16         4.3140   -0.4350    0.7690 c2        1 C3A      0.305000
     17 O17         4.6760   -0.9570   -0.2390 o         1 C3A     -0.233000
     18 C18         2.8320   -0.4400    1.1440 c2        1 C3A     -0.142000
     19 N19         2.0570    0.6350    1.2900 n2        1 C3A     -0.015000
     20 O20         0.7930    0.2060    1.6250 os        1 C3A     -0.078000
     21 C21         0.8090   -1.1370    1.6790 c1        1 C3A      0.023000
     22 C22        -0.4240   -2.0560    1.9680 c2        1 C3A     -0.057000
     23 C23        -1.6780   -1.4610    1.3030 c2        1 C3A     -0.075000
     24 C24        -2.4780   -0.5310    2.0070 c2        1 C3A     -0.123000
     25 C25        -3.6930   -0.1350    1.4860 c1        1 C3A     -0.081000
     26 C26        -4.1240   -0.6450    0.2810 c1        1 C3A     -0.110000
     27 C27        -3.3310   -1.5660   -0.4170 c1        1 C3A     -0.104000
     28 C28        -2.1160   -1.9660    0.1000 c1        1 C3A     -0.114000
     29 C29        -5.5180   -0.2780   -0.2550 c2        1 C3A      0.346000
     30 O30        -6.2330    0.4560    0.3820 o         1 C3A     -0.363000
     31 N31        -5.8960   -0.6770   -1.5610 n         1 C3A     -0.375000
     32 C32        -7.1610   -0.2010   -2.1400 c3        1 C3A      0.024000
     33 C33        -6.8950    0.5960   -3.3330 c3        1 C3A     -0.139000
     34 C34        -7.7290   -0.0070   -4.5000 c2        1 C3A     -0.082000
     35 C35        -8.0640    0.5140   -5.7570 c2        1 C3A     -0.116000
     36 C36        -9.0410   -0.1060   -6.5300 c1        1 C3A     -0.129000
     37 C37        -9.6890   -1.2490   -6.0560 c1        1 C3A     -0.157250
     38 C38        -9.3540   -1.7760   -4.7890 c1        1 C3A     -0.157250
     39 C39        -8.3810   -1.1590   -4.0190 c1        1 C3A     -0.083000
     40 C40        -7.9850   -1.3490   -2.5410 c3        1 C3A     -0.136000
     41 N41         2.0650   -1.5520    1.3840 n2        1 C3A     -0.118000
     42 H2          3.8480   -2.5690    7.1840 ha        1 C3A      0.131750
     43 H11A        3.7810   -5.2290    5.8730 DU        1 C3A      0.115000
     44 H12         2.9110   -4.7390    7.2350 ha        1 C3A      0.131750
     45 H31A        4.8850   -3.4890    4.5780 h4        1 C3A      0.106000
     46 H32A        5.9930   -3.1360    5.7190 h4        1 C3A      0.106000
     47 H8          6.1710   -0.2590    1.5590 h1        1 C3A      0.161000
     48 H91         4.5790    2.0480    1.5540 hc        1 C3A      0.100500
     49 H92         6.0110    2.0260    2.1320 hc        1 C3A      0.100500
     50 HN7         4.3270    0.4910    3.4820 hn        1 C3A      0.248000
     51 H101        5.4530    1.4230   -0.6320 hc        1 C3A      0.096000
     52 H102        6.9810    1.5980    0.0320 hc        1 C3A      0.096000
     53 H11         5.7940    4.0210    0.6570 hc        1 C3A      0.095000
     54 H121        4.5400    2.9810   -1.6900 hc        1 C3A      0.087500
     55 H122        4.1080    4.2830   -0.8240 hc        1 C3A      0.087500
     56 H131        5.6610    4.2900   -3.1200 h1        1 C3A      0.087500
     57 H132        4.9480    5.5830   -2.4740 h1        1 C3A      0.087500
     58 H14         7.3570    5.1780   -2.5080 hn        1 C3A      0.144000
     59 H151        7.7260    4.2770   -0.0550 h1        1 C3A      0.088500
     60 H152        7.4960    3.2060   -1.2480 h1        1 C3A      0.088500
     61 H221       -0.2500   -2.9950    1.5900 ha        1 C3A      0.130500
     62 H222       -0.5620   -2.1140    2.9130 ha        1 C3A      0.130500
     63 H24        -2.1620   -0.1600    2.8840 ha        1 C3A      0.141000
     64 H25        -4.2580    0.5200    1.9800 ha        1 C3A      0.159000
     65 H27        -3.6240   -1.9080   -1.2270 ha        1 C3A      0.142000
     66 H28        -1.5690   -2.6030   -0.3880 ha        1 C3A      0.154000
     67 H31        -5.3690   -1.2080   -2.0290 hn        1 C3A      0.227000
     68 H32        -7.6740    0.3730   -1.4410 h1        1 C3A      0.134000
     69 H331       -5.9810    0.5410   -3.5440 hc        1 C3A      0.101500
     70 H332       -7.1950    1.5550   -3.1670 hc        1 C3A      0.101500
     71 H35        -7.5900    1.3480   -6.1060 ha        1 C3A      0.134000
     72 H36        -9.2750    0.2610   -7.4130 ha        1 C3A      0.131000
     73 H37       -10.3380   -1.6590   -6.5700 ha        1 C3A      0.131750
     74 H38        -9.7870   -2.5420   -4.4700 ha        1 C3A      0.131750
     75 H401       -7.4870   -2.1530   -2.4430 hc        1 C3A      0.101500
     76 H402       -8.7360   -1.3840   -2.0250 hc        1 C3A      0.101500
@<TRIPOS>BOND
     1    1    3 1   
     2    1   42 1   
     3    2    6 1   
     4    2    9 1   
     5    3   44 1   
     6    4    5 1   
     7    4   45 1   
     8    4   46 1   
     9    7    8 1   
    10    7    9 1   
    11    7   16 1   
    12    7   47 1   
    13    8   10 1   
    14    8   48 1   
    15    8   49 1   
    16    9   50 1   
    17   10   11 1   
    18   10   51 1   
    19   10   52 1   
    20   11   12 1   
    21   11   15 1   
    22   11   53 1   
    23   12   13 1   
    24   12   54 1   
    25   12   55 1   
    26   13   14 1   
    27   13   56 1   
    28   13   57 1   
    29   14   15 1   
    30   14   58 1   
    31   15   59 1   
    32   15   60 1   
    33   16   17 1   
    34   16   18 1   
    35   18   19 1   
    36   18   41 1   
    37   19   20 1   
    38   20   21 1   
    39   21   41 1   
    40   22   23 1   
    41   22   61 1   
    42   22   62 1   
    43   23   24 1   
    44   23   28 1   
    45   24   25 1   
    46   24   63 1   
    47   25   64 1   
    48   26   27 1   
    49   26   29 1   
    50   27   65 1   
    51   28   66 1   
    52   29   30 1   
    53   29   31 1   
    54   31   32 1   
    55   31   67 1   
    56   32   33 1   
    57   32   40 1   
    58   32   68 1   
    59   33   34 1   
    60   33   69 1   
    61   33   70 1   
    62   34   35 1   
    63   34   39 1   
    64   35   36 1   
    65   35   71 1   
    66   36   72 1   
    67   37   38 1   
    68   37   73 1   
    69   38   74 1   
    70   39   40 1   
    71   40   75 1   
    72   40   76 1   
@<TRIPOS>SUBSTRUCTURE
     1 C3A         1 TEMP              0 ****  ****    0 ROOT
