@<TRIPOS>MOLECULE
C3A
   78    82     1     0     0
SMALL
bcc


@<TRIPOS>ATOM
      1 C2         -1.0330    2.6140   -0.8460 c2        1 C3A     -0.269200
      2 C5         -2.8100    1.6090    1.5060 c         1 C3A      0.622100
      3 C1         -0.4380    3.8060   -0.8010 c2        1 C3A     -0.118000
      4 C3         -0.8130    1.5670    0.1750 c3        1 C3A      0.195600
      5 O4         -2.0960    0.9670    0.5690 os        1 C3A     -0.404900
      6 O6         -2.4620    2.5600    2.1880 o         1 C3A     -0.419000
      7 C8         -4.7900    1.1860    3.0000 c3        1 C3A      0.035500
      8 C9         -5.4820   -0.0820    3.5150 c3        1 C3A     -0.110400
      9 N7         -4.1530    0.9510    1.6520 ny        1 C3A     -0.646800
     10 C10        -4.4970   -1.1700    3.8900 c3        1 C3A     -0.083400
     11 C11        -5.2060   -2.3360    4.5520 c3        1 C3A     -0.091700
     12 C12        -4.2150   -3.3470    5.1360 c3        1 C3A     -0.102400
     13 C13        -4.7350   -4.7280    4.6990 c3        1 C3A      0.144800
     14 N14        -5.7160   -4.5560    3.6320 n7        1 C3A     -0.791200
     15 C15        -6.0820   -3.1480    3.5670 c3        1 C3A      0.154800
     16 C16        -5.8220    2.3240    2.9230 c         1 C3A      0.509600
     17 O17        -6.3360    2.6360    1.8510 o         1 C3A     -0.459100
     18 C18        -6.1360    2.9870    4.2020 cc        1 C3A      0.438500
     19 N19        -5.5420    2.7520    5.4080 nd        1 C3A     -0.294300
     20 O20        -6.0790    3.5620    6.2680 os        1 C3A     -0.099100
     21 C21        -7.0650    4.3670    5.5960 cd        1 C3A      0.514700
     22 C22        -7.7370    5.3900    6.4270 c3        1 C3A     -0.082400
     23 C23        -9.2150    5.4220    6.2340 ca        1 C3A     -0.031300
     24 C24        -9.7670    5.9800    5.0710 ca        1 C3A     -0.107000
     25 C25       -11.1470    6.0780    4.9240 ca        1 C3A     -0.067500
     26 C26       -11.9920    5.6100    5.9410 ca        1 C3A     -0.194600
     27 C27       -11.4450    5.0260    7.0940 ca        1 C3A     -0.067500
     28 C28       -10.0610    4.9410    7.2390 ca        1 C3A     -0.107000
     29 C29       -13.4580    5.6620    5.8520 c         1 C3A      0.562700
     30 O30       -14.2570    4.8800    6.3440 o         1 C3A     -0.402100
     31 N31       -14.0250    6.8440    5.0960 ny        1 C3A     -0.675800
     32 C32       -15.5040    7.0620    5.2950 c3        1 C3A      0.125500
     33 C33       -15.9060    8.5100    4.8960 c3        1 C3A     -0.045600
     34 C34       -16.5660    8.3640    3.5690 ca        1 C3A     -0.128300
     35 C35       -16.9510    9.3590    2.6870 ca        1 C3A     -0.093500
     36 C36       -17.5930    8.9860    1.4970 ca        1 C3A     -0.106000
     37 C37       -17.8410    7.6460    1.2100 ca        1 C3A     -0.106000
     38 C38       -17.4540    6.6370    2.1030 ca        1 C3A     -0.093500
     39 C39       -16.8180    7.0020    3.2770 ca        1 C3A     -0.128300
     40 C40       -16.3490    6.1260    4.3870 c3        1 C3A     -0.045600
     41 N41        -7.1150    4.0190    4.3130 nc        1 C3A     -0.620000
     42 H2         -1.6820    2.3190   -1.6870 ha        1 C3A      0.149000
     43 H11A        0.2250    4.1180    0.0190 ha        1 C3A      0.138500
     44 H12        -0.5670    4.5480   -1.6040 ha        1 C3A      0.138500
     45 H31A       -0.2990    0.6590   -0.2560 h1        1 C3A      0.104200
     46 H32A       -0.2870    1.9350    1.0940 h1        1 C3A      0.104200
     47 H8         -3.9580    1.4810    3.7140 hx        1 C3A      0.156700
     48 H91        -6.2200   -0.4660    2.7600 hc        1 C3A      0.093200
     49 H92        -6.0690    0.2100    4.4300 hc        1 C3A      0.093200
     50 HN7        -4.0420   -0.0620    1.4950 hn        1 C3A      0.484800
     51 H101       -3.7340   -0.7580    4.6040 hc        1 C3A      0.048700
     52 H102       -3.9470   -1.5420    2.9850 hc        1 C3A      0.048700
     53 H11        -5.8590   -1.9410    5.3760 hc        1 C3A      0.066700
     54 H121       -3.1820   -3.1750    4.7460 hc        1 C3A      0.056200
     55 H122       -4.1760   -3.2750    6.2500 hc        1 C3A      0.056200
     56 H131       -5.2610   -5.2280    5.5590 h1        1 C3A      0.065200
     57 H132       -3.8880   -5.3920    4.3820 h1        1 C3A      0.065200
     58 H14        -5.3500   -4.8720    2.7540 hn        1 C3A      0.359800
     59 H151       -5.9910   -2.7430    2.5220 h1        1 C3A      0.038200
     60 H152       -7.1630   -3.0690    3.8710 h1        1 C3A      0.038200
     61 H221       -7.2980    6.3960    6.1570 hc        1 C3A      0.114700
     62 H222       -7.4840    5.1910    7.5080 hc        1 C3A      0.114700
     63 H24        -9.1040    6.3380    4.2650 ha        1 C3A      0.171500
     64 H25       -11.5480    6.5050    3.9910 ha        1 C3A      0.158000
     65 H27       -12.1090    4.6330    7.8830 ha        1 C3A      0.158000
     66 H28        -9.6410    4.4920    8.1550 ha        1 C3A      0.171500
     67 H31       -13.8510    6.7020    4.0930 hn        1 C3A      0.459300
     68 H32       -15.7180    6.8640    6.3830 hx        1 C3A      0.119700
     69 H331      -15.0480    9.2260    4.8680 hc        1 C3A      0.088450
     70 H332      -16.6390    8.8920    5.6580 hc        1 C3A      0.088450
     71 H35       -16.7690   10.4210    2.9110 ha        1 C3A      0.151000
     72 H36       -17.9100    9.7680    0.7870 ha        1 C3A      0.158000
     73 H37       -18.3540    7.3720    0.2740 ha        1 C3A      0.158000
     74 H38       -17.6650    5.5820    1.8750 ha        1 C3A      0.151000
     75 H401      -15.7810    5.2330    4.0240 hc        1 C3A      0.088450
     76 H402      -17.2200    5.7470    4.9860 hc        1 C3A      0.088450
     77 H72        -4.7690    1.3280    0.9100 hn        1 C3A      0.484800
     78 H312      -13.5190    7.6870    5.3920 hn        1 C3A      0.459300
@<TRIPOS>BOND
     1    1    3 2   
     2    1    4 1   
     3    1   42 1   
     4    2    5 1   
     5    2    6 2   
     6    2    9 1   
     7    3   43 1   
     8    3   44 1   
     9    4    5 1   
    10    4   45 1   
    11    4   46 1   
    12    7    8 1   
    13    7    9 1   
    14    7   16 1   
    15    7   47 1   
    16    8   10 1   
    17    8   48 1   
    18    8   49 1   
    19    9   50 1   
    20    9   77 1   
    21   10   11 1   
    22   10   51 1   
    23   10   52 1   
    24   11   12 1   
    25   11   15 1   
    26   11   53 1   
    27   12   13 1   
    28   12   54 1   
    29   12   55 1   
    30   13   14 1   
    31   13   56 1   
    32   13   57 1   
    33   14   15 1   
    34   14   58 1   
    35   15   59 1   
    36   15   60 1   
    37   16   17 2   
    38   16   18 1   
    39   18   19 2   
    40   18   41 1   
    41   19   20 1   
    42   20   21 1   
    43   21   22 1   
    44   21   41 2   
    45   22   23 1   
    46   22   61 1   
    47   22   62 1   
    48   23   24 ar  
    49   23   28 ar  
    50   24   25 ar  
    51   24   63 1   
    52   25   26 ar  
    53   25   64 1   
    54   26   27 ar  
    55   26   29 1   
    56   27   28 ar  
    57   27   65 1   
    58   28   66 1   
    59   29   30 2   
    60   29   31 1   
    61   31   32 1   
    62   31   67 1   
    63   31   78 1   
    64   32   33 1   
    65   32   40 1   
    66   32   68 1   
    67   33   34 1   
    68   33   69 1   
    69   33   70 1   
    70   34   35 ar  
    71   34   39 ar  
    72   35   36 ar  
    73   35   71 1   
    74   36   37 ar  
    75   36   72 1   
    76   37   38 ar  
    77   37   73 1   
    78   38   39 ar  
    79   38   74 1   
    80   39   40 1   
    81   40   75 1   
    82   40   76 1   
@<TRIPOS>SUBSTRUCTURE
     1 C3A         1 TEMP              0 ****  ****    0 ROOT
