@<TRIPOS>MOLECULE
C3B
   35    36     1     0     0
SMALL
bcc


@<TRIPOS>ATOM
      1 C1'         0.1390   -0.0090   -0.0520 c3        1 C3B      0.304500
      2 C2'         1.6910   -0.0230    0.0210 c3        1 C3B      0.113100
      3 O2'         2.1110   -1.2160   -0.6120 oh        1 C3B     -0.611800
      4 C3'         2.0940   -0.0170    1.5050 c3        1 C3B      0.078100
      5 O3'         3.5080    0.0720    1.5200 oh        1 C3B     -0.596800
      6 C4'         1.4580    1.1930    2.2110 c3        1 C3B      0.080100
      7 O4'         1.7310    1.1130    3.5990 oh        1 C3B     -0.586800
      8 C5'        -0.0670    1.1250    2.0330 c3        1 C3B      0.145100
      9 O5'        -0.3790    1.1350    0.6320 os        1 C3B     -0.410600
     10 C6'        -0.7560    2.3620    2.6160 c3        1 C3B      0.136400
     11 O6'        -2.1090    2.0030    2.8350 oh        1 C3B     -0.600800
     12 N1         -0.3810    0.0710   -1.4240 n         1 C3B     -0.320000
     13 C2         -0.0760    1.2240   -2.2440 c         1 C3B      0.839900
     14 O2          0.6880    2.1050   -1.8420 o         1 C3B     -0.497500
     15 N3         -0.6660    1.3090   -3.5430 nc        1 C3B     -0.626100
     16 C4         -1.4480    0.3250   -3.9360 cd        1 C3B      0.610500
     17 N4         -2.0510    0.4350   -5.2930 nz        1 C3B     -0.803600
     18 C5         -1.7690   -0.8410   -3.1670 cd        1 C3B     -0.450600
     19 C6         -1.2060   -0.9020   -1.8970 cc        1 C3B      0.145600
     20 H1'        -0.2610   -0.9570    0.4230 h2        1 C3B      0.081700
     21 H2'         2.1310    0.8750   -0.4980 h1        1 C3B      0.100700
     22 HO2'        3.0630   -1.2930   -0.4510 ho        1 C3B      0.445000
     23 H3'         1.7630   -0.9700    2.0050 h1        1 C3B      0.068700
     24 HO3'        3.7860   -0.0770    2.4340 ho        1 C3B      0.426000
     25 H4'         1.8570    2.1460    1.7680 h1        1 C3B      0.078700
     26 HO4'        2.5480    1.6050    3.7540 ho        1 C3B      0.420000
     27 H5'        -0.4800    0.1940    2.5090 h1        1 C3B      0.083700
     28 H6'        -0.2500    2.6250    3.5840 h1        1 C3B      0.055700
     29 H6'A       -0.6950    3.2210    1.8970 h1        1 C3B      0.055700
     30 HO6'       -2.5150    2.7360    3.3130 ho        1 C3B      0.417000
     31 HN4        -1.7430   -0.3680   -5.8520 hn        1 C3B      0.478133
     32 HN4A       -3.0720    0.4190   -5.1970 hn        1 C3B      0.478133
     33 H5         -2.4160   -1.6460   -3.5320 ha        1 C3B      0.183000
     34 H6         -1.4180   -1.7690   -1.2350 h4        1 C3B      0.201000
     35 H43        -1.7650    1.3080   -5.7610 hn        1 C3B      0.478133
@<TRIPOS>BOND
     1    1    2 1   
     2    1    9 1   
     3    1   12 1   
     4    1   20 1   
     5    2    3 1   
     6    2    4 1   
     7    2   21 1   
     8    3   22 1   
     9    4    5 1   
    10    4    6 1   
    11    4   23 1   
    12    5   24 1   
    13    6    7 1   
    14    6    8 1   
    15    6   25 1   
    16    7   26 1   
    17    8    9 1   
    18    8   10 1   
    19    8   27 1   
    20   10   11 1   
    21   10   28 1   
    22   10   29 1   
    23   11   30 1   
    24   12   13 1   
    25   12   19 1   
    26   13   14 2   
    27   13   15 1   
    28   15   16 2   
    29   16   17 1   
    30   16   18 1   
    31   17   31 1   
    32   17   32 1   
    33   17   35 1   
    34   18   19 2   
    35   18   33 1   
    36   19   34 1   
@<TRIPOS>SUBSTRUCTURE
     1 C3B         1 TEMP              0 ****  ****    0 ROOT
