@<TRIPOS>MOLECULE
C3B
   35    36     1     0     0
SMALL
bcc


@<TRIPOS>ATOM
      1 C1'         0.1540   -0.0170   -0.0480 c3        1 C3B      0.304500
      2 C2'         1.7060   -0.0260    0.0240 c3        1 C3B      0.113100
      3 O2'         2.1290   -1.2200   -0.6060 oh        1 C3B     -0.611800
      4 C3'         2.1100   -0.0150    1.5080 c3        1 C3B      0.078100
      5 O3'         3.5240    0.0770    1.5220 oh        1 C3B     -0.596800
      6 C4'         1.4710    1.1940    2.2110 c3        1 C3B      0.080100
      7 O4'         1.7450    1.1190    3.5990 oh        1 C3B     -0.586800
      8 C5'        -0.0540    1.1230    2.0340 c3        1 C3B      0.145100
      9 O5'        -0.3670    1.1270    0.6330 os        1 C3B     -0.410600
     10 C6'        -0.7460    2.3580    2.6140 c3        1 C3B      0.136400
     11 O6'        -2.0980    1.9970    2.8350 oh        1 C3B     -0.600800
     12 N1         -0.3660    0.0580   -1.4200 n         1 C3B     -0.320000
     13 C2         -0.0650    1.2100   -2.2440 c         1 C3B      0.839900
     14 O2          0.6970    2.0940   -1.8430 o         1 C3B     -0.497500
     15 N3         -0.6560    1.2900   -3.5420 nc        1 C3B     -0.626100
     16 C4         -1.4350    0.3030   -3.9320 cd        1 C3B      0.610500
     17 N4         -2.0390    0.4090   -5.2890 n4        1 C3B     -0.803600
     18 C5         -1.7530   -0.8620   -3.1600 cd        1 C3B     -0.450600
     19 C6         -1.1900   -0.9170   -1.8910 cc        1 C3B      0.145600
     20 H1'        -0.2430   -0.9640    0.4300 h2        1 C3B      0.081700
     21 H2'         2.1430    0.8710   -0.4970 h1        1 C3B      0.100700
     22 HO2'        3.0820   -1.2940   -0.4450 ho        1 C3B      0.445000
     23 H3'         1.7820   -0.9680    2.0100 h1        1 C3B      0.068700
     24 HO3'        3.8030   -0.0690    2.4360 ho        1 C3B      0.426000
     25 H4'         1.8670    2.1470    1.7660 h1        1 C3B      0.078700
     26 HO4'        2.5610    1.6130    3.7530 ho        1 C3B      0.420000
     27 H5'        -0.4640    0.1910    2.5130 h1        1 C3B      0.083700
     28 H6'        -0.6870    3.2160    1.8930 h1        1 C3B      0.055700
     29 H6'A       -0.2410    2.6250    3.5820 h1        1 C3B      0.055700
     30 HO6'       -2.5060    2.7300    3.3110 ho        1 C3B      0.417000
     31 HN4        -3.0610    0.3900   -5.1930 hn        1 C3B      0.478133
     32 HN4A       -1.7300   -0.3950   -5.8460 hn        1 C3B      0.478133
     33 H5         -2.3980   -1.6690   -3.5220 ha        1 C3B      0.183000
     34 H6         -1.3990   -1.7840   -1.2260 h4        1 C3B      0.201000
     35 H43        -1.7560    1.2810   -5.7600 hn        1 C3B      0.478133
@<TRIPOS>BOND
     1    1    2 1   
     2    1    9 1   
     3    1   12 1   
     4    1   20 1   
     5    2    3 1   
     6    2    4 1   
     7    2   21 1   
     8    3   22 1   
     9    4    5 1   
    10    4    6 1   
    11    4   23 1   
    12    5   24 1   
    13    6    7 1   
    14    6    8 1   
    15    6   25 1   
    16    7   26 1   
    17    8    9 1   
    18    8   10 1   
    19    8   27 1   
    20   10   11 1   
    21   10   28 1   
    22   10   29 1   
    23   11   30 1   
    24   12   13 1   
    25   12   19 1   
    26   13   14 2   
    27   13   15 1   
    28   15   16 2   
    29   16   17 1   
    30   16   18 1   
    31   17   31 1   
    32   17   32 1   
    33   17   35 1   
    34   18   19 2   
    35   18   33 1   
    36   19   34 1   
@<TRIPOS>SUBSTRUCTURE
     1 C3B         1 TEMP              0 ****  ****    0 ROOT
