@<TRIPOS>MOLECULE
C3B
   34    34     1     0     0
SMALL
bcc


@<TRIPOS>ATOM
      1 C1'        -0.1840   -0.8230   -1.4020 c3        1 C3B      0.111000
      2 C2'         1.3310   -0.8580   -1.3970 c3        1 C3B      0.003000
      3 O2'         1.7760   -2.0200   -2.1400 oh        1 C3B     -0.301000
      4 C3'         1.8880   -0.9230   -0.0270 c3        1 C3B     -0.034000
      5 O3'         1.6330    0.3430    0.6470 oh        1 C3B     -0.335000
      6 C4'         1.2840   -2.0260    0.7770 c3        1 C3B     -0.026000
      7 O4'         1.7240   -3.2860    0.2410 oh        1 C3B     -0.315000
      8 C5'        -0.2350   -1.9880    0.7610 c3        1 C3B     -0.051000
      9 O5'        -0.7800   -1.9190   -0.5940 os        1 C3B     -0.266000
     10 C6'        -0.7000   -0.7850    1.5330 c3        1 C3B     -0.037000
     11 O6'        -1.9930   -1.0420    2.0790 oh        1 C3B     -0.318000
     12 N1         -0.6120    0.4070   -0.8860 n         1 C3B     -0.305000
     13 C2         -2.0110    0.5790   -0.4830 c2        1 C3B      0.352000
     14 O2         -2.7850   -0.3660   -0.5470 o         1 C3B     -0.332000
     15 N3         -2.4950    1.8960   -0.0470 n2        1 C3B     -0.296000
     16 C4         -1.6300    3.0220   -0.0840 c1        1 C3B      0.231000
     17 N4         -2.1260    4.3120    0.2580 n2        1 C3B     -0.355000
     18 C5         -0.2430    2.8670   -0.5540 c2        1 C3B     -0.336000
     19 C6          0.2610    1.5350   -0.9260 c2        1 C3B      0.055000
     20 H1'        -0.5000   -0.9050   -2.3300 h2        1 C3B      0.179000
     21 H2'         1.6680   -0.0520   -1.8380 h1        1 C3B      0.149000
     22 HO2'        2.2160   -1.7570   -2.8640 ho        1 C3B      0.206000
     23 H3'         2.8540   -1.0630   -0.0840 h1        1 C3B      0.118000
     24 HO3'        2.3740    0.6080    1.0710 ho        1 C3B      0.218000
     25 H4'         1.5910   -1.9500    1.6950 h1        1 C3B      0.125000
     26 HO4'        2.0390   -3.7930    0.8970 ho        1 C3B      0.209000
     27 H5'        -0.5730   -2.7900    1.1960 h1        1 C3B      0.144000
     28 H6'        -0.0700   -0.5990    2.2580 h1        1 C3B      0.092500
     29 H6'A       -0.7470   -0.0060    0.9310 h1        1 C3B      0.092500
     30 HO6'       -1.9270   -1.1500    2.9520 ho        1 C3B      0.220000
     31 HN4        -3.0090    4.4200    0.4780 hn        1 C3B      0.233500
     32 HN4A       -1.5650    5.0350    0.2500 hn        1 C3B      0.233500
     33 H5          0.3610    3.6490   -0.5800 ha        1 C3B      0.156000
     34 H6          1.1850    1.4300   -1.2400 h4        1 C3B      0.182000
@<TRIPOS>BOND
     1    1    2 1   
     2    1    9 1   
     3    1   12 1   
     4    1   20 1   
     5    2    3 1   
     6    2    4 1   
     7    2   21 1   
     8    3   22 1   
     9    4    5 1   
    10    4    6 1   
    11    4   23 1   
    12    5   24 1   
    13    6    7 1   
    14    6    8 1   
    15    6   25 1   
    16    7   26 1   
    17    8    9 1   
    18    8   10 1   
    19    8   27 1   
    20   10   11 1   
    21   10   28 1   
    22   10   29 1   
    23   11   30 1   
    24   12   13 1   
    25   12   19 1   
    26   13   14 1   
    27   13   15 1   
    28   15   16 1   
    29   16   18 1   
    30   17   31 1   
    31   17   32 1   
    32   18   19 1   
    33   18   33 1   
    34   19   34 1   
@<TRIPOS>SUBSTRUCTURE
     1 C3B         1 TEMP              0 ****  ****    0 ROOT
