@<TRIPOS>MOLECULE
C3B
   35    36     1     0     0
SMALL
bcc


@<TRIPOS>ATOM
      1 C1'         0.1480   -0.0120   -0.0480 c3        1 C3B      0.304500
      2 C2'         1.7010   -0.0120    0.0210 c3        1 C3B      0.113100
      3 O2'         2.1290   -1.2010   -0.6160 oh        1 C3B     -0.611800
      4 C3'         2.1080   -0.0070    1.5040 c3        1 C3B      0.078100
      5 O3'         3.5210    0.0940    1.5160 oh        1 C3B     -0.596800
      6 C4'         1.4630    1.1960    2.2150 c3        1 C3B      0.080100
      7 O4'         1.7400    1.1150    3.6020 oh        1 C3B     -0.586800
      8 C5'        -0.0620    1.1160    2.0410 c3        1 C3B      0.145100
      9 O5'        -0.3780    1.1260    0.6400 os        1 C3B     -0.410600
     10 C6'        -0.7590    2.3450    2.6280 c3        1 C3B      0.136400
     11 O6'        -2.1090    1.9740    2.8500 oh        1 C3B     -0.600800
     12 N1         -0.3750    0.0670   -1.4190 n         1 C3B     -0.320000
     13 C2         -0.0820    1.2250   -2.2360 c         1 C3B      0.839900
     14 O2          0.6750    2.1120   -1.8330 o         1 C3B     -0.497500
     15 N3         -0.6770    1.3090   -3.5330 nc        1 C3B     -0.626100
     16 C4         -1.4500    0.3190   -3.9270 cd        1 C3B      0.610500
     17 N4         -2.0580    0.4290   -5.2820 n4        1 C3B     -0.803600
     18 C5         -1.7600   -0.8520   -3.1600 cd        1 C3B     -0.450600
     19 C6         -1.1940   -0.9110   -1.8920 cc        1 C3B      0.145600
     20 H1'        -0.2420   -0.9640    0.4260 h2        1 C3B      0.081700
     21 H2'         2.1320    0.8900   -0.4960 h1        1 C3B      0.100700
     22 HO2'        3.0830   -1.2700   -0.4570 ho        1 C3B      0.445000
     23 H3'         1.7860   -0.9640    2.0020 h1        1 C3B      0.068700
     24 HO3'        3.8020   -0.0560    2.4290 ho        1 C3B      0.426000
     25 H4'         1.8530    2.1530    1.7740 h1        1 C3B      0.078700
     26 HO4'        2.5540    1.6110    3.7560 ho        1 C3B      0.420000
     27 H5'        -0.4660    0.1790    2.5160 h1        1 C3B      0.083700
     28 H6'        -0.2540    2.6090    3.5960 h1        1 C3B      0.056200
     29 H6'A       -0.7080    3.2070    1.9120 h1        1 C3B      0.056200
     30 HO6'       -2.5210    2.7020    3.3310 ho        1 C3B      0.417000
     31 HN4        -1.7810    1.3050   -5.7480 hn        1 C3B      0.478133
     32 HN4A       -3.0790    0.4030   -5.1830 hn        1 C3B      0.478133
     33 H5         -2.4010   -1.6610   -3.5260 ha        1 C3B      0.183000
     34 H6         -1.3960   -1.7820   -1.2320 h4        1 C3B      0.201000
     35 H43        -1.7450   -0.3710   -5.8440 hn        1 C3B      0.478133
@<TRIPOS>BOND
     1    1    2 1   
     2    1    9 1   
     3    1   12 1   
     4    1   20 1   
     5    2    3 1   
     6    2    4 1   
     7    2   21 1   
     8    3   22 1   
     9    4    5 1   
    10    4    6 1   
    11    4   23 1   
    12    5   24 1   
    13    6    7 1   
    14    6    8 1   
    15    6   25 1   
    16    7   26 1   
    17    8    9 1   
    18    8   10 1   
    19    8   27 1   
    20   10   11 1   
    21   10   28 1   
    22   10   29 1   
    23   11   30 1   
    24   12   13 1   
    25   12   19 1   
    26   13   14 2   
    27   13   15 1   
    28   15   16 2   
    29   16   17 1   
    30   16   18 1   
    31   17   31 1   
    32   17   32 1   
    33   17   35 1   
    34   18   19 2   
    35   18   33 1   
    36   19   34 1   
@<TRIPOS>SUBSTRUCTURE
     1 C3B         1 TEMP              0 ****  ****    0 ROOT
