@<TRIPOS>MOLECULE
C3B
   34    35     1     0     0
SMALL
bcc


@<TRIPOS>ATOM
      1 C1'         0.1300   -0.2760    0.6250 c3        1 C3B      0.324500
      2 C2'         0.7350   -1.5510   -0.0290 c3        1 C3B      0.112100
      3 O2'         0.1540   -2.6560    0.6400 oh        1 C3B     -0.598800
      4 C3'         2.2550   -1.5530    0.1980 c3        1 C3B      0.073100
      5 O3'         2.7620   -2.6760   -0.5060 oh        1 C3B     -0.598800
      6 C4'         2.8600   -0.2500   -0.3440 c3        1 C3B      0.081100
      7 O4'         4.2450   -0.2040   -0.0390 oh        1 C3B     -0.594800
      8 C5'         2.1840    0.9330    0.3620 c3        1 C3B      0.110100
      9 O5'         0.7780    0.9050    0.1190 os        1 C3B     -0.425600
     10 C6'         2.6690    2.2690   -0.2100 c3        1 C3B      0.140400
     11 O6'         2.1220    3.3540    0.5040 oh        1 C3B     -0.595800
     12 N1         -1.2890   -0.1040    0.3710 n         1 C3B     -0.375000
     13 C2         -1.8120    0.0010   -0.9790 c         1 C3B      0.848900
     14 O2         -1.0180   -0.1590   -1.9260 o         1 C3B     -0.612500
     15 N3         -3.1730    0.2630   -1.1870 nc        1 C3B     -0.724100
     16 C4         -3.9840    0.4010   -0.1240 cd        1 C3B      0.756500
     17 N4         -5.3350    0.5920   -0.3150 nh        1 C3B     -0.920800
     18 C5         -3.4820    0.3190    1.2490 cd        1 C3B     -0.425600
     19 C6         -2.1470    0.0800    1.4300 cc        1 C3B      0.078600
     20 H1'         0.3040   -0.3370    1.7440 h2        1 C3B      0.059700
     21 H2'         0.5110   -1.5830   -1.1320 h1        1 C3B      0.110700
     22 HO2'        0.4800   -3.4450    0.1860 ho        1 C3B      0.426000
     23 H3'         2.4840   -1.6560    1.2950 h1        1 C3B      0.059700
     24 HO3'        3.6790   -2.7840   -0.2250 ho        1 C3B      0.410000
     25 H4'         2.6890   -0.1840   -1.4540 h1        1 C3B      0.077700
     26 HO4'        4.6960   -0.6880   -0.7410 ho        1 C3B      0.409000
     27 H5'         2.3810    0.8890    1.4690 h1        1 C3B      0.064700
     28 H6'         3.7810    2.3430   -0.0680 h1        1 C3B      0.065700
     29 H6'A        2.4060    2.3370   -1.2980 h1        1 C3B      0.065700
     30 HO6'        1.1640    3.3180    0.3810 ho        1 C3B      0.413000
     31 HN4        -5.6900    0.7480   -1.2280 hn        1 C3B      0.437800
     32 HN4A       -5.8770    0.8830    0.4590 hn        1 C3B      0.437800
     33 H5         -4.1560    0.4360    2.1040 ha        1 C3B      0.155000
     34 H6         -1.7140    0.0140    2.4480 h4        1 C3B      0.156000
@<TRIPOS>BOND
     1    1    2 1   
     2    1    9 1   
     3    1   12 1   
     4    1   20 1   
     5    2    3 1   
     6    2    4 1   
     7    2   21 1   
     8    3   22 1   
     9    4    5 1   
    10    4    6 1   
    11    4   23 1   
    12    5   24 1   
    13    6    7 1   
    14    6    8 1   
    15    6   25 1   
    16    7   26 1   
    17    8    9 1   
    18    8   10 1   
    19    8   27 1   
    20   10   11 1   
    21   10   28 1   
    22   10   29 1   
    23   11   30 1   
    24   12   13 1   
    25   12   19 1   
    26   13   14 2   
    27   13   15 1   
    28   15   16 2   
    29   16   17 1   
    30   16   18 1   
    31   17   31 1   
    32   17   32 1   
    33   18   19 2   
    34   18   33 1   
    35   19   34 1   
@<TRIPOS>SUBSTRUCTURE
     1 C3B         1 TEMP              0 ****  ****    0 ROOT
