@<TRIPOS>MOLECULE
C3D
   62    66     1     0     0
SMALL
bcc


@<TRIPOS>ATOM
      1 C1          0.0530    0.0910   -0.0710 c3        1 C3D      0.046900
      2 C2          1.5390   -0.2880    0.0550 c3        1 C3D     -0.012400
      3 C3          1.9760   -0.2070    1.5070 c3        1 C3D     -0.075400
      4 C4          1.2400   -1.2390    2.3360 c3        1 C3D     -0.039100
      5 C5         -0.2070   -1.3540    2.0000 ca        1 C3D     -0.032300
      6 C6         -1.0160   -2.1260    2.8450 ca        1 C3D     -0.220000
      7 C7         -2.3720   -2.2930    2.5500 ca        1 C3D      0.126100
      8 C8         -2.9390   -1.6960    1.4110 ca        1 C3D     -0.158000
      9 C9         -2.1280   -0.9320    0.5840 ca        1 C3D     -0.087000
     10 C10        -0.7660   -0.7490    0.8660 ca        1 C3D     -0.108300
     11 C11         2.4090    0.4870   -0.8810 ca        1 C3D     -0.069300
     12 C12         2.4150    0.1330   -2.2380 ca        1 C3D     -0.126000
     13 C13         3.2280    0.8100   -3.1440 ca        1 C3D     -0.129000
     14 C14         4.0490    1.8500   -2.7050 ca        1 C3D     -0.133000
     15 C15         4.0480    2.2080   -1.3590 ca        1 C3D     -0.129000
     16 C16         3.2330    1.5320   -0.4500 ca        1 C3D     -0.126000
     17 C17        -0.2150    1.5530    0.1300 ca        1 C3D     -0.108300
     18 C18        -0.2790    2.4010   -0.9800 ca        1 C3D     -0.087500
     19 C19        -0.5370    3.7630   -0.8320 ca        1 C3D     -0.182500
     20 C20        -0.7380    4.2840    0.4510 ca        1 C3D      0.128100
     21 C21        -0.6850    3.4440    1.5790 ca        1 C3D     -0.182500
     22 C22        -0.4270    2.0910    1.4070 ca        1 C3D     -0.087500
     23 C24        -1.0490    6.4880   -0.4010 c3        1 C3D      0.127400
     24 C25        -1.3230    7.8750    0.2010 c3        1 C3D      0.161800
     25 C27        -1.3950   10.2570   -0.3160 c3        1 C3D      0.158300
     26 C28        -2.6070   11.0660   -0.8060 c3        1 C3D     -0.093900
     27 O7         -3.2190   -3.0380    3.3390 oh        1 C3D     -0.498100
     28 O23        -1.0030    5.6110    0.7320 os        1 C3D     -0.335900
     29 N26        -1.4820    8.8870   -0.8290 n3        1 C3D     -0.725600
     30 C29        -3.4500   10.1080   -1.6350 c3        1 C3D     -0.093900
     31 C30        -2.7120    8.7610   -1.6140 c3        1 C3D      0.158300
     32 H1         -0.2560   -0.1700   -1.1280 hc        1 C3D      0.058700
     33 H2          1.6120   -1.3750   -0.2550 hc        1 C3D      0.058700
     34 H31         3.0800   -0.3850    1.5850 hc        1 C3D      0.052200
     35 H32         1.7680    0.8210    1.9080 hc        1 C3D      0.052200
     36 H41         1.3520   -0.9870    3.4250 hc        1 C3D      0.052200
     37 H42         1.7140   -2.2480    2.1800 hc        1 C3D      0.052200
     38 H6         -0.5800   -2.6000    3.7360 ha        1 C3D      0.132000
     39 H8         -4.0070   -1.8410    1.1950 ha        1 C3D      0.151000
     40 H9         -2.5620   -0.4550   -0.3090 ha        1 C3D      0.138000
     41 H12         1.7720   -0.6890   -2.5880 ha        1 C3D      0.132000
     42 H13         3.2250    0.5220   -4.2050 ha        1 C3D      0.130500
     43 H14         4.6920    2.3830   -3.4190 ha        1 C3D      0.130000
     44 H15         4.6910    3.0290   -1.0080 ha        1 C3D      0.130500
     45 H16         3.2400    1.8330    0.6080 ha        1 C3D      0.132000
     46 H18        -0.1140    1.9940   -1.9900 ha        1 C3D      0.137500
     47 H19        -0.5770    4.4070   -1.7210 ha        1 C3D      0.142500
     48 H21        -0.8520    3.8690    2.5790 ha        1 C3D      0.142500
     49 H22        -0.3990    1.4270    2.2860 ha        1 C3D      0.137500
     50 H241       -1.8730    6.1670   -1.0900 h1        1 C3D      0.046700
     51 H242       -0.0680    6.4650   -0.9410 h1        1 C3D      0.046700
     52 H251       -2.2210    7.7940    0.8790 h1        1 C3D      0.046700
     53 H252       -0.4390    8.1570    0.8400 h1        1 C3D      0.046700
     54 H272       -0.4420   10.6950   -0.7210 h1        1 C3D      0.043950
     55 H281       -3.1870   11.4650    0.0610 hc        1 C3D      0.047700
     56 H282       -2.2690   11.9370   -1.4190 hc        1 C3D      0.047700
     57 HO7        -2.7040   -3.3860    4.0820 ho        1 C3D      0.418000
     58 H291       -3.5600   10.4740   -2.6850 hc        1 C3D      0.047700
     59 H292       -4.4750    9.9990   -1.2040 hc        1 C3D      0.047700
     60 H301       -3.3890    7.9550   -1.2150 h1        1 C3D      0.043950
     61 H302       -2.4070    8.4660   -2.6550 h1        1 C3D      0.043950
     62 H271       -1.3380   10.2920    0.8060 h1        1 C3D      0.043950
@<TRIPOS>BOND
     1    1    2 1   
     2    1   10 1   
     3    1   17 1   
     4    1   32 1   
     5    2    3 1   
     6    2   11 1   
     7    2   33 1   
     8    3    4 1   
     9    3   34 1   
    10    3   35 1   
    11    4    5 1   
    12    4   36 1   
    13    4   37 1   
    14    5    6 ar  
    15    5   10 ar  
    16    6    7 ar  
    17    6   38 1   
    18    7    8 ar  
    19    7   27 1   
    20    8    9 ar  
    21    8   39 1   
    22    9   10 ar  
    23    9   40 1   
    24   11   12 ar  
    25   11   16 ar  
    26   12   13 ar  
    27   12   41 1   
    28   13   14 ar  
    29   13   42 1   
    30   14   15 ar  
    31   14   43 1   
    32   15   16 ar  
    33   15   44 1   
    34   16   45 1   
    35   17   18 ar  
    36   17   22 ar  
    37   18   19 ar  
    38   18   46 1   
    39   19   20 ar  
    40   19   47 1   
    41   20   21 ar  
    42   20   28 1   
    43   21   22 ar  
    44   21   48 1   
    45   22   49 1   
    46   23   24 1   
    47   23   28 1   
    48   23   50 1   
    49   23   51 1   
    50   24   29 1   
    51   24   52 1   
    52   24   53 1   
    53   25   26 1   
    54   25   29 1   
    55   25   54 1   
    56   25   62 1   
    57   26   30 1   
    58   26   55 1   
    59   26   56 1   
    60   27   57 1   
    61   29   31 1   
    62   30   31 1   
    63   30   58 1   
    64   30   59 1   
    65   31   60 1   
    66   31   61 1   
@<TRIPOS>SUBSTRUCTURE
     1 C3D         1 TEMP              0 ****  ****    0 ROOT
