@<TRIPOS>MOLECULE
C3D
   62    66     1     0     0
SMALL
bcc


@<TRIPOS>ATOM
      1 C1          0.0550    0.0800   -0.0480 c3        1 C3D      0.046900
      2 C2          1.5450   -0.2960    0.0340 c3        1 C3D     -0.012400
      3 C3          2.0270   -0.2040    1.4710 c3        1 C3D     -0.076400
      4 C4          1.3190   -1.2330    2.3290 c3        1 C3D     -0.039100
      5 C5         -0.1390   -1.3520    2.0420 ca        1 C3D     -0.037300
      6 C6         -0.9150   -2.1160    2.9190 ca        1 C3D     -0.164000
      7 C7         -2.2830   -2.2850    2.6680 ca        1 C3D      0.125100
      8 C8         -2.8840   -1.7000    1.5440 ca        1 C3D     -0.215000
      9 C9         -2.1020   -0.9410    0.6820 ca        1 C3D     -0.081000
     10 C10        -0.7340   -0.7540    0.9190 ca        1 C3D     -0.108300
     11 C11         2.3830    0.4740   -0.9340 ca        1 C3D     -0.069300
     12 C12         2.3480    0.1110   -2.2890 ca        1 C3D     -0.126500
     13 C13         3.1310    0.7820   -3.2240 ca        1 C3D     -0.129000
     14 C14         3.9630    1.8270   -2.8180 ca        1 C3D     -0.133000
     15 C15         4.0040    2.1940   -1.4750 ca        1 C3D     -0.129000
     16 C16         3.2190    1.5230   -0.5370 ca        1 C3D     -0.126500
     17 C17        -0.2090    1.5420    0.1510 ca        1 C3D     -0.108300
     18 C18        -0.3080    2.3840   -0.9620 ca        1 C3D     -0.088000
     19 C19        -0.5640    3.7460   -0.8130 ca        1 C3D     -0.182500
     20 C20        -0.7260    4.2760    0.4720 ca        1 C3D      0.128100
     21 C21        -0.6370    3.4420    1.6030 ca        1 C3D     -0.182500
     22 C22        -0.3820    2.0880    1.4310 ca        1 C3D     -0.088000
     23 C24        -1.0450    6.4770   -0.3820 c3        1 C3D      0.128400
     24 C25        -1.2870    7.8700    0.2200 c3        1 C3D      0.161800
     25 C27        -1.3390   10.2510   -0.3040 c3        1 C3D      0.158300
     26 C28        -2.5500   11.0750   -0.7700 c3        1 C3D     -0.093900
     27 O7         -2.9850   -3.0500    3.5730 oh        1 C3D     -0.499100
     28 O23        -0.9860    5.6030    0.7510 os        1 C3D     -0.335900
     29 N26        -1.4560    8.8800   -0.8090 n3        1 C3D     -0.725600
     30 C29        -3.4250   10.1250   -1.5770 c3        1 C3D     -0.093900
     31 C30        -2.7050    8.7680   -1.5660 c3        1 C3D      0.158300
     32 H1         -0.2860   -0.1880   -1.0930 hc        1 C3D      0.057700
     33 H2          1.6100   -1.3860   -0.2710 hc        1 C3D      0.058700
     34 H31         1.8300    0.8250    1.8720 hc        1 C3D      0.051700
     35 H32         3.1330   -0.3810    1.5150 hc        1 C3D      0.051700
     36 H41         1.4660   -0.9750    3.4120 hc        1 C3D      0.054200
     37 H42         1.7890   -2.2420    2.1630 hc        1 C3D      0.054200
     38 H6         -0.4640   -2.5880    3.8040 ha        1 C3D      0.149000
     39 H8         -3.9560   -1.8390    1.3510 ha        1 C3D      0.134000
     40 H9         -2.5660   -0.4720   -0.2010 ha        1 C3D      0.136000
     41 H12         1.6960   -0.7150   -2.6120 ha        1 C3D      0.132500
     42 H13         3.0950    0.4870   -4.2820 ha        1 C3D      0.130000
     43 H14         4.5830    2.3560   -3.5550 ha        1 C3D      0.130000
     44 H15         4.6560    3.0180   -1.1490 ha        1 C3D      0.130000
     45 H16         3.2590    1.8310    0.5190 ha        1 C3D      0.132500
     46 H18        -0.1740    1.9710   -1.9730 ha        1 C3D      0.138000
     47 H19        -0.6320    4.3840   -1.7050 ha        1 C3D      0.142500
     48 H21        -0.7730    3.8730    2.6040 ha        1 C3D      0.142500
     49 H22        -0.3250    1.4300    2.3140 ha        1 C3D      0.138000
     50 H241       -0.0760    6.4400   -0.9430 h1        1 C3D      0.046200
     51 H242       -1.8880    6.1650   -1.0520 h1        1 C3D      0.046200
     52 H251       -0.3860    8.1420    0.8390 h1        1 C3D      0.047200
     53 H252       -2.1710    7.8030    0.9180 h1        1 C3D      0.047200
     54 H272       -0.3900   10.6740   -0.7320 h1        1 C3D      0.043950
     55 H281       -3.1050   11.4850    0.1080 hc        1 C3D      0.047450
     56 H282       -2.2140   11.9380   -1.3940 hc        1 C3D      0.047450
     57 HO7        -3.9080   -3.0770    3.2840 ho        1 C3D      0.418000
     58 H291       -4.4410   10.0320   -1.1230 hc        1 C3D      0.047450
     59 H292       -3.5530   10.4890   -2.6250 hc        1 C3D      0.047450
     60 H301       -3.3840    7.9730   -1.1490 h1        1 C3D      0.043950
     61 H302       -2.4280    8.4650   -2.6130 h1        1 C3D      0.043950
     62 H271       -1.2570   10.2880    0.8170 h1        1 C3D      0.043950
@<TRIPOS>BOND
     1    1    2 1   
     2    1   10 1   
     3    1   17 1   
     4    1   32 1   
     5    2    3 1   
     6    2   11 1   
     7    2   33 1   
     8    3    4 1   
     9    3   34 1   
    10    3   35 1   
    11    4    5 1   
    12    4   36 1   
    13    4   37 1   
    14    5    6 ar  
    15    5   10 ar  
    16    6    7 ar  
    17    6   38 1   
    18    7    8 ar  
    19    7   27 1   
    20    8    9 ar  
    21    8   39 1   
    22    9   10 ar  
    23    9   40 1   
    24   11   12 ar  
    25   11   16 ar  
    26   12   13 ar  
    27   12   41 1   
    28   13   14 ar  
    29   13   42 1   
    30   14   15 ar  
    31   14   43 1   
    32   15   16 ar  
    33   15   44 1   
    34   16   45 1   
    35   17   18 ar  
    36   17   22 ar  
    37   18   19 ar  
    38   18   46 1   
    39   19   20 ar  
    40   19   47 1   
    41   20   21 ar  
    42   20   28 1   
    43   21   22 ar  
    44   21   48 1   
    45   22   49 1   
    46   23   24 1   
    47   23   28 1   
    48   23   50 1   
    49   23   51 1   
    50   24   29 1   
    51   24   52 1   
    52   24   53 1   
    53   25   26 1   
    54   25   29 1   
    55   25   54 1   
    56   25   62 1   
    57   26   30 1   
    58   26   55 1   
    59   26   56 1   
    60   27   57 1   
    61   29   31 1   
    62   30   31 1   
    63   30   58 1   
    64   30   59 1   
    65   31   60 1   
    66   31   61 1   
@<TRIPOS>SUBSTRUCTURE
     1 C3D         1 TEMP              0 ****  ****    0 ROOT
