@<TRIPOS>MOLECULE
C3D
   62    66     1     0     0
SMALL
bcc


@<TRIPOS>ATOM
      1 C1          2.6820    4.4220    0.2360 c3        1 C3D      0.046900
      2 C2          3.8700    4.6860   -0.7050 c3        1 C3D     -0.012400
      3 C3          4.0950    3.4860   -1.6080 c3        1 C3D     -0.076400
      4 C4          2.9070    3.2910   -2.5280 c3        1 C3D     -0.039100
      5 C5          1.5910    3.4750   -1.8540 ca        1 C3D     -0.037300
      6 C6          0.4400    3.1110   -2.5610 ca        1 C3D     -0.164000
      7 C7         -0.8200    3.3020   -1.9800 ca        1 C3D      0.125100
      8 C8         -0.9440    3.8560   -0.6980 ca        1 C3D     -0.215000
      9 C9          0.2080    4.2100   -0.0050 ca        1 C3D     -0.081000
     10 C10         1.4780    4.0220   -0.5650 ca        1 C3D     -0.108300
     11 C11         5.0940    5.1260    0.0290 ca        1 C3D     -0.069300
     12 C12         5.1540    6.4450    0.5030 ca        1 C3D     -0.126500
     13 C13         6.2850    6.9090    1.1700 ca        1 C3D     -0.129000
     14 C14         7.3740    6.0600    1.3730 ca        1 C3D     -0.133000
     15 C15         7.3230    4.7480    0.9060 ca        1 C3D     -0.129000
     16 C16         6.1910    4.2820    0.2380 ca        1 C3D     -0.126500
     17 C17         2.9770    3.4220    1.3130 ca        1 C3D     -0.108300
     18 C18         3.4050    3.8660    2.5690 ca        1 C3D     -0.087500
     19 C19         3.6770    2.9640    3.5970 ca        1 C3D     -0.182500
     20 C20         3.5150    1.5940    3.3650 ca        1 C3D      0.128100
     21 C21         3.0780    1.1290    2.1100 ca        1 C3D     -0.182500
     22 C22         2.8120    2.0460    1.1010 ca        1 C3D     -0.087500
     23 C24         4.2260    1.0490    5.5740 c3        1 C3D      0.128400
     24 C25         4.4420   -0.2430    6.3760 c3        1 C3D      0.161800
     25 C27         5.4040   -1.1380    8.4290 c3        1 C3D      0.158300
     26 C28         4.7040   -1.3110    9.7870 c3        1 C3D     -0.093900
     27 O7         -1.9090    2.9210   -2.7340 oh        1 C3D     -0.499100
     28 O23         3.7470    0.6030    4.2980 os        1 C3D     -0.335900
     29 N26         4.8550    0.0320    7.7400 n3        1 C3D     -0.725600
     30 C29         3.6810   -0.1880    9.8830 c3        1 C3D     -0.093900
     31 C30         3.8080    0.6180    8.5800 c3        1 C3D      0.158300
     32 H1          2.4480    5.4080    0.7410 hc        1 C3D      0.057700
     33 H2          3.5580    5.5490   -1.3690 hc        1 C3D      0.058700
     34 H31         4.2480    2.5650   -0.9850 hc        1 C3D      0.051700
     35 H32         5.0200    3.6380   -2.2230 hc        1 C3D      0.051700
     36 H41         2.9540    2.2640   -2.9800 hc        1 C3D      0.054200
     37 H42         2.9690    4.0280   -3.3760 hc        1 C3D      0.054200
     38 H6          0.5130    2.6800   -3.5700 ha        1 C3D      0.149000
     39 H8         -1.9350    4.0050   -0.2490 ha        1 C3D      0.134000
     40 H9          0.1210    4.6410    1.0050 ha        1 C3D      0.136000
     41 H12         4.2990    7.1190    0.3410 ha        1 C3D      0.132500
     42 H13         6.3200    7.9450    1.5350 ha        1 C3D      0.130000
     43 H14         8.2680    6.4260    1.8980 ha        1 C3D      0.130000
     44 H15         8.1780    4.0740    1.0650 ha        1 C3D      0.130000
     45 H16         6.1650    3.2410   -0.1180 ha        1 C3D      0.132500
     46 H18         3.5400    4.9440    2.7520 ha        1 C3D      0.138000
     47 H19         4.0160    3.3410    4.5710 ha        1 C3D      0.142500
     48 H21         2.9510    0.0510    1.9470 ha        1 C3D      0.142500
     49 H22         2.4570    1.6870    0.1210 ha        1 C3D      0.138000
     50 H241        5.1850    1.6130    5.4450 h1        1 C3D      0.046200
     51 H242        3.4550    1.7090    6.0520 h1        1 C3D      0.046200
     52 H251        3.4960   -0.8560    6.3180 h1        1 C3D      0.047200
     53 H252        5.2590   -0.8320    5.8710 h1        1 C3D      0.047200
     54 H272        5.3040   -2.0790    7.8220 h1        1 C3D      0.043950
     55 H281        5.4490   -1.2490   10.6170 hc        1 C3D      0.047450
     56 H282        4.2100   -2.3110    9.8470 hc        1 C3D      0.047450
     57 HO7        -2.7060    3.0990   -2.2140 ho        1 C3D      0.418000
     58 H291        2.6460   -0.5950    9.9910 hc        1 C3D      0.047450
     59 H292        3.8840    0.4660   10.7650 hc        1 C3D      0.047450
     60 H301        2.8150    0.6600    8.0540 h1        1 C3D      0.043950
     61 H302        4.1210    1.6750    8.8040 h1        1 C3D      0.043950
     62 H271        6.5010   -0.9420    8.5770 h1        1 C3D      0.043950
@<TRIPOS>BOND
     1    1    2 1   
     2    1   10 1   
     3    1   17 1   
     4    1   32 1   
     5    2    3 1   
     6    2   11 1   
     7    2   33 1   
     8    3    4 1   
     9    3   34 1   
    10    3   35 1   
    11    4    5 1   
    12    4   36 1   
    13    4   37 1   
    14    5    6 ar  
    15    5   10 ar  
    16    6    7 ar  
    17    6   38 1   
    18    7    8 ar  
    19    7   27 1   
    20    8    9 ar  
    21    8   39 1   
    22    9   10 ar  
    23    9   40 1   
    24   11   12 ar  
    25   11   16 ar  
    26   12   13 ar  
    27   12   41 1   
    28   13   14 ar  
    29   13   42 1   
    30   14   15 ar  
    31   14   43 1   
    32   15   16 ar  
    33   15   44 1   
    34   16   45 1   
    35   17   18 ar  
    36   17   22 ar  
    37   18   19 ar  
    38   18   46 1   
    39   19   20 ar  
    40   19   47 1   
    41   20   21 ar  
    42   20   28 1   
    43   21   22 ar  
    44   21   48 1   
    45   22   49 1   
    46   23   24 1   
    47   23   28 1   
    48   23   50 1   
    49   23   51 1   
    50   24   29 1   
    51   24   52 1   
    52   24   53 1   
    53   25   26 1   
    54   25   29 1   
    55   25   54 1   
    56   25   62 1   
    57   26   30 1   
    58   26   55 1   
    59   26   56 1   
    60   27   57 1   
    61   29   31 1   
    62   30   31 1   
    63   30   58 1   
    64   30   59 1   
    65   31   60 1   
    66   31   61 1   
@<TRIPOS>SUBSTRUCTURE
     1 C3D         1 TEMP              0 ****  ****    0 ROOT
