@<TRIPOS>MOLECULE
C3D
   62    66     1     0     0
SMALL
bcc


@<TRIPOS>ATOM
      1 C1          0.0330    0.0890   -0.0730 c3        1 C3D      0.046900
      2 C2          1.5190   -0.2980    0.0330 c3        1 C3D     -0.012400
      3 C3          1.9760   -0.2180    1.4790 c3        1 C3D     -0.075400
      4 C4          1.2450   -1.2460    2.3180 c3        1 C3D     -0.039100
      5 C5         -0.2070   -1.3530    2.0020 ca        1 C3D     -0.032300
      6 C6         -1.0080   -2.1210    2.8580 ca        1 C3D     -0.220000
      7 C7         -2.3690   -2.2800    2.5810 ca        1 C3D      0.126100
      8 C8         -2.9490   -1.6810    1.4500 ca        1 C3D     -0.158000
      9 C9         -2.1440   -0.9220    0.6110 ca        1 C3D     -0.087000
     10 C10        -0.7770   -0.7460    0.8750 ca        1 C3D     -0.108300
     11 C11         2.3800    0.4720   -0.9150 ca        1 C3D     -0.069300
     12 C12         2.3660    0.1160   -2.2720 ca        1 C3D     -0.126000
     13 C13         3.1710    0.7880   -3.1890 ca        1 C3D     -0.129000
     14 C14         4.0030    1.8240   -2.7630 ca        1 C3D     -0.133000
     15 C15         4.0220    2.1830   -1.4160 ca        1 C3D     -0.129000
     16 C16         3.2160    1.5120   -0.4970 ca        1 C3D     -0.126000
     17 C17        -0.2240    1.5520    0.1300 ca        1 C3D     -0.108300
     18 C18        -0.2980    2.4000   -0.9800 ca        1 C3D     -0.087500
     19 C19        -0.5460    3.7640   -0.8280 ca        1 C3D     -0.182500
     20 C20        -0.7280    4.2870    0.4570 ca        1 C3D      0.128100
     21 C21        -0.6640    3.4470    1.5850 ca        1 C3D     -0.182500
     22 C22        -0.4160    2.0920    1.4100 ca        1 C3D     -0.087500
     23 C24        -1.0370    6.4920   -0.3920 c3        1 C3D      0.127400
     24 C25        -1.2930    7.8810    0.2120 c3        1 C3D      0.161800
     25 C27        -1.3560   10.2630   -0.3050 c3        1 C3D      0.158300
     26 C28        -2.5670   11.0810   -0.7790 c3        1 C3D     -0.093900
     27 O7         -3.2090   -3.0210    3.3820 oh        1 C3D     -0.498100
     28 O23        -0.9820    5.6150    0.7400 os        1 C3D     -0.335900
     29 N26        -1.4580    8.8940   -0.8160 n3        1 C3D     -0.725600
     30 C29        -3.4280   10.1280   -1.5980 c3        1 C3D     -0.093900
     31 C30        -2.6990    8.7760   -1.5850 c3        1 C3D      0.158300
     32 H1         -0.2910   -0.1710   -1.1260 hc        1 C3D      0.058700
     33 H2          1.5820   -1.3860   -0.2770 hc        1 C3D      0.058700
     34 H31         3.0800   -0.4030    1.5420 hc        1 C3D      0.052200
     35 H32         1.7790    0.8110    1.8820 hc        1 C3D      0.052200
     36 H41         1.7120   -2.2570    2.1570 hc        1 C3D      0.052200
     37 H42         1.3730   -0.9930    3.4050 hc        1 C3D      0.052200
     38 H6         -0.5630   -2.5960    3.7440 ha        1 C3D      0.132000
     39 H8         -4.0190   -1.8200    1.2480 ha        1 C3D      0.151000
     40 H9         -2.5880   -0.4440   -0.2760 ha        1 C3D      0.138000
     41 H12         1.7140   -0.7030   -2.6120 ha        1 C3D      0.132000
     42 H13         3.1520    0.4990   -4.2500 ha        1 C3D      0.130500
     43 H14         4.6390    2.3530   -3.4860 ha        1 C3D      0.130000
     44 H15         4.6740    3.0010   -1.0750 ha        1 C3D      0.130500
     45 H16         3.2390    1.8140    0.5610 ha        1 C3D      0.132000
     46 H18        -0.1490    1.9920   -1.9920 ha        1 C3D      0.137500
     47 H19        -0.5950    4.4070   -1.7170 ha        1 C3D      0.142500
     48 H21        -0.8160    3.8730    2.5860 ha        1 C3D      0.142500
     49 H22        -0.3800    1.4290    2.2890 ha        1 C3D      0.137500
     50 H241       -0.0620    6.4620   -0.9450 h1        1 C3D      0.046700
     51 H242       -1.8710    6.1760   -1.0710 h1        1 C3D      0.046700
     52 H251       -0.4000    8.1570    0.8400 h1        1 C3D      0.046700
     53 H252       -2.1830    7.8060    0.9020 h1        1 C3D      0.046700
     54 H272       -0.4050   10.6950   -0.7220 h1        1 C3D      0.043950
     55 H281       -3.1340   11.4830    0.0950 hc        1 C3D      0.047700
     56 H282       -2.2310   11.9490   -1.3960 hc        1 C3D      0.047700
     57 HO7        -2.6860   -3.3710    4.1180 ho        1 C3D      0.418000
     58 H291       -3.5470   10.4950   -2.6460 hc        1 C3D      0.047700
     59 H292       -4.4480   10.0260   -1.1540 hc        1 C3D      0.047700
     60 H301       -3.3760    7.9750   -1.1780 h1        1 C3D      0.043950
     61 H302       -2.4080    8.4790   -2.6300 h1        1 C3D      0.043950
     62 H271       -1.2840   10.2980    0.8170 h1        1 C3D      0.043950
@<TRIPOS>BOND
     1    1    2 1   
     2    1   10 1   
     3    1   17 1   
     4    1   32 1   
     5    2    3 1   
     6    2   11 1   
     7    2   33 1   
     8    3    4 1   
     9    3   34 1   
    10    3   35 1   
    11    4    5 1   
    12    4   36 1   
    13    4   37 1   
    14    5    6 ar  
    15    5   10 ar  
    16    6    7 ar  
    17    6   38 1   
    18    7    8 ar  
    19    7   27 1   
    20    8    9 ar  
    21    8   39 1   
    22    9   10 ar  
    23    9   40 1   
    24   11   12 ar  
    25   11   16 ar  
    26   12   13 ar  
    27   12   41 1   
    28   13   14 ar  
    29   13   42 1   
    30   14   15 ar  
    31   14   43 1   
    32   15   16 ar  
    33   15   44 1   
    34   16   45 1   
    35   17   18 ar  
    36   17   22 ar  
    37   18   19 ar  
    38   18   46 1   
    39   19   20 ar  
    40   19   47 1   
    41   20   21 ar  
    42   20   28 1   
    43   21   22 ar  
    44   21   48 1   
    45   22   49 1   
    46   23   24 1   
    47   23   28 1   
    48   23   50 1   
    49   23   51 1   
    50   24   29 1   
    51   24   52 1   
    52   24   53 1   
    53   25   26 1   
    54   25   29 1   
    55   25   54 1   
    56   25   62 1   
    57   26   30 1   
    58   26   55 1   
    59   26   56 1   
    60   27   57 1   
    61   29   31 1   
    62   30   31 1   
    63   30   58 1   
    64   30   59 1   
    65   31   60 1   
    66   31   61 1   
@<TRIPOS>SUBSTRUCTURE
     1 C3D         1 TEMP              0 ****  ****    0 ROOT
