@<TRIPOS>MOLECULE
C3F
   42    43     1     0     0
SMALL
bcc


@<TRIPOS>ATOM
      1 O4         -0.1620    0.5130    0.0180 o         1 C3F     -0.569500
      2 C4          1.0470    0.2380   -0.0000 c         1 C3F      0.610000
      3 N3          1.7260   -0.0060    1.1870 ns        1 C3F     -0.615500
      4 C2          3.1130   -0.2950    1.2510 c         1 C3F      0.849900
      5 O2          3.6100   -0.5180    2.3690 o         1 C3F     -0.581500
      6 N1          3.9010   -0.3240    0.0740 nc        1 C3F     -0.415400
      7 C4A         1.8550    0.1450   -1.2710 cd        1 C3F      0.302800
      8 C10         3.3290   -0.0970   -1.0970 cd        1 C3F      0.082400
      9 N5          1.2630    0.2690   -2.4260 nc        1 C3F     -0.516000
     10 C5A         2.0410    0.1600   -3.5790 ca        1 C3F      0.287600
     11 C6          1.4060    0.2380   -4.8420 ca        1 C3F     -0.100300
     12 C7          2.1290    0.1120   -6.0160 ca        1 C3F     -0.109300
     13 C7M         1.4480    0.2030   -7.3290 c3        1 C3F     -0.052800
     14 C8          3.5250   -0.1110   -5.9560 ca        1 C3F     -0.006300
     15 C8M         4.2980   -0.2700   -7.2100 c3        1 C3F     -0.065800
     16 C9          4.1720   -0.1880   -4.7310 ca        1 C3F     -0.182000
     17 C9A         3.4610   -0.0360   -3.5160 ca        1 C3F     -0.004600
     18 N10         4.1010   -0.0580   -2.2690 na        1 C3F     -0.108100
     19 C1'         5.5510   -0.1460   -2.1890 c3        1 C3F      0.033300
     20 C2'         6.1040   -1.5680   -2.2190 c3        1 C3F     -0.146400
     21 C3'         7.6340   -1.5090   -2.1990 c3        1 C3F      0.155800
     22 C5'        11.0690   -2.9790   -1.9060 c1        1 C3F      0.900000
     23 N1'         8.3170   -2.7750   -2.1860 n8        1 C3F     -0.922800
     24 O2'        10.8440   -3.8190   -1.0930 o         1 C3F     -0.452000
     25 O1'        11.3310   -2.1470   -2.7150 o         1 C3F     -0.452000
     26 H3          1.2160    0.0330    2.0440 hn        1 C3F      0.349500
     27 H6          0.3140    0.4000   -4.8800 ha        1 C3F      0.164000
     28 H7M1        1.8770    1.0440   -7.9300 hc        1 C3F      0.050367
     29 H7M2        0.3510    0.3790   -7.2070 hc        1 C3F      0.050367
     30 H7M3        1.5910   -0.7460   -7.9060 hc        1 C3F      0.050367
     31 H8M1        4.1950    0.6490   -7.8420 hc        1 C3F      0.055700
     32 H8M2        5.3840   -0.4410   -7.0080 hc        1 C3F      0.055700
     33 H8M3        3.9050   -1.1400   -7.7960 hc        1 C3F      0.055700
     34 H9          5.2560   -0.3860   -4.7210 ha        1 C3F      0.149000
     35 H1'1        5.8910    0.3570   -1.2360 h1        1 C3F      0.077700
     36 H1'2        5.9840    0.4510   -3.0430 h1        1 C3F      0.077700
     37 H2'1        5.7530   -2.1030   -3.1390 hc        1 C3F      0.058700
     38 H2'2        5.7300   -2.1380   -1.3280 hc        1 C3F      0.058700
     39 H3'1        7.9610   -0.9270   -1.2900 h1        1 C3F      0.056200
     40 H3'2        7.9840   -0.9440   -3.1110 h1        1 C3F      0.056200
     41 H1'         8.1480   -3.2720   -1.3320 hn        1 C3F      0.355800
     42 H1'3        8.0300   -3.3480   -2.9550 hn        1 C3F      0.355800
@<TRIPOS>BOND
     1    1    2 2   
     2    2    3 1   
     3    2    7 1   
     4    3    4 1   
     5    3   26 1   
     6    4    5 2   
     7    4    6 1   
     8    6    8 2   
     9    7    8 1   
    10    7    9 2   
    11    8   18 1   
    12    9   10 1   
    13   10   11 ar  
    14   10   17 ar  
    15   11   12 ar  
    16   11   27 1   
    17   12   13 1   
    18   12   14 ar  
    19   13   28 1   
    20   13   29 1   
    21   13   30 1   
    22   14   15 1   
    23   14   16 ar  
    24   15   31 1   
    25   15   32 1   
    26   15   33 1   
    27   16   17 ar  
    28   16   34 1   
    29   17   18 1   
    30   18   19 1   
    31   19   20 1   
    32   19   35 1   
    33   19   36 1   
    34   20   21 1   
    35   20   37 1   
    36   20   38 1   
    37   21   23 1   
    38   21   39 1   
    39   21   40 1   
    40   22   24 2   
    41   22   25 2   
    42   23   41 1   
    43   23   42 1   
@<TRIPOS>SUBSTRUCTURE
     1 C3F         1 TEMP              0 ****  ****    0 ROOT
