@<TRIPOS>MOLECULE
C3F
   42    43     1     0     0
SMALL
bcc


@<TRIPOS>ATOM
      1 O4         -0.1670    0.5120    0.0120 o         1 C3F     -0.569500
      2 C4          1.0410    0.2350   -0.0040 c         1 C3F      0.610000
      3 N3          1.7180   -0.0130    1.1830 n         1 C3F     -0.615500
      4 C2          3.1040   -0.3060    1.2500 c         1 C3F      0.849900
      5 O2          3.5980   -0.5330    2.3690 o         1 C3F     -0.581500
      6 N1          3.8940   -0.3330    0.0750 nc        1 C3F     -0.415400
      7 C4A         1.8520    0.1440   -1.2730 cd        1 C3F      0.302800
      8 C10         3.3250   -0.1010   -1.0970 cd        1 C3F      0.082400
      9 N5          1.2630    0.2730   -2.4300 nc        1 C3F     -0.516000
     10 C5A         2.0430    0.1650   -3.5810 ca        1 C3F      0.287600
     11 C6          1.4110    0.2480   -4.8460 ca        1 C3F     -0.100300
     12 C7          2.1370    0.1240   -6.0180 ca        1 C3F     -0.109300
     13 C7M         1.4590    0.2200   -7.3320 c3        1 C3F     -0.052800
     14 C8          3.5320   -0.1020   -5.9550 ca        1 C3F     -0.006300
     15 C8M         4.3080   -0.2580   -7.2080 c3        1 C3F     -0.065800
     16 C9          4.1770   -0.1830   -4.7290 ca        1 C3F     -0.182000
     17 C9A         3.4620   -0.0330   -3.5160 ca        1 C3F     -0.004600
     18 N10         4.1000   -0.0600   -2.2670 na        1 C3F     -0.108100
     19 C1'         5.5500   -0.1500   -2.1840 c3        1 C3F      0.033300
     20 C2'         6.1010   -1.5730   -2.2170 c3        1 C3F     -0.146400
     21 C3'         7.6300   -1.5170   -2.1960 c3        1 C3F      0.155800
     22 C5'        11.0630   -2.9920   -1.9050 c1        1 C3F      0.900000
     23 N1'         8.3110   -2.7850   -2.1840 n3        1 C3F     -0.922800
     24 O2'        10.8370   -3.8340   -1.0950 o         1 C3F     -0.452000
     25 O1'        11.3250   -2.1580   -2.7120 o         1 C3F     -0.452000
     26 H3          1.2060    0.0240    2.0390 hn        1 C3F      0.349500
     27 H6          0.3200    0.4130   -4.8850 ha        1 C3F      0.164000
     28 H7M1        0.3620    0.3990   -7.2120 hc        1 C3F      0.050367
     29 H7M2        1.6020   -0.7270   -7.9120 hc        1 C3F      0.050367
     30 H7M3        1.8910    1.0630   -7.9300 hc        1 C3F      0.050367
     31 H8M1        5.3930   -0.4310   -7.0040 hc        1 C3F      0.055700
     32 H8M2        4.2070    0.6630   -7.8380 hc        1 C3F      0.055700
     33 H8M3        3.9140   -1.1250   -7.7980 hc        1 C3F      0.055700
     34 H9          5.2600   -0.3830   -4.7180 ha        1 C3F      0.149000
     35 H1'1        5.8890    0.3490   -1.2290 h1        1 C3F      0.077700
     36 H1'2        5.9850    0.4480   -3.0350 h1        1 C3F      0.077700
     37 H2'1        5.7500   -2.1060   -3.1400 hc        1 C3F      0.058700
     38 H2'2        5.7240   -2.1450   -1.3290 hc        1 C3F      0.058700
     39 H3'1        7.9830   -0.9500   -3.1050 h1        1 C3F      0.056200
     40 H3'2        7.9570   -0.9390   -1.2840 h1        1 C3F      0.056200
     41 H1'         8.1410   -3.2830   -1.3320 hn        1 C3F      0.355800
     42 H1'3        8.0240   -3.3550   -2.9560 hn        1 C3F      0.355800
@<TRIPOS>BOND
     1    1    2 2   
     2    2    3 1   
     3    2    7 1   
     4    3    4 1   
     5    3   26 1   
     6    4    5 2   
     7    4    6 1   
     8    6    8 2   
     9    7    8 1   
    10    7    9 2   
    11    8   18 1   
    12    9   10 1   
    13   10   11 ar  
    14   10   17 ar  
    15   11   12 ar  
    16   11   27 1   
    17   12   13 1   
    18   12   14 ar  
    19   13   28 1   
    20   13   29 1   
    21   13   30 1   
    22   14   15 1   
    23   14   16 ar  
    24   15   31 1   
    25   15   32 1   
    26   15   33 1   
    27   16   17 ar  
    28   16   34 1   
    29   17   18 1   
    30   18   19 1   
    31   19   20 1   
    32   19   35 1   
    33   19   36 1   
    34   20   21 1   
    35   20   37 1   
    36   20   38 1   
    37   21   23 1   
    38   21   39 1   
    39   21   40 1   
    40   22   24 2   
    41   22   25 2   
    42   23   41 1   
    43   23   42 1   
@<TRIPOS>SUBSTRUCTURE
     1 C3F         1 TEMP              0 ****  ****    0 ROOT
