@<TRIPOS>MOLECULE
C3F
   41    43     1     0     0
SMALL
bcc


@<TRIPOS>ATOM
      1 O4         -4.6990    2.2680    0.3320 o         1 C3F     -0.608500
      2 C4         -3.4770    2.3690    0.1250 c         1 C3F      0.613000
      3 N3         -2.9050    3.6250   -0.0120 n         1 C3F     -0.620500
      4 C2         -1.5190    3.8280   -0.2660 c         1 C3F      0.850900
      5 O2         -1.1340    5.0120   -0.3540 o         1 C3F     -0.621500
      6 N1         -0.6410    2.7400   -0.4090 nc        1 C3F     -0.432400
      7 C4A        -2.5500    1.1910    0.0090 cd        1 C3F      0.271800
      8 C10        -1.1160    1.4980   -0.3030 cd        1 C3F      0.086400
      9 N5         -3.0220   -0.0180    0.1860 nc        1 C3F     -0.520000
     10 C5A        -2.1420   -1.0830    0.0790 ca        1 C3F      0.268600
     11 C6         -2.6260   -2.4010    0.3060 ca        1 C3F     -0.124300
     12 C7         -1.7870   -3.4940    0.2280 ca        1 C3F     -0.120300
     13 C7M        -2.3060   -4.8590    0.4780 c3        1 C3F     -0.044800
     14 C8         -0.4170   -3.3060   -0.0900 ca        1 C3F      0.010700
     15 C8M         0.5080   -4.4620   -0.1700 c3        1 C3F     -0.091800
     16 C9          0.0770   -2.0350   -0.3310 ca        1 C3F     -0.167000
     17 C9A        -0.7570   -0.8920   -0.2520 ca        1 C3F     -0.002600
     18 N10        -0.2730    0.4000   -0.4940 na        1 C3F     -0.072100
     19 C1'         1.1350    0.6020   -0.8390 c3        1 C3F     -0.005700
     20 C2'         2.0600    0.8000    0.3600 c3        1 C3F     -0.132400
     21 C3'         3.5150    0.4920   -0.0450 c3        1 C3F      0.089000
     22 C5'         3.4960   -1.9340   -0.5310 c         1 C3F      0.975600
     23 N1'         4.0070   -0.8210    0.2370 n         1 C3F     -0.579900
     24 O2'         3.5220   -3.0770    0.0200 o         1 C3F     -0.849800
     25 O1'         3.0330   -1.7260   -1.6980 o         1 C3F     -0.849800
     26 H3         -3.4890    4.4280    0.0660 hn        1 C3F      0.333500
     27 H6         -3.6920   -2.5360    0.5520 ha        1 C3F      0.145000
     28 H7M1       -2.0190   -5.5420   -0.3610 hc        1 C3F      0.041033
     29 H7M2       -1.8660   -5.2700    1.4220 hc        1 C3F      0.041033
     30 H7M3       -3.4190   -4.8620    0.5760 hc        1 C3F      0.041033
     31 H8M1        0.2770   -5.0670   -1.0810 hc        1 C3F      0.072033
     32 H8M2        1.5830   -4.1210   -0.2290 hc        1 C3F      0.072033
     33 H8M3        0.3880   -5.1170    0.7280 hc        1 C3F      0.072033
     34 H9          1.1560   -1.9480   -0.5900 ha        1 C3F      0.226000
     35 H1'1        1.4930   -0.2850   -1.4520 h1        1 C3F      0.109200
     36 H1'2        1.2090    1.5050   -1.5110 h1        1 C3F      0.109200
     37 H2'1        1.9900    1.8620    0.7090 hc        1 C3F      0.043200
     38 H2'2        1.7510    0.1450    1.2150 hc        1 C3F      0.043200
     39 H3'1        3.6260    0.6670   -1.1530 h1        1 C3F      0.040200
     40 H3'2        4.1730    1.2320    0.4950 h1        1 C3F      0.040200
     41 H1'         4.0600   -1.0270    1.2110 hn        1 C3F      0.248500
@<TRIPOS>BOND
     1    1    2 2   
     2    2    3 1   
     3    2    7 1   
     4    3    4 1   
     5    3   26 1   
     6    4    5 2   
     7    4    6 1   
     8    6    8 2   
     9    7    8 1   
    10    7    9 2   
    11    8   18 1   
    12    9   10 1   
    13   10   11 ar  
    14   10   17 ar  
    15   11   12 ar  
    16   11   27 1   
    17   12   13 1   
    18   12   14 ar  
    19   13   28 1   
    20   13   29 1   
    21   13   30 1   
    22   14   15 1   
    23   14   16 ar  
    24   15   31 1   
    25   15   32 1   
    26   15   33 1   
    27   16   17 ar  
    28   16   34 1   
    29   17   18 1   
    30   18   19 1   
    31   19   20 1   
    32   19   35 1   
    33   19   36 1   
    34   20   21 1   
    35   20   37 1   
    36   20   38 1   
    37   21   23 1   
    38   21   39 1   
    39   21   40 1   
    40   22   23 1   
    41   22   24 1   
    42   22   25 1   
    43   23   41 1   
@<TRIPOS>SUBSTRUCTURE
     1 C3F         1 TEMP              0 ****  ****    0 ROOT
