@<TRIPOS>MOLECULE
C3F
   42    43     1     0     0
SMALL
bcc


@<TRIPOS>ATOM
      1 O4         -0.1530    0.5480    0.0170 o         1 C3F     -0.569500
      2 C4          1.0540    0.2660   -0.0010 c         1 C3F      0.610000
      3 N3          1.7320    0.0210    1.1860 n         1 C3F     -0.615500
      4 C2          3.1180   -0.2770    1.2500 c         1 C3F      0.849900
      5 O2          3.6140   -0.5000    2.3690 o         1 C3F     -0.581500
      6 N1          3.9050   -0.3140    0.0730 nc        1 C3F     -0.415400
      7 C4A         1.8610    0.1650   -1.2720 cd        1 C3F      0.302800
      8 C10         3.3330   -0.0850   -1.0980 cd        1 C3F      0.082400
      9 N5          1.2690    0.2900   -2.4280 nc        1 C3F     -0.516000
     10 C5A         2.0460    0.1730   -3.5800 ca        1 C3F      0.287600
     11 C6          1.4100    0.2520   -4.8430 ca        1 C3F     -0.100300
     12 C7          2.1320    0.1190   -6.0170 ca        1 C3F     -0.109300
     13 C7M         1.4510    0.2110   -7.3300 c3        1 C3F     -0.052800
     14 C8          3.5260   -0.1130   -5.9570 ca        1 C3F     -0.006300
     15 C8M         4.2980   -0.2790   -7.2110 c3        1 C3F     -0.065800
     16 C9          4.1740   -0.1900   -4.7320 ca        1 C3F     -0.182000
     17 C9A         3.4640   -0.0310   -3.5170 ca        1 C3F     -0.004600
     18 N10         4.1050   -0.0540   -2.2710 na        1 C3F     -0.108100
     19 C1'         5.5550   -0.1500   -2.1910 c3        1 C3F      0.033300
     20 C2'         6.0990   -1.5750   -2.2180 c3        1 C3F     -0.146400
     21 C3'         7.6290   -1.5250   -2.1990 c3        1 C3F      0.155800
     22 C5'        11.0550   -3.0170   -1.8980 c1        1 C3F      0.900000
     23 N1'         8.3050   -2.7960   -2.1830 n3        1 C3F     -0.922800
     24 O2'        10.8220   -3.8540   -1.0840 o         1 C3F     -0.452000
     25 O1'        11.3240   -2.1880   -2.7080 o         1 C3F     -0.452000
     26 H3          1.2230    0.0650    2.0430 hn        1 C3F      0.349500
     27 H6          0.3200    0.4210   -4.8800 ha        1 C3F      0.164000
     28 H7M1        1.8850    1.0480   -7.9330 hc        1 C3F      0.050367
     29 H7M2        0.3550    0.3940   -7.2080 hc        1 C3F      0.050367
     30 H7M3        1.5890   -0.7400   -7.9050 hc        1 C3F      0.050367
     31 H8M1        4.2000    0.6390   -7.8450 hc        1 C3F      0.055700
     32 H8M2        5.3830   -0.4550   -7.0090 hc        1 C3F      0.055700
     33 H8M3        3.9000   -1.1470   -7.7950 hc        1 C3F      0.055700
     34 H9          5.2570   -0.3950   -4.7230 ha        1 C3F      0.149000
     35 H1'1        5.8980    0.3530   -1.2400 h1        1 C3F      0.077700
     36 H1'2        5.9900    0.4420   -3.0470 h1        1 C3F      0.077700
     37 H2'1        5.7440   -2.1110   -3.1370 hc        1 C3F      0.058700
     38 H2'2        5.7220   -2.1410   -1.3260 hc        1 C3F      0.058700
     39 H3'1        7.9600   -0.9440   -1.2910 h1        1 C3F      0.056200
     40 H3'2        7.9820   -0.9640   -3.1110 h1        1 C3F      0.056200
     41 H1'         8.1330   -3.2900   -1.3280 hn        1 C3F      0.355800
     42 H1'3        8.0150   -3.3680   -2.9510 hn        1 C3F      0.355800
@<TRIPOS>BOND
     1    1    2 2   
     2    2    3 1   
     3    2    7 1   
     4    3    4 1   
     5    3   26 1   
     6    4    5 2   
     7    4    6 1   
     8    6    8 2   
     9    7    8 1   
    10    7    9 2   
    11    8   18 1   
    12    9   10 1   
    13   10   11 ar  
    14   10   17 ar  
    15   11   12 ar  
    16   11   27 1   
    17   12   13 1   
    18   12   14 ar  
    19   13   28 1   
    20   13   29 1   
    21   13   30 1   
    22   14   15 1   
    23   14   16 ar  
    24   15   31 1   
    25   15   32 1   
    26   15   33 1   
    27   16   17 ar  
    28   16   34 1   
    29   17   18 1   
    30   18   19 1   
    31   19   20 1   
    32   19   35 1   
    33   19   36 1   
    34   20   21 1   
    35   20   37 1   
    36   20   38 1   
    37   21   23 1   
    38   21   39 1   
    39   21   40 1   
    40   22   24 2   
    41   22   25 2   
    42   23   41 1   
    43   23   42 1   
@<TRIPOS>SUBSTRUCTURE
     1 C3F         1 TEMP              0 ****  ****    0 ROOT
