@<TRIPOS>MOLECULE
C3F
   41    38     1     0     0
SMALL
bcc


@<TRIPOS>ATOM
      1 O4         -4.2120   -0.7110    3.3890 o         1 C3F     -0.320000
      2 C4         -2.9840   -0.6550    3.3850 c1        1 C3F      0.359000
      3 N3         -2.2690   -0.7020    4.6080 n2        1 C3F     -0.398000
      4 C2         -0.7970   -0.6210    4.6070 c2        1 C3F      0.370000
      5 O2         -0.1890   -0.7960    5.6310 o         1 C3F     -0.322000
      6 N1         -0.0650   -0.4890    3.3310 n2        1 C3F     -0.276000
      7 C4A        -2.2370   -0.5200    2.0750 c2        1 C3F     -0.128000
      8 C10        -0.7940   -0.4400    2.0720 c2        1 C3F      0.178000
      9 N5         -2.9490   -0.5810    0.8400 n1        1 C3F      0.004000
     10 C5A        -2.2210   -0.6010   -0.4220 c1        1 C3F     -0.116000
     11 C6         -2.9230   -0.6640   -1.6350 c2        1 C3F     -0.045000
     12 C7         -2.2140   -0.6670   -2.8670 c1        1 C3F     -0.110000
     13 C7M        -3.1930   -0.7330   -4.0650 c2        1 C3F     -0.173000
     14 C8         -0.8080   -0.6070   -2.8720 c2        1 C3F      0.001000
     15 C8M        -0.0620   -0.6010   -4.2370 c3        1 C3F     -0.193000
     16 C9         -0.1070   -0.5440   -1.6630 c1        1 C3F     -0.171000
     17 C9A        -0.8160   -0.5410   -0.4260 c1        1 C3F      0.091000
     18 N10        -0.0840   -0.4600    0.8340 n3        1 C3F     -0.157000
     19 C1'         1.3620   -0.4850    0.8290 c3        1 C3F     -0.043000
     20 C2'         1.9090    0.9040    1.2710 c3        1 C3F     -0.195000
     21 C3'         3.4270    0.9890    0.9510 c3        1 C3F     -0.025000
     22 C5'         5.1880    2.7150    0.4200 c1        1 C3F      0.387000
     23 N1'         3.8030    2.3660    0.7830 n3        1 C3F     -0.399000
     24 O2'         5.4170    3.7480   -0.2940 os        1 C3F     -0.571000
     25 O1'         6.1370    1.9280    0.7190 o         1 C3F     -0.570000
     26 H3         -2.7350   -0.7280    5.4200 hn        1 C3F      0.253000
     27 H6         -3.8740   -0.8160   -1.6300 ha        1 C3F      0.153000
     28 H7M1       -2.6920   -0.7560   -4.8890 ha        1 C3F      0.083667
     29 H7M2       -3.7390   -1.5390   -3.9940 ha        1 C3F      0.083667
     30 H7M3       -3.7760    0.0610   -4.0570 ha        1 C3F      0.083667
     31 H8M1        0.9190   -0.5020   -4.0800 hc        1 C3F      0.096667
     32 H8M2       -0.2330   -1.4420   -4.7060 hc        1 C3F      0.096667
     33 H8M3       -0.3930    0.1740   -4.8000 hc        1 C3F      0.096667
     34 H9          0.8580   -0.5320   -1.6650 ha        1 C3F      0.178000
     35 H1'1        1.6840   -1.1860    1.4620 h1        1 C3F      0.122000
     36 H1'2        1.6880   -0.6930   -0.0910 h1        1 C3F      0.122000
     37 H2'1        1.7750    1.0150    2.2130 hc        1 C3F      0.093000
     38 H2'2        1.4440    1.5970    0.7980 hc        1 C3F      0.093000
     39 H3'1        3.9460    0.5930    1.6970 h1        1 C3F      0.059000
     40 H3'2        3.6150    0.4960    0.1250 h1        1 C3F      0.059000
     41 H1'         3.1930    3.0260    0.9340 hn        1 C3F      0.149000
@<TRIPOS>BOND
     1    1    2 1   
     2    2    7 1   
     3    3    4 1   
     4    3   26 1   
     5    4    5 1   
     6    4    6 1   
     7    6    8 1   
     8    7    8 1   
     9    7    9 1   
    10    8   18 1   
    11   10   11 1   
    12   10   17 1   
    13   11   12 1   
    14   11   27 1   
    15   12   14 1   
    16   13   28 1   
    17   13   29 1   
    18   13   30 1   
    19   14   15 1   
    20   14   16 1   
    21   15   31 1   
    22   15   32 1   
    23   15   33 1   
    24   16   34 1   
    25   17   18 1   
    26   18   19 1   
    27   19   20 1   
    28   19   35 1   
    29   19   36 1   
    30   20   21 1   
    31   20   37 1   
    32   20   38 1   
    33   21   23 1   
    34   21   39 1   
    35   21   40 1   
    36   22   23 1   
    37   22   25 1   
    38   23   41 1   
@<TRIPOS>SUBSTRUCTURE
     1 C3F         1 TEMP              0 ****  ****    0 ROOT
