@<TRIPOS>MOLECULE
C3M
   50    51     1     0     0
SMALL
bcc


@<TRIPOS>ATOM
      1 N1          0.2740   -0.6320    1.1690 nz        1 C3M     -0.839600
      2 C2          1.2560    0.3160    0.5460 c3        1 C3M      0.079500
      3 C3          2.2430    0.8410    1.6050 c3        1 C3M     -0.053100
      4 C4          1.5440    1.2990    2.8350 ca        1 C3M     -0.179300
      5 C5          1.3810    0.4230    3.9180 ca        1 C3M     -0.135000
      6 C6          0.7720    0.8650    5.0900 ca        1 C3M     -0.108000
      7 C7          0.3210    2.1830    5.1910 ca        1 C3M     -0.086000
      8 C8          0.4850    3.0590    4.1170 ca        1 C3M     -0.108000
      9 C9          1.0970    2.6210    2.9420 ca        1 C3M     -0.135000
     10 C10         2.0330   -0.3300   -0.6320 c3        1 C3M      0.102100
     11 O11         2.9390    0.6270   -1.1400 oh        1 C3M     -0.578800
     12 C12         1.0850   -0.6800   -1.8030 c3        1 C3M      0.121800
     13 N13         1.7370   -1.0020   -3.0600 n8        1 C3M     -0.980800
     14 S14         0.0440   -1.3800   -4.8050 s4        1 C3M      1.687300
     15 O15        -0.6910   -0.3460   -4.3090 o         1 C3M     -0.446400
     16 O16        -0.1230   -2.6430   -4.3320 o         1 C3M     -0.446400
     17 C17         0.9060   -1.1400   -6.0520 ca        1 C3M     -0.651500
     18 C18         1.6240   -2.2430   -6.6460 ca        1 C3M     -0.053000
     19 C19         2.3570   -2.0940   -7.7840 ca        1 C3M     -0.101000
     20 C20         2.4440   -0.8300   -8.4420 ca        1 C3M      0.073000
     21 C21         3.1840   -0.6520   -9.6300 ca        1 C3M     -0.151000
     22 C22         3.2320    0.5860  -10.2410 ca        1 C3M     -0.014000
     23 C23         2.5450    1.6930   -9.6850 ca        1 C3M     -0.117000
     24 C24         1.8170    1.5520   -8.5300 ca        1 C3M     -0.072000
     25 C25         1.7460    0.2840   -7.8750 ca        1 C3M     -0.103000
     26 C26         1.0030    0.1070   -6.7050 ca        1 C3M      0.121000
     27 H1N1       -0.4890   -0.8380    0.5200 hn        1 C3M      0.466800
     28 H1N2       -0.1070   -0.1920    2.0260 hn        1 C3M      0.466800
     29 H2          0.6570    1.1930    0.1510 hx        1 C3M      0.128700
     30 H3C1        2.9940    0.0440    1.8540 hc        1 C3M      0.092700
     31 H3C2        2.7970    1.7030    1.1390 hc        1 C3M      0.092700
     32 H5          1.7840   -0.6000    3.8690 ha        1 C3M      0.135500
     33 H6          0.6620    0.1790    5.9470 ha        1 C3M      0.164500
     34 H7         -0.1510    2.5350    6.1240 ha        1 C3M      0.169000
     35 H8          0.1450    4.1050    4.2010 ha        1 C3M      0.164500
     36 H9          1.2460    3.3250    2.1090 ha        1 C3M      0.135500
     37 H10         2.5790   -1.2490   -0.2770 h1        1 C3M      0.067700
     38 H11         3.7190    0.6450   -0.5640 ho        1 C3M      0.447000
     39 H121        0.4080    0.2040   -1.9970 h1        1 C3M      0.082200
     40 H122        0.4560   -1.5640   -1.5000 h1        1 C3M      0.082200
     41 H13         2.3580   -0.2510   -3.3220 hn        1 C3M      0.405300
     42 H18         1.5510   -3.2320   -6.1570 ha        1 C3M      0.168000
     43 H19         2.8920   -2.9540   -8.2250 ha        1 C3M      0.181000
     44 H21         3.7190   -1.5130  -10.0660 ha        1 C3M      0.174000
     45 H22         3.8080    0.7250  -11.1740 ha        1 C3M      0.177000
     46 H23         2.6000    2.6690  -10.1980 ha        1 C3M      0.177000
     47 H24         1.2760    2.4080   -8.0950 ha        1 C3M      0.159000
     48 H26         0.4600    0.9760   -6.2810 ha        1 C3M      0.165000
     49 H131        0.7400   -1.5030    1.4380 hn        1 C3M      0.466800
     50 H132        2.2810   -1.8450   -2.9680 hn        1 C3M      0.405300
@<TRIPOS>BOND
     1    1    2 1   
     2    1   27 1   
     3    1   28 1   
     4    1   49 1   
     5    2    3 1   
     6    2   10 1   
     7    2   29 1   
     8    3    4 1   
     9    3   30 1   
    10    3   31 1   
    11    4    5 ar  
    12    4    9 ar  
    13    5    6 ar  
    14    5   32 1   
    15    6    7 ar  
    16    6   33 1   
    17    7    8 ar  
    18    7   34 1   
    19    8    9 ar  
    20    8   35 1   
    21    9   36 1   
    22   10   11 1   
    23   10   12 1   
    24   10   37 1   
    25   11   38 1   
    26   12   13 1   
    27   12   39 1   
    28   12   40 1   
    29   13   41 1   
    30   13   50 1   
    31   14   15 1   
    32   14   16 1   
    33   14   17 1   
    34   17   18 ar  
    35   17   26 ar  
    36   18   19 ar  
    37   18   42 1   
    38   19   20 ar  
    39   19   43 1   
    40   20   21 ar  
    41   20   25 ar  
    42   21   22 ar  
    43   21   44 1   
    44   22   23 ar  
    45   22   45 1   
    46   23   24 ar  
    47   23   46 1   
    48   24   25 ar  
    49   24   47 1   
    50   25   26 ar  
    51   26   48 1   
@<TRIPOS>SUBSTRUCTURE
     1 C3M         1 TEMP              0 ****  ****    0 ROOT
