@<TRIPOS>MOLECULE
C3M
   50    51     1     0     0
SMALL
bcc


@<TRIPOS>ATOM
      1 N1          0.3830   -0.6740    1.1950 n4        1 C3M     -0.839600
      2 C2          1.2940    0.3280    0.5500 c3        1 C3M      0.079500
      3 C3          2.2620    0.9220    1.5890 c3        1 C3M     -0.053100
      4 C4          1.5560    1.3450    2.8270 ca        1 C3M     -0.179300
      5 C5          1.4660    0.4680    3.9180 ca        1 C3M     -0.135000
      6 C6          0.8490    0.8790    5.0970 ca        1 C3M     -0.108000
      7 C7          0.3180    2.1670    5.1970 ca        1 C3M     -0.086000
      8 C8          0.4090    3.0440    4.1160 ca        1 C3M     -0.108000
      9 C9          1.0280    2.6360    2.9330 ca        1 C3M     -0.135000
     10 C10         2.0900   -0.2760   -0.6380 c3        1 C3M      0.102100
     11 O11         2.9250    0.7330   -1.1670 oh        1 C3M     -0.578800
     12 C12         1.1470   -0.6950   -1.7900 c3        1 C3M      0.121800
     13 N13         1.7970   -0.9850   -3.0550 n3        1 C3M     -0.980800
     14 S14         0.1030   -1.4870   -4.7670 s4        1 C3M      1.687300
     15 O15        -0.6870   -0.4960   -4.2690 o         1 C3M     -0.446400
     16 O16         0.0240   -2.7520   -4.2790 o         1 C3M     -0.446400
     17 C17         0.9270   -1.2080   -6.0310 ca        1 C3M     -0.651500
     18 C18         1.7030   -2.2700   -6.6260 ca        1 C3M     -0.053000
     19 C19         2.4070   -2.0870   -7.7780 ca        1 C3M     -0.101000
     20 C20         2.4030   -0.8280   -8.4500 ca        1 C3M      0.073000
     21 C21         3.1110   -0.6170   -9.6520 ca        1 C3M     -0.151000
     22 C22         3.0710    0.6150  -10.2760 ca        1 C3M     -0.014000
     23 C23         2.3240    1.6830   -9.7200 ca        1 C3M     -0.117000
     24 C24         1.6260    1.5090   -8.5500 ca        1 C3M     -0.072000
     25 C25         1.6460    0.2460   -7.8820 ca        1 C3M     -0.103000
     26 C26         0.9350    0.0360   -6.6980 ca        1 C3M      0.121000
     27 H1N1       -0.3750   -0.9340    0.5600 hn        1 C3M      0.466800
     28 H1N2       -0.0110   -0.2530    2.0550 hn        1 C3M      0.466800
     29 H2          0.6340    1.1630    0.1590 hx        1 C3M      0.128700
     30 H3C1        3.0660    0.1770    1.8290 hc        1 C3M      0.092700
     31 H3C2        2.7520    1.8140    1.1070 hc        1 C3M      0.092700
     32 H5          1.9320   -0.5280    3.8680 ha        1 C3M      0.135500
     33 H6          0.7970    0.1940    5.9600 ha        1 C3M      0.164500
     34 H7         -0.1600    2.4950    6.1360 ha        1 C3M      0.169000
     35 H8          0.0050    4.0670    4.1990 ha        1 C3M      0.164500
     36 H9          1.1190    3.3430    2.0940 ha        1 C3M      0.135500
     37 H10         2.7000   -1.1550   -0.2850 h1        1 C3M      0.067700
     38 H11         3.7110    0.8050   -0.6050 ho        1 C3M      0.447000
     39 H121        0.4110    0.1420   -1.9780 h1        1 C3M      0.082200
     40 H122        0.5820   -1.6160   -1.4700 h1        1 C3M      0.082200
     41 H13         2.3630   -0.1970   -3.3330 hn        1 C3M      0.405300
     42 H18         1.7010   -3.2560   -6.1260 ha        1 C3M      0.168000
     43 H19         2.9880   -2.9170   -8.2190 ha        1 C3M      0.181000
     44 H21         3.6920   -1.4480  -10.0880 ha        1 C3M      0.174000
     45 H22         3.6220    0.7790  -11.2200 ha        1 C3M      0.177000
     46 H23         2.3090    2.6550  -10.2430 ha        1 C3M      0.177000
     47 H24         1.0400    2.3340   -8.1150 ha        1 C3M      0.159000
     48 H26         0.3440    0.8740   -6.2740 ha        1 C3M      0.165000
     49 H131        0.9080   -1.5120    1.4620 hn        1 C3M      0.466800
     50 H132        2.3960   -1.7900   -2.9670 hn        1 C3M      0.405300
@<TRIPOS>BOND
     1    1    2 1   
     2    1   27 1   
     3    1   28 1   
     4    1   49 1   
     5    2    3 1   
     6    2   10 1   
     7    2   29 1   
     8    3    4 1   
     9    3   30 1   
    10    3   31 1   
    11    4    5 ar  
    12    4    9 ar  
    13    5    6 ar  
    14    5   32 1   
    15    6    7 ar  
    16    6   33 1   
    17    7    8 ar  
    18    7   34 1   
    19    8    9 ar  
    20    8   35 1   
    21    9   36 1   
    22   10   11 1   
    23   10   12 1   
    24   10   37 1   
    25   11   38 1   
    26   12   13 1   
    27   12   39 1   
    28   12   40 1   
    29   13   41 1   
    30   13   50 1   
    31   14   15 1   
    32   14   16 1   
    33   14   17 1   
    34   17   18 ar  
    35   17   26 ar  
    36   18   19 ar  
    37   18   42 1   
    38   19   20 ar  
    39   19   43 1   
    40   20   21 ar  
    41   20   25 ar  
    42   21   22 ar  
    43   21   44 1   
    44   22   23 ar  
    45   22   45 1   
    46   23   24 ar  
    47   23   46 1   
    48   24   25 ar  
    49   24   47 1   
    50   25   26 ar  
    51   26   48 1   
@<TRIPOS>SUBSTRUCTURE
     1 C3M         1 TEMP              0 ****  ****    0 ROOT
