@<TRIPOS>MOLECULE
C3M
   48    44     1     0     0
SMALL
bcc


@<TRIPOS>ATOM
      1 N1         -1.7240    1.1990    2.4660 n3        1 C3M     -0.335000
      2 C2         -0.6190    1.9870    2.1180 c3        1 C3M     -0.057000
      3 C3          0.1380    2.3910    3.3820 c3        1 C3M     -0.114000
      4 C4         -0.7850    3.2790    4.2820 c2        1 C3M     -0.072000
      5 C5         -1.4820    2.7080    5.3420 c2        1 C3M     -0.103000
      6 C6         -2.3350    3.4900    6.1170 c1        1 C3M     -0.131000
      7 C7         -2.4910    4.8410    5.8300 c1        1 C3M     -0.123250
      8 C8         -1.7960    5.4120    4.7720 c1        1 C3M     -0.123250
      9 C9         -0.9420    4.6300    3.9970 c1        1 C3M     -0.130000
     10 C10         0.3070    1.1900    1.2010 c3        1 C3M     -0.036000
     11 O11         1.5640    1.7810    1.1850 oh        1 C3M     -0.328000
     12 C12        -0.2660    1.1740   -0.2150 c3        1 C3M     -0.004000
     13 N13         0.2650    0.0370   -0.9380 n3        1 C3M     -0.885000
     14 S14        -0.7300   -0.8540   -1.9390 s4        1 C3M      2.070800
     15 O15        -1.3520   -0.0240   -2.9280 o         1 C3M     -0.542400
     16 O16        -1.8690   -1.3450   -1.2320 o         1 C3M     -0.542400
     17 C17         0.1900   -2.1900   -2.6980 c1        1 C3M     -0.826000
     18 C18         0.6830   -3.2140   -1.8930 c2        1 C3M     -0.049000
     19 C19         1.3950   -4.2640   -2.4630 c1        1 C3M     -0.136000
     20 C20         1.6190   -4.2920   -3.8540 c1        1 C3M      0.010000
     21 C21         2.3300   -5.3620   -4.4340 c2        1 C3M     -0.134000
     22 C22         2.5400   -5.3940   -5.8100 c1        1 C3M     -0.102000
     23 C23         2.0470   -4.3700   -6.6130 c1        1 C3M     -0.123250
     24 C24         1.3450   -3.3140   -6.0420 c1        1 C3M     -0.123250
     25 C25         1.1320   -3.2810   -4.6490 c1        1 C3M     -0.073000
     26 C26         0.4100   -2.2160   -4.0710 c2        1 C3M      0.026000
     27 H1N1       -2.4180    1.3770    1.8980 hn        1 C3M      0.150500
     28 H1N2       -1.4990    0.3130    2.4040 hn        1 C3M      0.150500
     29 H2         -0.9260    2.7890    1.6520 h1        1 C3M      0.120000
     30 H3C1        0.9380    2.8980    3.1350 hc        1 C3M      0.084000
     31 H3C2        0.4000    1.5890    3.8750 hc        1 C3M      0.084000
     32 H5         -1.3720    1.7580    5.5440 ha        1 C3M      0.139000
     33 H6         -2.8280    3.0860    6.8670 ha        1 C3M      0.131000
     34 H7         -3.0930    5.3930    6.3770 ha        1 C3M      0.134500
     35 H8         -1.9060    6.3690    4.5700 ha        1 C3M      0.134500
     36 H9         -0.4560    5.0290    3.2570 ha        1 C3M      0.125000
     37 H10         0.3830    0.2760    1.5310 h1        1 C3M      0.079000
     38 H11         2.1800    1.1720    1.3800 ho        1 C3M      0.206000
     39 H121       -1.2410    1.1070   -0.1710 h1        1 C3M      0.101000
     40 H122       -0.0170    2.0010   -0.6770 h1        1 C3M      0.101000
     41 H13         1.1330   -0.2170   -0.8140 hn        1 C3M      0.257000
     42 H18         0.5130   -3.2040   -0.9330 ha        1 C3M      0.151000
     43 H19         1.7420   -4.9840   -1.8960 ha        1 C3M      0.140000
     44 H21         2.6750   -6.0790   -3.8720 ha        1 C3M      0.138000
     45 H22         3.0330   -6.1360   -6.2120 ha        1 C3M      0.137000
     46 H23         2.1950   -4.3920   -7.5800 ha        1 C3M      0.134500
     47 H24         1.0010   -2.5990   -6.6050 ha        1 C3M      0.134500
     48 H26        -0.0080   -1.5460   -4.6430 ha        1 C3M      0.153000
@<TRIPOS>BOND
     1    1    2 1   
     2    1   27 1   
     3    1   28 1   
     4    2    3 1   
     5    2   10 1   
     6    2   29 1   
     7    3    4 1   
     8    3   30 1   
     9    3   31 1   
    10    4    5 1   
    11    4    9 1   
    12    5    6 1   
    13    5   32 1   
    14    6   33 1   
    15    7    8 1   
    16    7   34 1   
    17    8   35 1   
    18    9   36 1   
    19   10   11 1   
    20   10   12 1   
    21   10   37 1   
    22   11   38 1   
    23   12   13 1   
    24   12   39 1   
    25   12   40 1   
    26   13   14 1   
    27   13   41 1   
    28   14   15 1   
    29   14   16 1   
    30   17   18 1   
    31   17   26 1   
    32   18   19 1   
    33   18   42 1   
    34   19   43 1   
    35   20   21 1   
    36   20   25 1   
    37   21   22 1   
    38   21   44 1   
    39   22   45 1   
    40   23   24 1   
    41   23   46 1   
    42   24   47 1   
    43   25   26 1   
    44   26   48 1   
@<TRIPOS>SUBSTRUCTURE
     1 C3M         1 TEMP              0 ****  ****    0 ROOT
