@<TRIPOS>MOLECULE
C3M
   50    51     1     0     0
SMALL
bcc


@<TRIPOS>ATOM
      1 N1          0.2750   -0.5810    1.1800 n4        1 C3M     -0.839600
      2 C2          1.2660    0.3490    0.5440 c3        1 C3M      0.079500
      3 C3          2.2580    0.8790    1.5950 c3        1 C3M     -0.053100
      4 C4          1.5650    1.3620    2.8190 ca        1 C3M     -0.179300
      5 C5          1.3950    0.5020    3.9140 ca        1 C3M     -0.135000
      6 C6          0.7900    0.9650    5.0800 ca        1 C3M     -0.108000
      7 C7          0.3510    2.2890    5.1620 ca        1 C3M     -0.086000
      8 C8          0.5220    3.1480    4.0770 ca        1 C3M     -0.108000
      9 C9          1.1290    2.6880    2.9080 ca        1 C3M     -0.135000
     10 C10         2.0350   -0.3190   -0.6270 c3        1 C3M      0.102100
     11 O11         2.9480    0.6240   -1.1490 oh        1 C3M     -0.578800
     12 C12         1.0820   -0.6780   -1.7910 c3        1 C3M      0.121800
     13 N13         1.7290   -1.0220   -3.0440 n3        1 C3M     -0.980800
     14 S14         0.0310   -1.4110   -4.7820 s4        1 C3M      1.687300
     15 O15        -0.6990   -0.3700   -4.2940 o         1 C3M     -0.446400
     16 O16        -0.1390   -2.6680   -4.2960 o         1 C3M     -0.446400
     17 C17         0.8910   -1.1860   -6.0340 ca        1 C3M     -0.651500
     18 C18         1.6040   -2.2970   -6.6180 ca        1 C3M     -0.053000
     19 C19         2.3350   -2.1610   -7.7590 ca        1 C3M     -0.101000
     20 C20         2.4240   -0.9040   -8.4290 ca        1 C3M      0.073000
     21 C21         3.1630   -0.7400   -9.6210 ca        1 C3M     -0.151000
     22 C22         3.2140    0.4910  -10.2440 ca        1 C3M     -0.014000
     23 C23         2.5300    1.6070   -9.6980 ca        1 C3M     -0.117000
     24 C24         1.8050    1.4790   -8.5390 ca        1 C3M     -0.072000
     25 C25         1.7310    0.2170   -7.8720 ca        1 C3M     -0.103000
     26 C26         0.9900    0.0540   -6.6980 ca        1 C3M      0.121000
     27 H1N1       -0.4900   -0.7890    0.5350 hn        1 C3M      0.466800
     28 H1N2        0.7340   -1.4530    1.4600 hn        1 C3M      0.466800
     29 H2          0.6740    1.2260    0.1370 hx        1 C3M      0.128700
     30 H3C1        3.0020    0.0790    1.8530 hc        1 C3M      0.092700
     31 H3C2        2.8200    1.7300    1.1160 hc        1 C3M      0.092700
     32 H5          1.7890   -0.5250    3.8780 ha        1 C3M      0.135500
     33 H6          0.6750    0.2930    5.9460 ha        1 C3M      0.164500
     34 H7         -0.1160    2.6580    6.0910 ha        1 C3M      0.169000
     35 H8          0.1920    4.1980    4.1460 ha        1 C3M      0.164500
     36 H9          1.2840    3.3800    2.0650 ha        1 C3M      0.135500
     37 H10         2.5740   -1.2370   -0.2600 h1        1 C3M      0.067700
     38 H11         3.7280    0.6430   -0.5750 ho        1 C3M      0.447000
     39 H121        0.4480   -1.5540   -1.4750 h1        1 C3M      0.082200
     40 H122        0.4110    0.2080   -1.9950 h1        1 C3M      0.082200
     41 H13         2.3550   -0.2790   -3.3180 hn        1 C3M      0.405300
     42 H18         1.5280   -3.2810   -6.1200 ha        1 C3M      0.168000
     43 H19         2.8660   -3.0270   -8.1930 ha        1 C3M      0.181000
     44 H21         3.6940   -1.6070  -10.0490 ha        1 C3M      0.174000
     45 H22         3.7880    0.6200  -11.1790 ha        1 C3M      0.177000
     46 H23         2.5870    2.5770  -10.2200 ha        1 C3M      0.177000
     47 H24         1.2680    2.3410   -8.1110 ha        1 C3M      0.159000
     48 H26         0.4500    0.9290   -6.2820 ha        1 C3M      0.165000
     49 H131       -0.1000   -0.1260    2.0320 hn        1 C3M      0.466800
     50 H132        2.2670   -1.8670   -2.9430 hn        1 C3M      0.405300
@<TRIPOS>BOND
     1    1    2 1   
     2    1   27 1   
     3    1   28 1   
     4    1   49 1   
     5    2    3 1   
     6    2   10 1   
     7    2   29 1   
     8    3    4 1   
     9    3   30 1   
    10    3   31 1   
    11    4    5 ar  
    12    4    9 ar  
    13    5    6 ar  
    14    5   32 1   
    15    6    7 ar  
    16    6   33 1   
    17    7    8 ar  
    18    7   34 1   
    19    8    9 ar  
    20    8   35 1   
    21    9   36 1   
    22   10   11 1   
    23   10   12 1   
    24   10   37 1   
    25   11   38 1   
    26   12   13 1   
    27   12   39 1   
    28   12   40 1   
    29   13   41 1   
    30   13   50 1   
    31   14   15 1   
    32   14   16 1   
    33   14   17 1   
    34   17   18 ar  
    35   17   26 ar  
    36   18   19 ar  
    37   18   42 1   
    38   19   20 ar  
    39   19   43 1   
    40   20   21 ar  
    41   20   25 ar  
    42   21   22 ar  
    43   21   44 1   
    44   22   23 ar  
    45   22   45 1   
    46   23   24 ar  
    47   23   46 1   
    48   24   25 ar  
    49   24   47 1   
    50   25   26 ar  
    51   26   48 1   
@<TRIPOS>SUBSTRUCTURE
     1 C3M         1 TEMP              0 ****  ****    0 ROOT
