@<TRIPOS>MOLECULE
C3M
   48    50     1     0     0
SMALL
bcc


@<TRIPOS>ATOM
      1 N1         -2.8010   -0.0750    1.3150 n3        1 C3M     -0.904800
      2 C2         -2.9230    0.3380   -0.0670 c3        1 C3M      0.140500
      3 C3         -4.2890    0.9490   -0.4440 c3        1 C3M     -0.081100
      4 C4         -5.3970   -0.0230   -0.2540 ca        1 C3M     -0.085300
      5 C5         -6.0580   -0.1120    0.9780 ca        1 C3M     -0.131000
      6 C6         -7.0990   -1.0220    1.1540 ca        1 C3M     -0.125000
      7 C7         -7.4890   -1.8520    0.1030 ca        1 C3M     -0.129000
      8 C8         -6.8360   -1.7670   -1.1270 ca        1 C3M     -0.125000
      9 C9         -5.7960   -0.8570   -1.3060 ca        1 C3M     -0.131000
     10 C10        -1.8250    1.3510   -0.4800 c3        1 C3M      0.126100
     11 O11        -1.9130    1.6190   -1.8690 oh        1 C3M     -0.595800
     12 C12        -0.4230    0.8200   -0.1150 c3        1 C3M      0.201800
     13 N13         0.6410    1.6590   -0.5800 n3        1 C3M     -0.923100
     14 S14         1.9580    2.0360    0.2710 sy        1 C3M      1.518200
     15 O15         1.6650    2.0460    1.6530 o         1 C3M     -0.656300
     16 O16         2.5200    3.2100   -0.2770 o         1 C3M     -0.656300
     17 C17         3.0040    0.7430   -0.0330 ca        1 C3M     -0.377500
     18 C18         3.8310    0.7700   -1.1870 ca        1 C3M     -0.046000
     19 C19         4.7050   -0.2510   -1.4580 ca        1 C3M     -0.136000
     20 C20         4.8050   -1.3670   -0.5820 ca        1 C3M      0.010000
     21 C21         5.6980   -2.4430   -0.8340 ca        1 C3M     -0.134000
     22 C22         5.7750   -3.5020    0.0380 ca        1 C3M     -0.103000
     23 C23         4.9660   -3.5350    1.2000 ca        1 C3M     -0.136000
     24 C24         4.0940   -2.5090    1.4680 ca        1 C3M     -0.098000
     25 C25         3.9930   -1.4020    0.5810 ca        1 C3M     -0.074000
     26 C26         3.0990   -0.3280    0.8310 ca        1 C3M      0.026000
     27 H1N1       -2.8390    0.7170    1.9270 hn        1 C3M      0.356300
     28 H1N2       -3.5480   -0.7030    1.5480 hn        1 C3M      0.356300
     29 H2         -2.7820   -0.5940   -0.6950 h1        1 C3M      0.060700
     30 H3C1       -4.4710    1.8670    0.1750 hc        1 C3M      0.064200
     31 H3C2       -4.2410    1.2770   -1.5180 hc        1 C3M      0.064200
     32 H5         -5.7610    0.5480    1.8070 ha        1 C3M      0.130500
     33 H6         -7.6140   -1.0840    2.1240 ha        1 C3M      0.133000
     34 H7         -8.3100   -2.5700    0.2430 ha        1 C3M      0.133000
     35 H8         -7.1440   -2.4170   -1.9590 ha        1 C3M      0.133000
     36 H9         -5.2860   -0.7890   -2.2780 ha        1 C3M      0.130500
     37 H10        -2.0120    2.3510    0.0030 h1        1 C3M      0.086700
     38 H11        -1.7630    0.7860   -2.3340 ho        1 C3M      0.400000
     39 H121       -0.3500    0.7270    1.0080 h1        1 C3M      0.062700
     40 H122       -0.3170   -0.2120   -0.5630 h1        1 C3M      0.062700
     41 H13         0.4750    2.0410   -1.4830 hn        1 C3M      0.457800
     42 H18         3.7710    1.6470   -1.8540 ha        1 C3M      0.151000
     43 H19         5.3460   -0.2230   -2.3520 ha        1 C3M      0.140000
     44 H21         6.3250   -2.4090   -1.7380 ha        1 C3M      0.138000
     45 H22         6.4660   -4.3360   -0.1540 ha        1 C3M      0.136000
     46 H23         5.0490   -4.3940    1.8830 ha        1 C3M      0.137000
     47 H24         3.4630   -2.5230    2.3700 ha        1 C3M      0.139000
     48 H26         2.4810   -0.3560    1.7470 ha        1 C3M      0.155000
@<TRIPOS>BOND
     1    1    2 1   
     2    1   27 1   
     3    1   28 1   
     4    2    3 1   
     5    2   10 1   
     6    2   29 1   
     7    3    4 1   
     8    3   30 1   
     9    3   31 1   
    10    4    5 ar  
    11    4    9 ar  
    12    5    6 ar  
    13    5   32 1   
    14    6    7 ar  
    15    6   33 1   
    16    7    8 ar  
    17    7   34 1   
    18    8    9 ar  
    19    8   35 1   
    20    9   36 1   
    21   10   11 1   
    22   10   12 1   
    23   10   37 1   
    24   11   38 1   
    25   12   13 1   
    26   12   39 1   
    27   12   40 1   
    28   13   14 1   
    29   13   41 1   
    30   14   15 2   
    31   14   16 2   
    32   14   17 1   
    33   17   18 ar  
    34   17   26 ar  
    35   18   19 ar  
    36   18   42 1   
    37   19   20 ar  
    38   19   43 1   
    39   20   21 ar  
    40   20   25 ar  
    41   21   22 ar  
    42   21   44 1   
    43   22   23 ar  
    44   22   45 1   
    45   23   24 ar  
    46   23   46 1   
    47   24   25 ar  
    48   24   47 1   
    49   25   26 ar  
    50   26   48 1   
@<TRIPOS>SUBSTRUCTURE
     1 C3M         1 TEMP              0 ****  ****    0 ROOT
