@<TRIPOS>MOLECULE
C3O
   84    82     1     0     0
SMALL
bcc


@<TRIPOS>ATOM
      1 C5          2.1240   -2.5610    2.1530 c1        1 C3O     -0.062000
      2 C4          1.2980   -3.3860    3.0160 c2        1 C3O     -0.112000
      3 C3          2.1710   -4.6520    3.7040 c3        1 C3O      0.039000
      4 C2          3.2790   -4.3110    4.2780 c3        1 C3O     -0.021000
      5 C1          4.3760   -3.5080    3.2960 c3        1 C3O      0.041000
      6 C10         3.7540   -2.3870    2.5850 c2        1 C3O     -0.072000
      7 C6          1.5990   -1.9390    1.0110 c1        1 C3O     -0.119000
      8 C7          0.0970   -2.1240    0.6440 c1        1 C3O     -0.154000
      9 C8         -0.8070   -1.0940    0.8710 c1        1 C3O     -0.074000
     10 C14        -1.6270   -0.4170   -0.3850 c2        1 C3O     -0.070000
     11 C13        -0.7880    0.2980   -1.2990 c3        1 C3O     -0.028000
     12 C12         0.4410    0.6760   -0.7200 c3        1 C3O     -0.152000
     13 C11         0.6170    1.1260    0.5200 c3        1 C3O     -0.153000
     14 C9         -0.2740    0.3790    1.5520 c3        1 C3O     -0.125000
     15 C15        -2.5820    0.6530    0.2230 c3        1 C3O     -0.152000
     16 C16        -2.6440    1.8340   -0.7730 c3        1 C3O     -0.160000
     17 C17        -1.6490    1.5800   -1.7880 c3        1 C3O     -0.096000
     18 C19         4.4460   -1.2750    2.2870 c1        1 C3O     -0.185000
     19 O2          2.4910   -5.6420    2.6180 oh        1 C3O     -0.319000
     20 O1          5.5270   -3.0940    4.0250 oh        1 C3O     -0.323000
     21 C20        -2.3320    1.2840   -3.1090 c3        1 C3O     -0.088000
     22 C22        -1.9090    2.3350   -4.1570 c3        1 C3O     -0.157000
     23 C18        -0.5090   -0.5720   -2.4770 c3        1 C3O     -0.203000
     24 C21        -1.9460   -0.0660   -3.5820 c3        1 C3O     -0.207000
     25 C23        -3.0730    3.3410   -4.3840 c3        1 C3O     -0.159000
     26 C24        -3.0150    3.8680   -5.8290 c3        1 C3O     -0.143000
     27 C25        -3.5270    5.3180   -5.8700 c3        1 C3O      0.076000
     28 O25        -2.9550    6.0580   -4.7890 oh        1 C3O     -0.325000
     29 C27        -5.0660    5.3220   -5.7410 c3        1 C3O     -0.241000
     30 C26        -3.1240    5.9670   -7.2080 c3        1 C3O     -0.241000
     31 O28         2.9550   -3.4280    5.4360 os        1 C3O     -0.269000
     32 C29         3.3730   -3.9550    6.7020 c3        1 C3O     -0.023000
     33 C30         3.1930   -2.8750    7.7950 c3        1 C3O     -0.165000
     34 C31         4.3120   -2.9980    8.8270 c3        1 C3O     -0.210000
     35 H41         0.8570   -2.9000    3.7330 ha        1 C3O      0.107500
     36 H42         0.5190   -3.7030    2.5000 ha        1 C3O      0.107500
     37 H3          1.6110   -5.0870    4.3580 h1        1 C3O      0.088000
     38 H2          3.7100   -5.1230    4.6210 h1        1 C3O      0.064000
     39 H1          4.7820   -4.1390    2.6490 h1        1 C3O      0.100000
     40 H6          2.1790   -1.3850    0.4430 ha        1 C3O      0.125000
     41 H7         -0.2120   -2.9680    0.2650 ha        1 C3O      0.127000
     42 H14        -2.1540   -1.1130   -0.8700 ha        1 C3O      0.091000
     43 H121        0.8100    1.3660   -1.3080 hc        1 C3O      0.085000
     44 H122        1.0310   -0.1120   -0.8060 hc        1 C3O      0.085000
     45 H111        0.4000    2.0820    0.5450 hc        1 C3O      0.081500
     46 H112        1.5750    1.0060    0.7760 hc        1 C3O      0.081500
     47 H91        -1.0040    0.8730    1.9210 hc        1 C3O      0.088000
     48 H92         0.2540    0.2230    2.3470 hc        1 C3O      0.088000
     49 H151       -2.2320    0.9630    1.0880 hc        1 C3O      0.084000
     50 H152       -3.4800    0.2690    0.3440 hc        1 C3O      0.084000
     51 H161       -2.4420    2.6800   -0.3070 hc        1 C3O      0.080500
     52 H162       -3.5530    1.8810   -1.1900 hc        1 C3O      0.080500
     53 H17        -1.0620    2.3590   -1.8830 hc        1 C3O      0.089000
     54 H191        4.0110   -0.5430    1.8120 DU        1 C3O      0.114000
     55 H192        5.3940   -1.1970    2.5500 ha        1 C3O      0.131000
     56 HO2         2.3420   -6.4610    2.9110 ho        1 C3O      0.196000
     57 HO1         6.2020   -3.6470    3.8520 ho        1 C3O      0.197000
     58 H20        -3.2980    1.3190   -2.9870 hc        1 C3O      0.079000
     59 H221       -1.1280    2.8110   -3.8410 hc        1 C3O      0.080500
     60 H222       -1.7010    1.8920   -4.9910 hc        1 C3O      0.080500
     61 H181        0.1680   -1.2620   -2.2280 hc        1 C3O      0.075000
     62 H182       -0.1590   -0.0220   -3.2140 hc        1 C3O      0.075000
     63 H183       -1.3390   -1.0130   -2.7630 hc        1 C3O      0.075000
     64 H211       -2.4010   -0.2560   -4.4430 hc        1 C3O      0.072667
     65 H212       -0.9900   -0.1010   -3.7100 hc        1 C3O      0.072667
     66 H213       -2.2140   -0.7370   -2.9140 hc        1 C3O      0.072667
     67 H231       -3.9180    2.8950   -4.2370 hc        1 C3O      0.088000
     68 H232       -2.9880    4.0770   -3.7700 hc        1 C3O      0.088000
     69 H241       -2.0910    3.8390   -6.1480 hc        1 C3O      0.086500
     70 H242       -3.5780    3.3060   -6.4050 hc        1 C3O      0.086500
     71 H25        -3.1750    6.8980   -4.8640 ho        1 C3O      0.196000
     72 H271       -5.3170    5.2890   -4.7850 hc        1 C3O      0.081667
     73 H272       -5.4280    6.1460   -6.1480 hc        1 C3O      0.081667
     74 H273       -5.4380    4.5330   -6.2070 hc        1 C3O      0.081667
     75 H261       -3.3820    6.9160   -7.2030 hc        1 C3O      0.081667
     76 H262       -3.5790    5.5090   -7.9420 hc        1 C3O      0.081667
     77 H263       -2.1580    5.8920   -7.3270 hc        1 C3O      0.081667
     78 H291        4.3160   -4.2150    6.6520 h1        1 C3O      0.076500
     79 H292        2.8310   -4.7370    6.9230 h1        1 C3O      0.076500
     80 H301        2.3160   -2.9990    8.2430 hc        1 C3O      0.091500
     81 H302        3.2270   -1.9870    7.3850 hc        1 C3O      0.091500
     82 H311        4.2360   -3.8580    9.2930 hc        1 C3O      0.074333
     83 H312        4.2380   -2.2650    9.4770 hc        1 C3O      0.074333
     84 H313        5.1850   -2.9470    8.3720 hc        1 C3O      0.074333
@<TRIPOS>BOND
     1    1    6 1   
     2    1    7 1   
     3    2    3 1   
     4    2   35 1   
     5    2   36 1   
     6    3    4 1   
     7    3   19 1   
     8    3   37 1   
     9    4    5 1   
    10    4   31 1   
    11    4   38 1   
    12    5    6 1   
    13    5   20 1   
    14    5   39 1   
    15    6   18 1   
    16    7   40 1   
    17    8    9 1   
    18    8   41 1   
    19    9   14 1   
    20   10   11 1   
    21   10   15 1   
    22   10   42 1   
    23   11   12 1   
    24   11   17 1   
    25   11   23 1   
    26   12   13 1   
    27   12   43 1   
    28   12   44 1   
    29   13   14 1   
    30   13   45 1   
    31   13   46 1   
    32   14   47 1   
    33   14   48 1   
    34   15   16 1   
    35   15   49 1   
    36   15   50 1   
    37   16   17 1   
    38   16   51 1   
    39   16   52 1   
    40   17   21 1   
    41   17   53 1   
    42   18   55 1   
    43   19   56 1   
    44   20   57 1   
    45   21   22 1   
    46   21   24 1   
    47   21   58 1   
    48   22   25 1   
    49   22   59 1   
    50   22   60 1   
    51   23   61 1   
    52   23   62 1   
    53   23   63 1   
    54   24   64 1   
    55   24   65 1   
    56   24   66 1   
    57   25   26 1   
    58   25   67 1   
    59   25   68 1   
    60   26   27 1   
    61   26   69 1   
    62   26   70 1   
    63   27   28 1   
    64   27   29 1   
    65   27   30 1   
    66   28   71 1   
    67   29   72 1   
    68   29   73 1   
    69   29   74 1   
    70   30   75 1   
    71   30   76 1   
    72   30   77 1   
    73   31   32 1   
    74   32   33 1   
    75   32   78 1   
    76   32   79 1   
    77   33   34 1   
    78   33   80 1   
    79   33   81 1   
    80   34   82 1   
    81   34   83 1   
    82   34   84 1   
@<TRIPOS>SUBSTRUCTURE
     1 C3O         1 TEMP              0 ****  ****    0 ROOT
