@<TRIPOS>MOLECULE
C3O
   84    86     1     0     0
SMALL
bcc


@<TRIPOS>ATOM
      1 C5          0.1330    0.0650    0.2030 ce        1 C3O     -0.079200
      2 C4          1.6190    0.0750    0.0630 c3        1 C3O     -0.037200
      3 C3          2.2930    0.3770    1.3970 c3        1 C3O      0.153100
      4 C2          1.7740    1.7150    1.9520 c3        1 C3O      0.067100
      5 C1          0.2510    1.6580    2.1660 c3        1 C3O      0.167300
      6 C10        -0.4480    1.2080    0.9080 ce        1 C3O     -0.075200
      7 C6         -0.5900   -0.9470   -0.3200 cf        1 C3O     -0.103000
      8 C7         -2.0250   -1.0800   -0.2160 cf        1 C3O     -0.152000
      9 C8         -2.8090   -1.7890   -1.0460 c2        1 C3O     -0.079400
     10 C14        -4.2820   -1.8990   -0.8810 c3        1 C3O     -0.036500
     11 C13        -4.7300   -3.3870   -0.8200 c3        1 C3O     -0.039000
     12 C12        -4.3820   -4.0060   -2.1650 c3        1 C3O     -0.067400
     13 C11        -2.8940   -3.8880   -2.4440 c3        1 C3O     -0.073400
     14 C9         -2.3390   -2.4830   -2.2830 c3        1 C3O     -0.044200
     15 C15        -4.9880   -1.2570    0.3040 c3        1 C3O     -0.074400
     16 C16        -6.3140   -2.0100    0.4130 c3        1 C3O     -0.078400
     17 C17        -6.2400   -3.2360   -0.5220 c3        1 C3O     -0.053700
     18 C19        -1.5370    1.8550    0.4760 c2        1 C3O     -0.190000
     19 O2          3.6880    0.4480    1.1540 oh        1 C3O     -0.600800
     20 O1         -0.1050    0.7680    3.2160 oh        1 C3O     -0.590800
     21 C20        -6.9470   -4.4500    0.0710 c3        1 C3O     -0.054700
     22 C22        -8.4200   -4.1310    0.3240 c3        1 C3O     -0.079400
     23 C18        -4.0280   -4.1230    0.3090 c3        1 C3O     -0.083100
     24 C21        -6.8450   -5.6600   -0.8380 c3        1 C3O     -0.092100
     25 C23        -9.0240   -5.0410    1.3730 c3        1 C3O     -0.079400
     26 C24       -10.4770   -4.6920    1.6170 c3        1 C3O     -0.064400
     27 C25       -11.1830   -5.6910    2.5400 c3        1 C3O      0.147800
     28 O25       -11.1600   -6.9460    1.8570 oh        1 C3O     -0.597800
     29 C27       -10.4770   -5.8160    3.8840 c3        1 C3O     -0.123100
     30 C26       -12.6290   -5.2510    2.7540 c3        1 C3O     -0.123100
     31 O28         2.4320    1.8920    3.2080 os        1 C3O     -0.442600
     32 C29         2.5290    3.2600    3.6090 c3        1 C3O      0.128400
     33 C30         3.2380    3.2680    4.9520 c3        1 C3O     -0.085400
     34 C31         3.3900    4.6760    5.4620 c3        1 C3O     -0.094100
     35 H41         1.9980   -0.9110   -0.3120 hc        1 C3O      0.063700
     36 H42         1.9190    0.8550   -0.6870 hc        1 C3O      0.063700
     37 H3          2.0760   -0.4360    2.1450 h1        1 C3O      0.058700
     38 H2          2.0320    2.5500    1.2470 h1        1 C3O      0.066700
     39 H1         -0.1080    2.6890    2.4580 h1        1 C3O      0.036700
     40 H6         -0.0590   -1.7640   -0.8420 ha        1 C3O      0.124000
     41 H7         -2.4820   -0.5490    0.6410 ha        1 C3O      0.138000
     42 H14        -4.7360   -1.4500   -1.8160 hc        1 C3O      0.053700
     43 H121       -4.6730   -5.0880   -2.1850 hc        1 C3O      0.042200
     44 H122       -4.9610   -3.4890   -2.9740 hc        1 C3O      0.042200
     45 H111       -2.6920   -4.2330   -3.4930 hc        1 C3O      0.040700
     46 H112       -2.3390   -4.5810   -1.7560 hc        1 C3O      0.040700
     47 H91        -1.2190   -2.5370   -2.3120 hc        1 C3O      0.046700
     48 H92        -2.6600   -1.8590   -3.1630 hc        1 C3O      0.046700
     49 H151       -4.3910   -1.3790    1.2430 hc        1 C3O      0.045700
     50 H152       -5.1490   -0.1640    0.1400 hc        1 C3O      0.045700
     51 H161       -7.1650   -1.3510    0.1120 hc        1 C3O      0.041700
     52 H162       -6.4870   -2.3330    1.4700 hc        1 C3O      0.041700
     53 H17        -6.7540   -2.9820   -1.4910 hc        1 C3O      0.045700
     54 H191       -1.9670    2.7080    1.0180 ha        1 C3O      0.120500
     55 H192       -2.0600    1.5680   -0.4460 ha        1 C3O      0.120500
     56 HO2         4.0990    0.6830    1.9960 ho        1 C3O      0.415000
     57 HO1         0.6040    0.8090    3.8730 ho        1 C3O      0.415000
     58 H20        -6.4620   -4.7000    1.0560 hc        1 C3O      0.050700
     59 H221       -8.9900   -4.2310   -0.6370 hc        1 C3O      0.040200
     60 H222       -8.5330   -3.0680    0.6640 hc        1 C3O      0.040200
     61 H181       -4.2310   -5.2190    0.2470 hc        1 C3O      0.038033
     62 H182       -4.3870   -3.7480    1.2980 hc        1 C3O      0.038033
     63 H183       -2.9240   -3.9620    0.2560 hc        1 C3O      0.038033
     64 H211       -5.8230   -6.1070   -0.7890 hc        1 C3O      0.035033
     65 H212       -7.5790   -6.4430   -0.5280 hc        1 C3O      0.035033
     66 H213       -7.0600   -5.3770   -1.8970 hc        1 C3O      0.035033
     67 H231       -8.4460   -4.9440    2.3300 hc        1 C3O      0.048700
     68 H232       -8.9560   -6.1130    1.0480 hc        1 C3O      0.048700
     69 H241      -10.5560   -3.6740    2.0780 hc        1 C3O      0.047200
     70 H242      -11.0240   -4.6740    0.6380 hc        1 C3O      0.047200
     71 H25       -11.6010   -7.5820    2.4320 ho        1 C3O      0.397000
     72 H271       -9.4890   -6.3190    3.7510 hc        1 C3O      0.042200
     73 H272      -11.0920   -6.4240    4.5900 hc        1 C3O      0.042200
     74 H273      -10.3140   -4.8060    4.3270 hc        1 C3O      0.042200
     75 H261      -12.6560   -4.2530    3.2510 hc        1 C3O      0.042200
     76 H262      -13.1570   -5.1850    1.7730 hc        1 C3O      0.042200
     77 H263      -13.1670   -5.9890    3.3970 hc        1 C3O      0.042200
     78 H291        3.1130    3.8340    2.8410 h1        1 C3O      0.033200
     79 H292        1.5010    3.7000    3.6940 h1        1 C3O      0.033200
     80 H301        4.2440    2.7840    4.8410 hc        1 C3O      0.054200
     81 H302        2.6530    2.6500    5.6820 hc        1 C3O      0.054200
     82 H311        2.3910    5.1590    5.5940 hc        1 C3O      0.037700
     83 H312        3.9880    5.2940    4.7490 hc        1 C3O      0.037700
     84 H313        3.9120    4.6710    6.4490 hc        1 C3O      0.037700
@<TRIPOS>BOND
     1    1    2 1   
     2    1    6 1   
     3    1    7 2   
     4    2    3 1   
     5    2   35 1   
     6    2   36 1   
     7    3    4 1   
     8    3   19 1   
     9    3   37 1   
    10    4    5 1   
    11    4   31 1   
    12    4   38 1   
    13    5    6 1   
    14    5   20 1   
    15    5   39 1   
    16    6   18 2   
    17    7    8 1   
    18    7   40 1   
    19    8    9 2   
    20    8   41 1   
    21    9   10 1   
    22    9   14 1   
    23   10   11 1   
    24   10   15 1   
    25   10   42 1   
    26   11   12 1   
    27   11   17 1   
    28   11   23 1   
    29   12   13 1   
    30   12   43 1   
    31   12   44 1   
    32   13   14 1   
    33   13   45 1   
    34   13   46 1   
    35   14   47 1   
    36   14   48 1   
    37   15   16 1   
    38   15   49 1   
    39   15   50 1   
    40   16   17 1   
    41   16   51 1   
    42   16   52 1   
    43   17   21 1   
    44   17   53 1   
    45   18   54 1   
    46   18   55 1   
    47   19   56 1   
    48   20   57 1   
    49   21   22 1   
    50   21   24 1   
    51   21   58 1   
    52   22   25 1   
    53   22   59 1   
    54   22   60 1   
    55   23   61 1   
    56   23   62 1   
    57   23   63 1   
    58   24   64 1   
    59   24   65 1   
    60   24   66 1   
    61   25   26 1   
    62   25   67 1   
    63   25   68 1   
    64   26   27 1   
    65   26   69 1   
    66   26   70 1   
    67   27   28 1   
    68   27   29 1   
    69   27   30 1   
    70   28   71 1   
    71   29   72 1   
    72   29   73 1   
    73   29   74 1   
    74   30   75 1   
    75   30   76 1   
    76   30   77 1   
    77   31   32 1   
    78   32   33 1   
    79   32   78 1   
    80   32   79 1   
    81   33   34 1   
    82   33   80 1   
    83   33   81 1   
    84   34   82 1   
    85   34   83 1   
    86   34   84 1   
@<TRIPOS>SUBSTRUCTURE
     1 C3O         1 TEMP              0 ****  ****    0 ROOT
