@<TRIPOS>MOLECULE
C3O
   84    86     1     0     0
SMALL
bcc


@<TRIPOS>ATOM
      1 C5          3.8470    1.3910    0.1870 ce        1 C3O     -0.094200
      2 C4          5.1170    1.8750   -0.4290 c3        1 C3O     -0.041200
      3 C3          5.9550    0.7050   -0.9330 c3        1 C3O      0.154100
      4 C2          6.2230   -0.2980    0.2040 c3        1 C3O      0.075100
      5 C1          4.9230   -0.8000    0.8530 c3        1 C3O      0.159300
      6 C10         4.0070    0.3470    1.1990 ce        1 C3O     -0.116200
      7 C6          2.6630    1.9250   -0.1770 cf        1 C3O     -0.102000
      8 C7          1.3780    1.5140    0.3380 cf        1 C3O     -0.158000
      9 C8          0.2450    2.2370    0.2920 c2        1 C3O     -0.071400
     10 C14        -1.0500    1.7530    0.8380 c3        1 C3O     -0.038500
     11 C13        -2.1690    1.8090   -0.2400 c3        1 C3O     -0.039000
     12 C12        -2.3550    3.2740   -0.6050 c3        1 C3O     -0.067400
     13 C11        -1.0580    3.8690   -1.1250 c3        1 C3O     -0.073400
     14 C9          0.1410    3.6370   -0.2200 c3        1 C3O     -0.046200
     15 C15        -1.1800    0.3570    1.4280 c3        1 C3O     -0.074400
     16 C16        -2.6790    0.0570    1.3710 c3        1 C3O     -0.078400
     17 C17        -3.3480    1.1520    0.5150 c3        1 C3O     -0.053700
     18 C19         3.3930    0.3900    2.3870 c2        1 C3O     -0.180000
     19 O2          7.1750    1.2470   -1.4110 oh        1 C3O     -0.599800
     20 O1          4.2710   -1.7660    0.0490 oh        1 C3O     -0.581800
     21 C20        -4.4840    0.5960   -0.3370 c3        1 C3O     -0.054700
     22 C22        -5.5530   -0.0340    0.5550 c3        1 C3O     -0.079400
     23 C18        -1.7900    0.9930   -1.4640 c3        1 C3O     -0.083100
     24 C21        -5.1190    1.6700   -1.1990 c3        1 C3O     -0.092100
     25 C23        -6.3940   -1.0460   -0.1950 c3        1 C3O     -0.080400
     26 C24        -7.4250   -1.6770    0.7160 c3        1 C3O     -0.104400
     27 C25        -8.4420   -2.5340   -0.0460 c3        1 C3O      0.147800
     28 O25        -9.0930   -1.7600   -1.0550 oh        1 C3O     -0.596800
     29 C27        -7.7660   -3.6830   -0.7830 c3        1 C3O     -0.103600
     30 C26        -9.4790   -3.0730    0.9350 c3        1 C3O     -0.103600
     31 O28         6.9480   -1.3560   -0.4200 os        1 C3O     -0.431600
     32 C29         7.3560   -2.3850    0.4820 c3        1 C3O      0.129400
     33 C30         8.3710   -3.2340   -0.2620 c3        1 C3O     -0.085400
     34 C31         8.8350   -4.3800    0.5980 c3        1 C3O     -0.093100
     35 H41         5.7080    2.4490    0.3340 hc        1 C3O      0.066700
     36 H42         4.9170    2.5680   -1.2870 hc        1 C3O      0.066700
     37 H3          5.4280    0.1740   -1.7750 h1        1 C3O      0.045700
     38 H2          6.8660    0.1840    0.9920 h1        1 C3O      0.059700
     39 H1          5.1830   -1.3770    1.7900 h1        1 C3O      0.074700
     40 H6          2.6540    2.7180   -0.9480 ha        1 C3O      0.126000
     41 H7          1.3590    0.5080    0.7990 ha        1 C3O      0.135000
     42 H14        -1.3350    2.4830    1.6560 hc        1 C3O      0.054700
     43 H121       -2.6980    3.8430    0.2990 hc        1 C3O      0.043200
     44 H122       -3.1470    3.3840   -1.3900 hc        1 C3O      0.043200
     45 H111       -1.1940    4.9740   -1.2590 hc        1 C3O      0.041200
     46 H112       -0.8400    3.4370   -2.1380 hc        1 C3O      0.041200
     47 H91         0.0620    4.3170    0.6730 hc        1 C3O      0.048200
     48 H92         1.0680    3.9330   -0.7760 hc        1 C3O      0.048200
     49 H151       -0.7930    0.3190    2.4750 hc        1 C3O      0.045700
     50 H152       -0.6100   -0.3910    0.8230 hc        1 C3O      0.045700
     51 H161       -3.1170    0.0540    2.4000 hc        1 C3O      0.042700
     52 H162       -2.8520   -0.9530    0.9220 hc        1 C3O      0.042700
     53 H17        -3.7870    1.9290    1.2020 hc        1 C3O      0.045700
     54 H191        2.7260    1.2150    2.6720 ha        1 C3O      0.121000
     55 H192        3.5220   -0.3960    3.1430 ha        1 C3O      0.121000
     56 HO2         7.7310    0.4950   -1.6570 ho        1 C3O      0.419000
     57 HO1         4.1080   -1.3630   -0.8130 ho        1 C3O      0.407000
     58 H20        -4.0660   -0.2050   -1.0110 hc        1 C3O      0.052700
     59 H221       -5.0740   -0.5460    1.4310 hc        1 C3O      0.039200
     60 H222       -6.2110    0.7750    0.9690 hc        1 C3O      0.039200
     61 H181       -0.7720    1.2760   -1.8240 hc        1 C3O      0.038033
     62 H182       -1.7810   -0.0970   -1.2160 hc        1 C3O      0.038033
     63 H183       -2.5200    1.1650   -2.2900 hc        1 C3O      0.038033
     64 H211       -5.3030    2.5960   -0.6030 hc        1 C3O      0.035033
     65 H212       -4.4580    1.9270   -2.0620 hc        1 C3O      0.035033
     66 H213       -6.0960    1.3150   -1.6090 hc        1 C3O      0.035033
     67 H231       -6.9170   -0.5580   -1.0590 hc        1 C3O      0.049700
     68 H232       -5.7300   -1.8450   -0.6190 hc        1 C3O      0.049700
     69 H241       -6.9170   -2.3200    1.4800 hc        1 C3O      0.042700
     70 H242       -7.9780   -0.8710    1.2670 hc        1 C3O      0.042700
     71 H25        -9.5090   -1.0140   -0.6080 ho        1 C3O      0.397000
     72 H271       -7.1300   -4.2600   -0.0730 hc        1 C3O      0.043533
     73 H272       -8.5380   -4.3600   -1.2210 hc        1 C3O      0.043533
     74 H273       -7.1330   -3.2870   -1.6120 hc        1 C3O      0.043533
     75 H261       -9.9590   -2.2360    1.4940 hc        1 C3O      0.043533
     76 H262      -10.2710   -3.6300    0.3790 hc        1 C3O      0.043533
     77 H263       -8.9920   -3.7620    1.6630 hc        1 C3O      0.043533
     78 H291        6.4550   -2.9910    0.7680 h1        1 C3O      0.035700
     79 H292        7.8090   -1.9320    1.4040 h1        1 C3O      0.035700
     80 H301        9.2420   -2.5950   -0.5600 hc        1 C3O      0.052700
     81 H302        7.9050   -3.6210   -1.2060 hc        1 C3O      0.052700
     82 H311        9.3160   -4.0040    1.5340 hc        1 C3O      0.036033
     83 H312        7.9750   -5.0330    0.8840 hc        1 C3O      0.036033
     84 H313        9.5800   -5.0000    0.0430 hc        1 C3O      0.036033
@<TRIPOS>BOND
     1    1    2 1   
     2    1    6 1   
     3    1    7 2   
     4    2    3 1   
     5    2   35 1   
     6    2   36 1   
     7    3    4 1   
     8    3   19 1   
     9    3   37 1   
    10    4    5 1   
    11    4   31 1   
    12    4   38 1   
    13    5    6 1   
    14    5   20 1   
    15    5   39 1   
    16    6   18 2   
    17    7    8 1   
    18    7   40 1   
    19    8    9 2   
    20    8   41 1   
    21    9   10 1   
    22    9   14 1   
    23   10   11 1   
    24   10   15 1   
    25   10   42 1   
    26   11   12 1   
    27   11   17 1   
    28   11   23 1   
    29   12   13 1   
    30   12   43 1   
    31   12   44 1   
    32   13   14 1   
    33   13   45 1   
    34   13   46 1   
    35   14   47 1   
    36   14   48 1   
    37   15   16 1   
    38   15   49 1   
    39   15   50 1   
    40   16   17 1   
    41   16   51 1   
    42   16   52 1   
    43   17   21 1   
    44   17   53 1   
    45   18   54 1   
    46   18   55 1   
    47   19   56 1   
    48   20   57 1   
    49   21   22 1   
    50   21   24 1   
    51   21   58 1   
    52   22   25 1   
    53   22   59 1   
    54   22   60 1   
    55   23   61 1   
    56   23   62 1   
    57   23   63 1   
    58   24   64 1   
    59   24   65 1   
    60   24   66 1   
    61   25   26 1   
    62   25   67 1   
    63   25   68 1   
    64   26   27 1   
    65   26   69 1   
    66   26   70 1   
    67   27   28 1   
    68   27   29 1   
    69   27   30 1   
    70   28   71 1   
    71   29   72 1   
    72   29   73 1   
    73   29   74 1   
    74   30   75 1   
    75   30   76 1   
    76   30   77 1   
    77   31   32 1   
    78   32   33 1   
    79   32   78 1   
    80   32   79 1   
    81   33   34 1   
    82   33   80 1   
    83   33   81 1   
    84   34   82 1   
    85   34   83 1   
    86   34   84 1   
@<TRIPOS>SUBSTRUCTURE
     1 C3O         1 TEMP              0 ****  ****    0 ROOT
