@<TRIPOS>MOLECULE
C3O
   84    86     1     0     0
SMALL
bcc


@<TRIPOS>ATOM
      1 C5          0.1380    0.0610    0.2130 ce        1 C3O     -0.079200
      2 C4          1.6240    0.0680    0.0750 c3        1 C3O     -0.037200
      3 C3          2.2960    0.3700    1.4110 c3        1 C3O      0.153100
      4 C2          1.7780    1.7080    1.9640 c3        1 C3O      0.067100
      5 C1          0.2550    1.6530    2.1750 c3        1 C3O      0.167300
      6 C10        -0.4420    1.2040    0.9170 ce        1 C3O     -0.075200
      7 C6         -0.5850   -0.9510   -0.3120 cf        1 C3O     -0.103000
      8 C7         -2.0200   -1.0820   -0.2110 cf        1 C3O     -0.152000
      9 C8         -2.8040   -1.7890   -1.0430 c2        1 C3O     -0.079400
     10 C14        -4.2770   -1.8970   -0.8810 c3        1 C3O     -0.036500
     11 C13        -4.7270   -3.3850   -0.8220 c3        1 C3O     -0.039000
     12 C12        -4.3770   -4.0030   -2.1670 c3        1 C3O     -0.067400
     13 C11        -2.8880   -3.8880   -2.4420 c3        1 C3O     -0.073400
     14 C9         -2.3320   -2.4830   -2.2800 c3        1 C3O     -0.044200
     15 C15        -4.9850   -1.2550    0.3030 c3        1 C3O     -0.074400
     16 C16        -6.3130   -2.0070    0.4080 c3        1 C3O     -0.078400
     17 C17        -6.2370   -3.2310   -0.5280 c3        1 C3O     -0.053700
     18 C19        -1.5300    1.8520    0.4830 c2        1 C3O     -0.190000
     19 O2          3.6920    0.4380    1.1700 oh        1 C3O     -0.600800
     20 O1         -0.1040    0.7640    3.2250 oh        1 C3O     -0.590800
     21 C20        -6.9480   -4.4450    0.0630 c3        1 C3O     -0.054700
     22 C22        -8.4210   -4.1240    0.3130 c3        1 C3O     -0.079400
     23 C18        -4.0290   -4.1220    0.3080 c3        1 C3O     -0.083100
     24 C21        -6.8450   -5.6550   -0.8470 c3        1 C3O     -0.092100
     25 C23        -9.0290   -5.0350    1.3610 c3        1 C3O     -0.079400
     26 C24       -10.4810   -4.6840    1.6020 c3        1 C3O     -0.064400
     27 C25       -11.1910   -5.6830    2.5210 c3        1 C3O      0.147800
     28 O25       -11.1680   -6.9370    1.8370 oh        1 C3O     -0.597800
     29 C27       -10.4880   -5.8110    3.8670 c3        1 C3O     -0.123100
     30 C26       -12.6370   -5.2410    2.7330 c3        1 C3O     -0.123100
     31 O28         2.4340    1.8840    3.2210 os        1 C3O     -0.442600
     32 C29         2.5330    3.2520    3.6220 c3        1 C3O      0.128400
     33 C30         3.2410    3.2590    4.9650 c3        1 C3O     -0.085400
     34 C31         3.3940    4.6680    5.4760 c3        1 C3O     -0.094100
     35 H41         2.0030   -0.9190   -0.2990 hc        1 C3O      0.063700
     36 H42         1.9270    0.8480   -0.6750 hc        1 C3O      0.063700
     37 H3          2.0760   -0.4430    2.1590 h1        1 C3O      0.058700
     38 H2          2.0380    2.5430    1.2600 h1        1 C3O      0.066700
     39 H1         -0.1040    2.6850    2.4670 h1        1 C3O      0.036700
     40 H6         -0.0540   -1.7680   -0.8330 ha        1 C3O      0.124000
     41 H7         -2.4780   -0.5500    0.6460 ha        1 C3O      0.138000
     42 H14        -4.7290   -1.4470   -1.8170 hc        1 C3O      0.053700
     43 H121       -4.9540   -3.4850   -2.9770 hc        1 C3O      0.042200
     44 H122       -4.6690   -5.0850   -2.1880 hc        1 C3O      0.042200
     45 H111       -2.6850   -4.2320   -3.4910 hc        1 C3O      0.040700
     46 H112       -2.3360   -4.5810   -1.7540 hc        1 C3O      0.040700
     47 H91        -1.2120   -2.5390   -2.3070 hc        1 C3O      0.046700
     48 H92        -2.6510   -1.8590   -3.1600 hc        1 C3O      0.046700
     49 H151       -5.1440   -0.1620    0.1380 hc        1 C3O      0.045700
     50 H152       -4.3900   -1.3780    1.2420 hc        1 C3O      0.045700
     51 H161       -6.4880   -2.3300    1.4640 hc        1 C3O      0.041700
     52 H162       -7.1620   -1.3460    0.1060 hc        1 C3O      0.041700
     53 H17        -6.7490   -2.9760   -1.4970 hc        1 C3O      0.045700
     54 H191       -2.0520    1.5660   -0.4410 ha        1 C3O      0.120500
     55 H192       -1.9600    2.7060    1.0240 ha        1 C3O      0.120500
     56 HO2         4.1010    0.6730    2.0130 ho        1 C3O      0.415000
     57 HO1         0.6030    0.8050    3.8840 ho        1 C3O      0.415000
     58 H20        -6.4650   -4.6960    1.0500 hc        1 C3O      0.050700
     59 H221       -8.9880   -4.2220   -0.6490 hc        1 C3O      0.040200
     60 H222       -8.5330   -3.0620    0.6540 hc        1 C3O      0.040200
     61 H181       -4.3890   -3.7470    1.2970 hc        1 C3O      0.038033
     62 H182       -4.2330   -5.2180    0.2450 hc        1 C3O      0.038033
     63 H183       -2.9250   -3.9630    0.2570 hc        1 C3O      0.038033
     64 H211       -5.8240   -6.1030   -0.7950 hc        1 C3O      0.035033
     65 H212       -7.5800   -6.4380   -0.5380 hc        1 C3O      0.035033
     66 H213       -7.0580   -5.3700   -1.9050 hc        1 C3O      0.035033
     67 H231       -8.4530   -4.9400    2.3190 hc        1 C3O      0.048700
     68 H232       -8.9610   -6.1060    1.0340 hc        1 C3O      0.048700
     69 H241      -10.5590   -3.6660    2.0640 hc        1 C3O      0.047200
     70 H242      -11.0260   -4.6640    0.6210 hc        1 C3O      0.047200
     71 H25       -11.6120   -7.5730    2.4100 ho        1 C3O      0.397000
     72 H271      -11.1050   -6.4190    4.5700 hc        1 C3O      0.042200
     73 H272      -10.3250   -4.8010    4.3110 hc        1 C3O      0.042200
     74 H273       -9.5010   -6.3150    3.7350 hc        1 C3O      0.042200
     75 H261      -13.1620   -5.1730    1.7500 hc        1 C3O      0.042200
     76 H262      -12.6630   -4.2440    3.2310 hc        1 C3O      0.042200
     77 H263      -13.1770   -5.9790    3.3730 hc        1 C3O      0.042200
     78 H291        1.5040    3.6930    3.7070 h1        1 C3O      0.033200
     79 H292        3.1180    3.8260    2.8550 h1        1 C3O      0.033200
     80 H301        4.2460    2.7740    4.8550 hc        1 C3O      0.054200
     81 H302        2.6540    2.6430    5.6950 hc        1 C3O      0.054200
     82 H311        3.9160    4.6630    6.4630 hc        1 C3O      0.037700
     83 H312        2.3960    5.1530    5.6070 hc        1 C3O      0.037700
     84 H313        3.9930    5.2850    4.7630 hc        1 C3O      0.037700
@<TRIPOS>BOND
     1    1    2 1   
     2    1    6 1   
     3    1    7 2   
     4    2    3 1   
     5    2   35 1   
     6    2   36 1   
     7    3    4 1   
     8    3   19 1   
     9    3   37 1   
    10    4    5 1   
    11    4   31 1   
    12    4   38 1   
    13    5    6 1   
    14    5   20 1   
    15    5   39 1   
    16    6   18 2   
    17    7    8 1   
    18    7   40 1   
    19    8    9 2   
    20    8   41 1   
    21    9   10 1   
    22    9   14 1   
    23   10   11 1   
    24   10   15 1   
    25   10   42 1   
    26   11   12 1   
    27   11   17 1   
    28   11   23 1   
    29   12   13 1   
    30   12   43 1   
    31   12   44 1   
    32   13   14 1   
    33   13   45 1   
    34   13   46 1   
    35   14   47 1   
    36   14   48 1   
    37   15   16 1   
    38   15   49 1   
    39   15   50 1   
    40   16   17 1   
    41   16   51 1   
    42   16   52 1   
    43   17   21 1   
    44   17   53 1   
    45   18   54 1   
    46   18   55 1   
    47   19   56 1   
    48   20   57 1   
    49   21   22 1   
    50   21   24 1   
    51   21   58 1   
    52   22   25 1   
    53   22   59 1   
    54   22   60 1   
    55   23   61 1   
    56   23   62 1   
    57   23   63 1   
    58   24   64 1   
    59   24   65 1   
    60   24   66 1   
    61   25   26 1   
    62   25   67 1   
    63   25   68 1   
    64   26   27 1   
    65   26   69 1   
    66   26   70 1   
    67   27   28 1   
    68   27   29 1   
    69   27   30 1   
    70   28   71 1   
    71   29   72 1   
    72   29   73 1   
    73   29   74 1   
    74   30   75 1   
    75   30   76 1   
    76   30   77 1   
    77   31   32 1   
    78   32   33 1   
    79   32   78 1   
    80   32   79 1   
    81   33   34 1   
    82   33   80 1   
    83   33   81 1   
    84   34   82 1   
    85   34   83 1   
    86   34   84 1   
@<TRIPOS>SUBSTRUCTURE
     1 C3O         1 TEMP              0 ****  ****    0 ROOT
