@<TRIPOS>MOLECULE
C3P
   33    34     1     0     0
SMALL
bcc


@<TRIPOS>ATOM
      1 P          -0.4480   -0.5070   -3.9290 p5        1 C3P      1.321900
      2 O1P         0.8630    0.2420   -3.9350 o         1 C3P     -0.920500
      3 O2P        -0.5100   -1.7950   -4.6860 o         1 C3P     -0.920500
      4 O3P        -1.6810    0.3420   -3.8820 o         1 C3P     -0.920500
      5 O5'         3.0320    0.9860   -2.1010 oh        1 C3P     -0.672800
      6 C5'         2.3940    0.8010   -0.8600 c3        1 C3P      0.151400
      7 C4'         1.4790   -0.4200   -0.8630 c3        1 C3P      0.070100
      8 O4'         1.3840   -0.9310    0.4880 os        1 C3P     -0.443600
      9 C3'         0.0510   -0.0960   -1.3890 c3        1 C3P      0.205100
     10 O3'        -0.4130   -1.0510   -2.2420 os        1 C3P     -0.552200
     11 C2'        -0.8090   -0.0730   -0.0870 c3        1 C3P      0.098100
     12 O2'        -2.0760   -0.6650   -0.2100 oh        1 C3P     -0.641800
     13 C1'         0.0270   -0.9180    0.9200 c3        1 C3P      0.271500
     14 N1         -0.0490   -0.4880    2.3300 n         1 C3P     -0.336000
     15 C2          0.3140    0.8380    2.7710 c         1 C3P      0.823900
     16 N3          0.2050    1.1810    4.1400 nc        1 C3P     -0.729100
     17 C4         -0.2060    0.2580    5.0120 cd        1 C3P      0.701500
     18 C5         -0.5750   -1.0840    4.6020 cd        1 C3P     -0.480600
     19 C6         -0.4620   -1.3910    3.2620 cc        1 C3P      0.092600
     20 O2          0.7000    1.6830    1.9440 o         1 C3P     -0.582500
     21 N4         -0.2420    0.5550    6.3900 nh        1 C3P     -0.887800
     22 HO5'        2.3690    0.8280   -2.8120 ho        1 C3P      0.497000
     23 H5'1        1.8110    1.7210   -0.5830 h1        1 C3P      0.017200
     24 H5'2        3.2210    0.6630   -0.1110 h1        1 C3P      0.017200
     25 H3'         0.0450    0.9230   -1.8740 h1        1 C3P      0.081700
     26 H2'1       -0.9560    0.9760    0.2810 h1        1 C3P      0.062700
     27 HO2'       -2.1410   -1.0290   -1.1130 ho        1 C3P      0.463000
     28 H1'        -0.3370   -1.9920    0.8890 h2        1 C3P      0.058700
     29 H5         -0.9110   -1.8310    5.3240 ha        1 C3P      0.135000
     30 H6         -0.7250   -2.4050    2.8980 h4        1 C3P      0.155000
     31 HN41       -0.1760    1.5250    6.6150 hn        1 C3P      0.386800
     32 HN42       -0.9900    0.0960    6.8600 hn        1 C3P      0.386800
     33 H4'         1.9350   -1.2520   -1.4640 h1        1 C3P      0.089700
@<TRIPOS>BOND
     1    1    2 1   
     2    1    3 1   
     3    1    4 1   
     4    1   10 1   
     5    5    6 1   
     6    5   22 1   
     7    6    7 1   
     8    6   23 1   
     9    6   24 1   
    10    7    8 1   
    11    7    9 1   
    12    7   33 1   
    13    8   13 1   
    14    9   10 1   
    15    9   11 1   
    16    9   25 1   
    17   11   12 1   
    18   11   13 1   
    19   11   26 1   
    20   12   27 1   
    21   13   14 1   
    22   13   28 1   
    23   14   15 1   
    24   14   19 1   
    25   15   16 1   
    26   15   20 2   
    27   16   17 2   
    28   17   18 1   
    29   17   21 1   
    30   18   19 2   
    31   18   29 1   
    32   19   30 1   
    33   21   31 1   
    34   21   32 1   
@<TRIPOS>SUBSTRUCTURE
     1 C3P         1 TEMP              0 ****  ****    0 ROOT
