@<TRIPOS>MOLECULE
C3P
   33    32     1     0     0
SMALL
bcc


@<TRIPOS>ATOM
      1 P           0.6250   -2.5190   -3.1190 p3        1 C3P      2.516000
      2 O1P        -0.8180   -2.4790   -3.5620 o         1 C3P     -1.229500
      3 O2P         1.3340   -1.2760   -3.6020 os        1 C3P     -1.253000
      4 O3P         1.2970   -3.7400   -3.7020 o         1 C3P     -1.229500
      5 O5'         3.9380   -0.6460    0.8650 oh        1 C3P     -0.398000
      6 C5'         2.9660   -0.7130   -0.1550 c3        1 C3P      0.012000
      7 C4'         1.6940   -1.2400    0.4070 c3        1 C3P     -0.066000
      8 O4'         1.2330   -0.4290    1.3070 os        1 C3P     -0.295000
      9 C3'         0.5420   -1.3250   -0.7760 c3        1 C3P      0.077000
     10 O3'         0.6910   -2.5840   -1.5410 os        1 C3P     -0.701000
     11 C2'        -0.5450   -1.3090   -0.1960 c3        1 C3P     -0.023000
     12 O2'        -1.0010   -2.7050    0.0860 oh        1 C3P     -0.361000
     13 C1'        -0.2670   -0.5230    1.1840 c3        1 C3P      0.110000
     14 N1         -0.7860    0.6530    1.1400 n         1 C3P     -0.248000
     15 C2          0.0440    1.8280    1.3980 c2        1 C3P      0.345000
     16 N3         -0.5620    3.1580    1.4460 n2        1 C3P     -0.319000
     17 C4         -1.9410    3.3210    1.1520 c1        1 C3P      0.185000
     18 C5         -2.7610    2.1500    0.8100 c1        1 C3P     -0.384000
     19 C6         -2.1540    0.8110    0.8000 c2        1 C3P      0.096000
     20 O2          1.2250    1.6920    1.6500 o         1 C3P     -0.370000
     21 N4         -2.5080    4.6210    1.1090 n3        1 C3P     -0.333000
     22 HO5'        4.7490   -0.7080    0.5060 ho        1 C3P      0.301000
     23 H5'1        3.2800   -1.3080   -0.8670 h1        1 C3P      0.047500
     24 H5'2        2.8140    0.1830   -0.5210 h1        1 C3P      0.047500
     25 H4'         1.8400   -2.1260    0.7960 h1        1 C3P      0.126000
     26 H3'         0.6160   -0.5540   -1.3750 h1        1 C3P      0.111000
     27 H2'1       -1.2110   -0.8330   -0.7320 h1        1 C3P      0.096000
     28 HO2'       -1.8900   -2.7300    0.0990 ho        1 C3P      0.255000
     29 H1'        -0.6350   -1.0260    1.9370 h2        1 C3P      0.154000
     30 H5         -3.7200    2.2510    0.6630 ha        1 C3P      0.148000
     31 H6         -2.7060    0.0270    0.6170 h4        1 C3P      0.206000
     32 HN41       -3.3920    4.7270    0.8990 hn        1 C3P      0.188000
     33 HN42       -1.9880    5.3520    1.2780 hn        1 C3P      0.188000
@<TRIPOS>BOND
     1    1    2 1   
     2    1    4 1   
     3    1   10 1   
     4    5    6 1   
     5    5   22 1   
     6    6    7 1   
     7    6   23 1   
     8    6   24 1   
     9    7    8 1   
    10    7    9 1   
    11    7   25 1   
    12    8   13 1   
    13    9   10 1   
    14    9   11 1   
    15    9   26 1   
    16   11   12 1   
    17   11   13 1   
    18   11   27 1   
    19   12   28 1   
    20   13   14 1   
    21   13   29 1   
    22   14   15 1   
    23   14   19 1   
    24   15   16 1   
    25   15   20 1   
    26   16   17 1   
    27   17   21 1   
    28   18   19 1   
    29   18   30 1   
    30   19   31 1   
    31   21   32 1   
    32   21   33 1   
@<TRIPOS>SUBSTRUCTURE
     1 C3P         1 TEMP              0 ****  ****    0 ROOT
