@<TRIPOS>MOLECULE
C3Q
   89    93     1     0     0
SMALL
bcc


@<TRIPOS>ATOM
      1 C1        -13.1700   -0.0620    0.2250 c3        1 C3Q     -0.069400
      2 C2        -12.4270   -1.0980   -0.6120 c3        1 C3Q     -0.061700
      3 C3        -12.3510   -0.6250   -2.0600 c3        1 C3Q     -0.069400
      4 C4        -11.0170   -1.2770   -0.0630 c3        1 C3Q     -0.065400
      5 C5        -12.4250    1.2670    0.1640 c3        1 C3Q     -0.061700
      6 C6        -12.3500    1.7410   -1.2840 c3        1 C3Q     -0.069400
      7 C7        -11.0140    1.0880    0.7160 c3        1 C3Q     -0.065400
      8 C8        -11.6060    0.7040   -2.1200 c3        1 C3Q     -0.061700
      9 C9        -10.2500    0.0530   -0.1160 c3        1 C3Q     -0.048000
     10 C10       -10.1950    0.5280   -1.5710 c3        1 C3Q     -0.065400
     11 C11         9.9680    1.7330    1.6820 ca        1 C3Q     -0.188000
     12 C12         9.1700    0.7500    2.3010 ca        1 C3Q     -0.080000
     13 C13         8.3990   -0.1040    1.5560 ca        1 C3Q     -0.177000
     14 C14        10.0230    1.8360    0.2980 ca        1 C3Q      0.143600
     15 C15         9.2510    0.9140   -0.5040 ca        1 C3Q     -0.064000
     16 C16         8.4040   -0.0330    0.1340 ca        1 C3Q      0.073000
     17 C17         7.5910   -0.9030   -0.6550 ca        1 C3Q     -0.374500
     18 C18         7.7050   -0.8590   -2.0330 ca        1 C3Q      0.006000
     19 C19         8.5900    0.0300   -2.6700 ca        1 C3Q     -0.179000
     20 C20         9.3410    0.9050   -1.9220 ca        1 C3Q     -0.035000
     21 C21        10.1480    3.8940   -0.9610 c3        1 C3Q      0.166100
     22 C22        12.0330    3.1950    0.3760 c3        1 C3Q      0.166100
     23 C23        -6.6420    0.8270    1.0890 c         1 C3Q      0.654100
     24 N2         -5.8530   -0.2770    0.8290 n         1 C3Q     -0.570900
     25 C24        -4.5770   -0.4880    1.4520 c3        1 C3Q      0.086000
     26 C25        -3.3790   -0.3350    0.5110 c3        1 C3Q     -0.104400
     27 C26        -2.0960   -0.6310    1.2570 c3        1 C3Q     -0.077400
     28 C27        -0.8910   -0.4720    0.3550 c3        1 C3Q     -0.078400
     29 C28         0.3920   -0.7780    1.0980 c3        1 C3Q     -0.079400
     30 C29         1.5980   -0.6070    0.1990 c3        1 C3Q     -0.078400
     31 C30         2.8780   -0.9270    0.9400 c3        1 C3Q     -0.095400
     32 C31         4.0800   -0.7310    0.0130 c3        1 C3Q      0.224800
     33 N3          5.3450   -1.0180    0.6250 n3        1 C3Q     -0.919100
     34 S1          6.4690   -1.9960    0.0020 sy        1 C3Q      1.513200
     35 O2          7.0660   -2.7340    1.0440 o         1 C3Q     -0.657300
     36 O3         -6.3350    1.6510    1.9740 o         1 C3Q     -0.610100
     37 H1        -14.2110    0.0680   -0.1680 hc        1 C3Q      0.041200
     38 H1A       -13.2410   -0.4100    1.2860 hc        1 C3Q      0.041200
     39 H2        -12.9710   -2.0780   -0.5650 hc        1 C3Q      0.048700
     40 H3        -11.8180   -1.3890   -2.6820 hc        1 C3Q      0.041200
     41 H3A       -13.3840   -0.5010   -2.4740 hc        1 C3Q      0.041200
     42 H4        -11.0650   -1.6370    0.9970 hc        1 C3Q      0.041533
     43 H4A       -10.4730   -2.0480   -0.6670 hc        1 C3Q      0.041533
     44 H5        -12.9690    2.0310    0.7810 hc        1 C3Q      0.048700
     45 H6        -13.3830    1.8860   -1.6900 hc        1 C3Q      0.041200
     46 H6A       -11.8160    2.7240   -1.3350 hc        1 C3Q      0.041200
     47 H7        -10.4780    2.0710    0.6910 hc        1 C3Q      0.041533
     48 H7A       -11.0640    0.7490    1.7820 hc        1 C3Q      0.041533
     49 H8        -11.5490    1.0530   -3.1860 hc        1 C3Q      0.048700
     50 H10        -9.6350   -0.2190   -2.1890 hc        1 C3Q      0.041533
     51 H10A       -9.6510    1.5060   -1.6300 hc        1 C3Q      0.041533
     52 H11        10.5510    2.4100    2.3260 ha        1 C3Q      0.138000
     53 H12         9.1730    0.6810    3.4000 ha        1 C3Q      0.137000
     54 H13         7.8100   -0.8840    2.0650 ha        1 C3Q      0.154000
     55 H18         7.0940   -1.5390   -2.6570 ha        1 C3Q      0.164000
     56 H19         8.6720    0.0140   -3.7680 ha        1 C3Q      0.142000
     57 H20        10.0330    1.5960   -2.4310 ha        1 C3Q      0.151000
     58 H22         9.8430    4.6740   -0.2100 h1        1 C3Q      0.038867
     59 H22A       10.8260    4.3730   -1.7170 h1        1 C3Q      0.038867
     60 H22B        9.2270    3.5190   -1.4800 h1        1 C3Q      0.038867
     61 H23        12.5340    2.2920    0.8140 h1        1 C3Q      0.038867
     62 H23A       12.7360    3.6870   -0.3480 h1        1 C3Q      0.038867
     63 H23B       11.8100    3.9240    1.2030 h1        1 C3Q      0.038867
     64 HN25       -6.0750   -0.8460    0.0480 hn        1 C3Q      0.304500
     65 H26        -4.4670    0.2390    2.3070 h1        1 C3Q      0.061200
     66 H26A       -4.5660   -1.5330    1.8780 h1        1 C3Q      0.061200
     67 H27        -3.4780   -1.0340   -0.3600 hc        1 C3Q      0.043700
     68 H27A       -3.3450    0.7090    0.1020 hc        1 C3Q      0.043700
     69 H28        -2.0030    0.0610    2.1350 hc        1 C3Q      0.043200
     70 H28A       -2.1280   -1.6780    1.6620 hc        1 C3Q      0.043200
     71 H29        -0.9880   -1.1580   -0.5270 hc        1 C3Q      0.041200
     72 H29A       -0.8560    0.5760   -0.0430 hc        1 C3Q      0.041200
     73 H30         0.4840   -0.0990    1.9860 hc        1 C3Q      0.042200
     74 H30A        0.3600   -1.8300    1.4880 hc        1 C3Q      0.042200
     75 H31         1.5010   -1.2800   -0.6940 hc        1 C3Q      0.043200
     76 H31A        1.6350    0.4470   -0.1830 hc        1 C3Q      0.043200
     77 H32         2.9730   -0.2610    1.8370 hc        1 C3Q      0.048200
     78 H32A        2.8460   -1.9850    1.3100 hc        1 C3Q      0.048200
     79 H33         3.9540   -1.4000   -0.8890 h1        1 C3Q      0.052200
     80 H33A        4.0740    0.3400   -0.3500 h1        1 C3Q      0.052200
     81 HN34        5.4830   -0.5510    1.4890 hn        1 C3Q      0.445800
     82 C33        -8.8510   -0.1810    0.4480 c3        1 C3Q     -0.066400
     83 H39        -8.4040    1.9410    0.6160 hc        1 C3Q      0.071700
     84 H39A       -7.6400    1.1180   -0.8070 hc        1 C3Q      0.071700
     85 H48        -8.9460   -0.4210    1.5410 hc        1 C3Q      0.046200
     86 H49        -8.4140   -1.0850   -0.0560 hc        1 C3Q      0.046200
     87 C32        -7.9130    0.9920    0.2740 c3        1 C3Q     -0.154400
     88 N1         10.8590    2.7860   -0.3600 nh        1 C3Q     -0.644000
     89 O1          5.9240   -2.7570   -1.0600 o         1 C3Q     -0.657300
@<TRIPOS>BOND
     1    1    2 1   
     2    1    5 1   
     3    1   37 1   
     4    1   38 1   
     5    2    3 1   
     6    2    4 1   
     7    2   39 1   
     8    3    8 1   
     9    3   40 1   
    10    3   41 1   
    11    4    9 1   
    12    4   42 1   
    13    4   43 1   
    14    5    6 1   
    15    5    7 1   
    16    5   44 1   
    17    6    8 1   
    18    6   45 1   
    19    6   46 1   
    20    7    9 1   
    21    7   47 1   
    22    7   48 1   
    23    8   10 1   
    24    8   49 1   
    25    9   10 1   
    26    9   82 1   
    27   10   50 1   
    28   10   51 1   
    29   11   12 ar  
    30   11   14 ar  
    31   11   52 1   
    32   12   13 ar  
    33   12   53 1   
    34   13   16 ar  
    35   13   54 1   
    36   14   15 ar  
    37   14   88 1   
    38   15   16 ar  
    39   15   20 ar  
    40   16   17 ar  
    41   17   18 ar  
    42   17   34 1   
    43   18   19 ar  
    44   18   55 1   
    45   19   20 ar  
    46   19   56 1   
    47   20   57 1   
    48   21   58 1   
    49   21   59 1   
    50   21   60 1   
    51   21   88 1   
    52   22   61 1   
    53   22   62 1   
    54   22   63 1   
    55   22   88 1   
    56   23   24 1   
    57   23   36 2   
    58   23   87 1   
    59   24   25 1   
    60   24   64 1   
    61   25   26 1   
    62   25   65 1   
    63   25   66 1   
    64   26   27 1   
    65   26   67 1   
    66   26   68 1   
    67   27   28 1   
    68   27   69 1   
    69   27   70 1   
    70   28   29 1   
    71   28   71 1   
    72   28   72 1   
    73   29   30 1   
    74   29   73 1   
    75   29   74 1   
    76   30   31 1   
    77   30   75 1   
    78   30   76 1   
    79   31   32 1   
    80   31   77 1   
    81   31   78 1   
    82   32   33 1   
    83   32   79 1   
    84   32   80 1   
    85   33   34 1   
    86   33   81 1   
    87   34   35 2   
    88   34   89 2   
    89   82   85 1   
    90   82   86 1   
    91   82   87 1   
    92   83   87 1   
    93   84   87 1   
@<TRIPOS>SUBSTRUCTURE
     1 C3Q         1 TEMP              0 ****  ****    0 ROOT
