@<TRIPOS>MOLECULE
C3Q
   92    90     1     0     0
SMALL
bcc


@<TRIPOS>ATOM
      1 C1         76.3270  434.8820   33.4450 c1        1 C3Q     -0.098000
      2 C2         75.5790  434.4880   32.2740 c3        1 C3Q     -0.266000
      3 C3         80.2330  436.7780   32.1390 c1        1 C3Q      0.190000
      4 C4         80.2650  435.4700   31.7790 cx        1 C3Q     -0.230000
      5 C5         75.7380  435.4870   34.5840 c2        1 C3Q     -0.246000
      6 C6         74.6680  436.3010   34.5840 c2        1 C3Q     -0.088000
      7 C7         78.9420  433.2840   35.9920 cx        1 C3Q     -0.233000
      8 C8         80.1980  438.0180   32.4760 c2        1 C3Q     -0.190000
      9 C9         80.0790  434.4010   32.8910 cu        1 C3Q     -0.126000
     10 C10        81.3910  434.5270   32.3510 cx        1 C3Q     -0.016000
     11 C11       -56.1970 -330.1520  -26.4890 ca        1 C3Q     -0.079000
     12 C12       -57.0970 -329.2460  -25.9330 ca        1 C3Q     -0.072000
     13 C13       -56.7330 -328.4590  -24.8380 ca        1 C3Q     -0.100000
     14 C14       -54.9080 -330.2640  -25.9370 ca        1 C3Q     -0.102000
     15 C15       -54.5320 -329.4760  -24.8370 ca        1 C3Q     -0.088000
     16 C16       -55.4470 -328.5640  -24.2860 ca        1 C3Q     -0.026000
     17 C17       -55.0620 -327.7620  -23.1180 c2        1 C3Q     -1.054000
     18 C18       -55.7400 -327.9630  -21.9320 c2        1 C3Q      0.244000
     19 C19       -56.8260 -328.8570  -21.7740 c2        1 C3Q     -0.523000
     20 C20       -57.4720 -329.5300  -22.7320 c1        1 C3Q      0.400000
     21 C21       -54.4210 -332.6210  -26.3920 c3        1 C3Q     -0.190000
     22 C22       -53.6140 -330.8780  -27.9240 c3        1 C3Q     -0.190000
     23 C23        79.4460  432.5270   37.1580 cu        1 C3Q      0.188000
     24 N2         81.3070  434.2100   36.5330 n3        1 C3Q     -0.319000
     25 C24        79.9870  433.8990   36.9520 cx        1 C3Q     -0.106000
     26 C25       -52.8070 -316.6830  -24.4130 c3        1 C3Q     -0.214000
     27 C26       -53.7070 -317.8540  -24.7130 c3        1 C3Q     -0.157000
     28 C27       -53.1240 -319.1470  -24.1820 c3        1 C3Q     -0.159000
     29 C28       -54.0330 -320.3200  -24.4860 c3        1 C3Q     -0.158000
     30 C29       -53.4450 -321.6100  -23.9530 c3        1 C3Q     -0.159000
     31 C30       -54.3600 -322.7810  -24.2600 c3        1 C3Q     -0.181000
     32 C31       -53.7450 -324.0610  -23.7100 c3        1 C3Q     -0.145000
     33 N3        -54.5690 -325.2770  -23.9620 n4        1 C3Q     -0.479000
     34 S1        -53.7740 -326.7930  -23.2060 s6        1 C3Q      2.818000
     35 O2        -53.3620 -326.3410  -21.9660 o         1 C3Q     -0.850500
     36 O3         79.4320  431.4930   37.7790 o         1 C3Q     -0.174000
     37 H1         75.8330  432.7840   34.7210 ha        1 C3Q      0.003250
     38 H1A        76.4890  432.6940   34.5730 ha        1 C3Q      0.003250
     39 H2         79.8520  435.2150   30.7750 hc        1 C3Q      0.195000
     40 H3         80.9860  438.7470   32.1920 ha        1 C3Q      0.237000
     41 H3A        74.5540  434.9310   32.1810 hc        1 C3Q      0.117000
     42 H4         76.1640  434.7250   31.3470 hc        1 C3Q      0.117000
     43 H4A        75.4660  433.3670   32.3150 hc        1 C3Q      0.117000
     44 H5         77.6750  436.8870   32.3460 ha        1 C3Q      0.003250
     45 H6         74.1060  436.5470   33.6700 ha        1 C3Q      0.132000
     46 H6A        76.9980  436.8950   32.2840 ha        1 C3Q      0.003250
     47 H7         77.9210  433.7220   36.0510 hc        1 C3Q      0.144000
     48 H7A        76.2760  435.2920   35.5340 ha        1 C3Q      0.148000
     49 H8         74.3170  436.8060   35.4970 ha        1 C3Q      0.132000
     50 H10        79.3740  438.4560   33.0780 ha        1 C3Q      0.237000
     51 H10A       82.1940  435.0060   32.9470 hc        1 C3Q      0.160000
     52 H12       -58.1130 -329.1560  -26.3610 ha        1 C3Q      0.193000
     53 H13       -57.4590 -327.7310  -24.4360 ha        1 C3Q      0.168000
     54 H18       -55.4180 -327.4030  -21.0230 ha        1 C3Q      0.189000
     55 H19       -57.2020 -329.0190  -20.7300 ha        1 C3Q      0.249000
     56 H20       -53.5180 -329.5480  -24.4040 ha        1 C3Q      0.170000
     57 H22       -55.3560 -332.7500  -26.9990 hx        1 C3Q      0.152000
     58 H22A      -54.6390 -332.8520  -25.3140 hx        1 C3Q      0.152000
     59 H22B      -53.6240 -333.3130  -26.7770 hx        1 C3Q      0.152000
     60 H23       -53.0620 -331.1380  -25.9610 hn        1 C3Q      0.256000
     61 H23A      -52.8300 -331.5920  -28.2980 hx        1 C3Q      0.152000
     62 H23B      -53.2250 -329.8250  -27.9760 hx        1 C3Q      0.152000
     63 HN25       81.8560  434.5370   37.3060 hn        1 C3Q      0.165000
     64 H26       -53.2550 -315.7410  -24.8120 hc        1 C3Q      0.081333
     65 H26A       79.5870  434.6960   37.6270 h1        1 C3Q      0.151000
     66 H27       -52.6630 -316.5660  -23.3120 hc        1 C3Q      0.081333
     67 H27A      -51.8040 -316.8240  -24.8860 hc        1 C3Q      0.081333
     68 H28       -54.7160 -317.6810  -24.2520 hc        1 C3Q      0.081500
     69 H28A      -53.8600 -317.9380  -25.8210 hc        1 C3Q      0.081500
     70 H29       -52.1160 -319.3210  -24.6430 hc        1 C3Q      0.086500
     71 H29A      -52.9720 -319.0630  -23.0740 hc        1 C3Q      0.086500
     72 H30       -54.1830 -320.4010  -25.5940 hc        1 C3Q      0.086500
     73 H30A      -55.0400 -320.1430  -24.0240 hc        1 C3Q      0.086500
     74 H31       -53.2960 -321.5250  -22.8440 hc        1 C3Q      0.097000
     75 H31A      -52.4380 -321.7830  -24.4160 hc        1 C3Q      0.097000
     76 H32       -55.3650 -322.5990  -23.7950 hc        1 C3Q      0.103500
     77 H32A      -54.5030 -322.8610  -25.3700 hc        1 C3Q      0.103500
     78 H33       -53.6060 -323.9630  -22.5920 hx        1 C3Q      0.156000
     79 H33A      -52.7360 -324.2310  -24.1890 hx        1 C3Q      0.156000
     80 HN34      -54.6680 -325.3830  -24.9720 hn        1 C3Q      0.245000
     81 C33        79.1000  433.9490   33.6380 c2        1 C3Q     -0.069000
     82 H48        78.0260  434.3820   33.5710 ha        1 C3Q      0.265000
     83 H49        80.3330  432.4280   34.5690 hc        1 C3Q      0.112500
     84 C32        79.2870  432.8360   34.6080 c3        1 C3Q     -0.095000
     85 N1        -53.9350 -331.2150  -26.5070 n4        1 C3Q      0.048000
     86 O1        -52.8740 -327.1660  -24.1890 o         1 C3Q     -0.850500
     87 H221       81.7610  433.4250   36.1080 hn        1 C3Q      0.165000
     88 H321      -55.5040 -325.1080  -23.5910 hn        1 C3Q      0.245000
     89 H11       -54.5370 -330.9710  -28.5550 hx        1 C3Q      0.152000
     90 H14       -56.5120 -330.7670  -27.3510 ha        1 C3Q      0.176000
     91 H39        78.5930  431.9980   34.3110 hc        1 C3Q      0.112500
     92 H39A       81.7680  433.7870   31.6130 hc        1 C3Q      0.160000
@<TRIPOS>BOND
     1    1    2 1   
     2    1    5 1   
     3    2   41 1   
     4    2   42 1   
     5    2   43 1   
     6    3    4 1   
     7    3    8 1   
     8    4    9 1   
     9    4   10 1   
    10    4   39 1   
    11    5    6 1   
    12    5   48 1   
    13    6   45 1   
    14    6   49 1   
    15    7   23 1   
    16    7   25 1   
    17    7   47 1   
    18    7   84 1   
    19    8   40 1   
    20    8   50 1   
    21    9   10 1   
    22    9   81 1   
    23   10   51 1   
    24   10   92 1   
    25   11   12 1   
    26   11   14 1   
    27   11   90 1   
    28   12   13 1   
    29   12   52 1   
    30   13   16 1   
    31   13   53 1   
    32   14   15 1   
    33   14   85 1   
    34   15   16 1   
    35   15   56 1   
    36   16   17 1   
    37   17   18 1   
    38   17   34 1   
    39   18   19 1   
    40   18   54 1   
    41   19   20 1   
    42   19   55 1   
    43   21   57 1   
    44   21   58 1   
    45   21   59 1   
    46   21   85 1   
    47   22   61 1   
    48   22   62 1   
    49   22   85 1   
    50   22   89 1   
    51   23   25 1   
    52   23   36 1   
    53   24   25 1   
    54   24   63 1   
    55   24   87 1   
    56   25   65 1   
    57   26   27 1   
    58   26   64 1   
    59   26   66 1   
    60   26   67 1   
    61   27   28 1   
    62   27   68 1   
    63   27   69 1   
    64   28   29 1   
    65   28   70 1   
    66   28   71 1   
    67   29   30 1   
    68   29   72 1   
    69   29   73 1   
    70   30   31 1   
    71   30   74 1   
    72   30   75 1   
    73   31   32 1   
    74   31   76 1   
    75   31   77 1   
    76   32   33 1   
    77   32   78 1   
    78   32   79 1   
    79   33   34 1   
    80   33   80 1   
    81   33   88 1   
    82   34   35 1   
    83   34   86 1   
    84   37   38 1   
    85   44   46 1   
    86   60   85 1   
    87   81   82 1   
    88   81   84 1   
    89   83   84 1   
    90   84   91 1   
@<TRIPOS>SUBSTRUCTURE
     1 C3Q         1 TEMP              0 ****  ****    0 ROOT
