@<TRIPOS>MOLECULE
C3S
   77    80     1     0     0
SMALL
bcc


@<TRIPOS>ATOM
      1 C65        -0.3000   -0.4180   -0.5460 c3        1 C3S     -0.089600
      2 C63         1.1440   -0.3370   -0.0940 c3        1 C3S     -0.068700
      3 C69         1.2100   -0.1920    1.4120 c3        1 C3S     -0.089600
      4 C60         1.9110   -1.5630   -0.5680 c3        1 C3S     -0.076400
      5 C57         3.4110   -1.3550   -0.5310 c3        1 C3S     -0.079400
      6 C54         4.1410   -2.5800   -1.0420 c3        1 C3S     -0.080400
      7 C48         5.6580   -2.4060   -0.9920 c3        1 C3S     -0.054700
      8 C50         6.1460   -2.6510    0.4230 c3        1 C3S     -0.090100
      9 C38         6.3310   -3.3440   -1.9880 c3        1 C3S     -0.055700
     10 C35         5.8620   -3.0840   -3.4360 c3        1 C3S     -0.077400
     11 C29         7.8760   -3.2780   -2.0850 c3        1 C3S     -0.045000
     12 C26         8.6470   -4.1050   -1.0680 c3        1 C3S     -0.064400
     13 C40         8.3370   -1.8310   -2.0620 c3        1 C3S     -0.081100
     14 C30         8.1110   -3.9540   -3.4590 c3        1 C3S     -0.062700
     15 C32         7.0540   -3.3340   -4.3620 c3        1 C3S     -0.074400
     16 C18         9.5610   -3.9080   -3.8920 c3        1 C3S     -0.047700
     17 C15         9.7270   -4.5700   -5.2520 c3        1 C3S     -0.031200
     18 C20        10.4050   -4.6490   -2.8460 c3        1 C3S     -0.049700
     19 C23        10.1230   -4.1650   -1.4290 c3        1 C3S     -0.075400
     20 C22        11.9120   -4.5910   -3.1890 c3        1 C3S     -0.004800
     21 C44        12.4960   -3.2150   -2.8790 c3        1 C3S     -0.081100
     22 C12        12.1320   -4.8920   -4.6520 c2        1 C3S     -0.070400
     23 C9         13.5280   -5.1900   -5.0800 c3        1 C3S     -0.060200
     24 C13        11.1420   -4.8700   -5.5580 c2        1 C3S     -0.212200
     25 C1         12.6320   -5.6520   -2.3400 c3        1 C3S     -0.061400
     26 C4         14.0800   -5.8380   -2.7250 c3        1 C3S     -0.121400
     27 C7         14.2030   -6.2430   -4.1940 c3        1 C3S      0.231100
     28 O6         15.5410   -6.3340   -4.5620 os        1 C3S     -0.606500
     29 S1         16.3900   -7.8410   -4.4280 s6        1 C3S      1.697300
     30 O3         15.5910   -8.6900   -5.1940 o         1 C3S     -0.753867
     31 O2         17.6290   -7.5030   -4.9620 o         1 C3S     -0.753867
     32 O4         16.3480   -8.0750   -3.0530 o         1 C3S     -0.753867
     33 H651       -0.7870   -1.3360   -0.1380 hc        1 C3S      0.031700
     34 H652       -0.3590   -0.4530   -1.6610 hc        1 C3S      0.031700
     35 H653       -0.8690    0.4730   -0.1890 hc        1 C3S      0.031700
     36 H63         1.6110    0.5770   -0.5600 hc        1 C3S      0.045700
     37 H691        2.2700   -0.0970    1.7510 hc        1 C3S      0.031700
     38 H692        0.7570   -1.0810    1.9130 hc        1 C3S      0.031700
     39 H693        0.6520    0.7190    1.7370 hc        1 C3S      0.031700
     40 H601        1.6020   -1.8050   -1.6200 hc        1 C3S      0.039200
     41 H602        1.6360   -2.4450    0.0680 hc        1 C3S      0.039200
     42 H571        3.7340   -1.1270    0.5190 hc        1 C3S      0.039700
     43 H572        3.6830   -0.4670   -1.1600 hc        1 C3S      0.039700
     44 H541        3.8510   -3.4760   -0.4320 hc        1 C3S      0.040700
     45 H542        3.8100   -2.7800   -2.0950 hc        1 C3S      0.040700
     46 H48         5.9020   -1.3440   -1.2800 hc        1 C3S      0.048700
     47 H501        6.1770   -3.7450    0.6440 hc        1 C3S      0.033367
     48 H502        5.4680   -2.1600    1.1620 hc        1 C3S      0.033367
     49 H503        7.1710   -2.2320    0.5660 hc        1 C3S      0.033367
     50 H38         6.0540   -4.3970   -1.7040 hc        1 C3S      0.045700
     51 H351        5.5000   -2.0320   -3.5470 hc        1 C3S      0.035200
     52 H352        5.0160   -3.7670   -3.6940 hc        1 C3S      0.035200
     53 H261        8.2230   -5.1430   -1.0330 hc        1 C3S      0.035200
     54 H262        8.5420   -3.6660   -0.0430 hc        1 C3S      0.035200
     55 H401        9.4180   -1.7460   -2.3280 hc        1 C3S      0.034033
     56 H402        7.7470   -1.2250   -2.7920 hc        1 C3S      0.034033
     57 H403        8.1990   -1.3960   -1.0420 hc        1 C3S      0.034033
     58 H30         7.8400   -5.0460   -3.3410 hc        1 C3S      0.045700
     59 H321        6.7860   -4.0210   -5.2010 hc        1 C3S      0.040700
     60 H322        7.4230   -2.3780   -4.8080 hc        1 C3S      0.040700
     61 H18         9.9070   -2.8420   -3.9720 hc        1 C3S      0.053700
     62 H151        9.1380   -5.5280   -5.2830 hc        1 C3S      0.035200
     63 H152        9.2970   -3.8960   -6.0410 hc        1 C3S      0.035200
     64 H20        10.1000   -5.7350   -2.8970 hc        1 C3S      0.049700
     65 H231       10.6330   -4.8560   -0.7060 hc        1 C3S      0.042200
     66 H232       10.5660   -3.1450   -1.2800 hc        1 C3S      0.042200
     67 H441       11.8370   -2.4060   -3.2750 hc        1 C3S      0.033033
     68 H442       13.5060   -3.1110   -3.3450 hc        1 C3S      0.033033
     69 H443       12.6100   -3.0780   -1.7770 hc        1 C3S      0.033033
     70 H91        13.5500   -5.5540   -6.1410 hc        1 C3S      0.052700
     71 H92        14.1400   -4.2490   -5.0430 hc        1 C3S      0.052700
     72 H13        11.3480   -5.1050   -6.6150 ha        1 C3S      0.119000
     73 H11        12.0950   -6.6300   -2.4520 hc        1 C3S      0.031700
     74 H12        12.5740   -5.3550   -1.2600 hc        1 C3S      0.031700
     75 H41        14.6570   -4.8930   -2.5540 hc        1 C3S      0.061200
     76 H42        14.5530   -6.6380   -2.0950 hc        1 C3S      0.061200
     77 H7         13.6940   -7.2400   -4.3510 h1        1 C3S      0.033700
@<TRIPOS>BOND
     1    1    2 1   
     2    1   33 1   
     3    1   34 1   
     4    1   35 1   
     5    2    3 1   
     6    2    4 1   
     7    2   36 1   
     8    3   37 1   
     9    3   38 1   
    10    3   39 1   
    11    4    5 1   
    12    4   40 1   
    13    4   41 1   
    14    5    6 1   
    15    5   42 1   
    16    5   43 1   
    17    6    7 1   
    18    6   44 1   
    19    6   45 1   
    20    7    8 1   
    21    7    9 1   
    22    7   46 1   
    23    8   47 1   
    24    8   48 1   
    25    8   49 1   
    26    9   10 1   
    27    9   11 1   
    28    9   50 1   
    29   10   15 1   
    30   10   51 1   
    31   10   52 1   
    32   11   12 1   
    33   11   13 1   
    34   11   14 1   
    35   12   19 1   
    36   12   53 1   
    37   12   54 1   
    38   13   55 1   
    39   13   56 1   
    40   13   57 1   
    41   14   15 1   
    42   14   16 1   
    43   14   58 1   
    44   15   59 1   
    45   15   60 1   
    46   16   17 1   
    47   16   18 1   
    48   16   61 1   
    49   17   24 1   
    50   17   62 1   
    51   17   63 1   
    52   18   19 1   
    53   18   20 1   
    54   18   64 1   
    55   19   65 1   
    56   19   66 1   
    57   20   21 1   
    58   20   22 1   
    59   20   25 1   
    60   21   67 1   
    61   21   68 1   
    62   21   69 1   
    63   22   23 1   
    64   22   24 2   
    65   23   27 1   
    66   23   70 1   
    67   23   71 1   
    68   24   72 1   
    69   25   26 1   
    70   25   73 1   
    71   25   74 1   
    72   26   27 1   
    73   26   75 1   
    74   26   76 1   
    75   27   28 1   
    76   27   77 1   
    77   28   29 1   
    78   29   30 1   
    79   29   31 1   
    80   29   32 1   
@<TRIPOS>SUBSTRUCTURE
     1 C3S         1 TEMP              0 ****  ****    0 ROOT
