@<TRIPOS>MOLECULE
C3S
   77    80     1     0     0
SMALL
bcc


@<TRIPOS>ATOM
      1 C65        -0.2960   -0.3990   -0.5640 c3        1 C3S     -0.089600
      2 C63         1.1440   -0.3340   -0.0980 c3        1 C3S     -0.068700
      3 C69         1.1990   -0.2150    1.4110 c3        1 C3S     -0.089600
      4 C60         1.9080   -1.5560   -0.5870 c3        1 C3S     -0.076400
      5 C57         3.4090   -1.3590   -0.5330 c3        1 C3S     -0.079400
      6 C54         4.1360   -2.5790   -1.0600 c3        1 C3S     -0.080400
      7 C48         5.6540   -2.4150   -0.9930 c3        1 C3S     -0.054700
      8 C50         6.1270   -2.6900    0.4220 c3        1 C3S     -0.090100
      9 C38         6.3300   -3.3380   -2.0010 c3        1 C3S     -0.055700
     10 C35         5.8760   -3.0470   -3.4470 c3        1 C3S     -0.077400
     11 C29         7.8760   -3.2800   -2.0810 c3        1 C3S     -0.045000
     12 C26         8.6320   -4.1330   -1.0730 c3        1 C3S     -0.064400
     13 C40         8.3460   -1.8370   -2.0260 c3        1 C3S     -0.081100
     14 C30         8.1190   -3.9320   -3.4660 c3        1 C3S     -0.062700
     15 C32         7.0750   -3.2880   -4.3660 c3        1 C3S     -0.074400
     16 C18         9.5740   -3.8860   -3.8840 c3        1 C3S     -0.047700
     17 C15         9.7490   -4.5230   -5.2560 c3        1 C3S     -0.031200
     18 C20        10.4040   -4.6540   -2.8450 c3        1 C3S     -0.049700
     19 C23        10.1110   -4.1940   -1.4210 c3        1 C3S     -0.075400
     20 C22        11.9140   -4.5990   -3.1730 c3        1 C3S     -0.004800
     21 C44        12.5030   -3.2330   -2.8320 c3        1 C3S     -0.081100
     22 C12        12.1450   -4.8740   -4.6390 c2        1 C3S     -0.070400
     23 C9         13.5440   -5.1730   -5.0600 c3        1 C3S     -0.060200
     24 C13        11.1640   -4.8270   -5.5540 c2        1 C3S     -0.212200
     25 C1         12.6190   -5.6810   -2.3380 c3        1 C3S     -0.061400
     26 C4         14.0690   -5.8690   -2.7130 c3        1 C3S     -0.121400
     27 C7         14.2030   -6.2470   -4.1890 c3        1 C3S      0.231100
     28 O6         15.5440   -6.3400   -4.5450 os        1 C3S     -0.606500
     29 S1         16.3820   -7.8560   -4.4320 s6        1 C3S      1.697300
     30 O3         15.5840   -8.6850   -5.2210 o         1 C3S     -0.753867
     31 O2         17.6280   -7.5160   -4.9490 o         1 C3S     -0.753867
     32 O4         16.3260   -8.1150   -3.0620 o         1 C3S     -0.753867
     33 H651       -0.7920   -1.3210   -0.1750 hc        1 C3S      0.031700
     34 H652       -0.3460   -0.4140   -1.6790 hc        1 C3S      0.031700
     35 H653       -0.8630    0.4900   -0.1950 hc        1 C3S      0.031700
     36 H63         1.6200    0.5850   -0.5440 hc        1 C3S      0.045700
     37 H691        0.6430    0.6930    1.7470 hc        1 C3S      0.031700
     38 H692        0.7360   -1.1110    1.8920 hc        1 C3S      0.031700
     39 H693        2.2560   -0.1330    1.7600 hc        1 C3S      0.031700
     40 H601        1.6220   -2.4470    0.0310 hc        1 C3S      0.039200
     41 H602        1.6070   -1.7770   -1.6460 hc        1 C3S      0.039200
     42 H571        3.6920   -0.4610   -1.1430 hc        1 C3S      0.039700
     43 H572        3.7240   -1.1530    0.5230 hc        1 C3S      0.039700
     44 H541        3.8130   -2.7560   -2.1200 hc        1 C3S      0.040700
     45 H542        3.8350   -3.4830   -0.4700 hc        1 C3S      0.040700
     46 H48         5.9070   -1.3500   -1.2580 hc        1 C3S      0.048700
     47 H501        6.1490   -3.7880    0.6220 hc        1 C3S      0.033367
     48 H502        5.4440   -2.2100    1.1640 hc        1 C3S      0.033367
     49 H503        7.1530   -2.2800    0.5830 hc        1 C3S      0.033367
     50 H38         6.0430   -4.3950   -1.7390 hc        1 C3S      0.045700
     51 H351        5.0280   -3.7200   -3.7260 hc        1 C3S      0.035200
     52 H352        5.5220   -1.9910   -3.5420 hc        1 C3S      0.035200
     53 H261        8.5200   -3.7120   -0.0410 hc        1 C3S      0.035200
     54 H262        8.2000   -5.1680   -1.0620 hc        1 C3S      0.035200
     55 H401        9.4300   -1.7540   -2.2810 hc        1 C3S      0.034033
     56 H402        7.7670   -1.2140   -2.7500 hc        1 C3S      0.034033
     57 H403        8.2010   -1.4210   -1.0000 hc        1 C3S      0.034033
     58 H30         7.8410   -5.0240   -3.3710 hc        1 C3S      0.045700
     59 H321        6.8110   -3.9560   -5.2210 hc        1 C3S      0.040700
     60 H322        7.4540   -2.3250   -4.7910 hc        1 C3S      0.040700
     61 H18         9.9270   -2.8220   -3.9400 hc        1 C3S      0.053700
     62 H151        9.1540   -5.4770   -5.3100 hc        1 C3S      0.035200
     63 H152        9.3310   -3.8320   -6.0360 hc        1 C3S      0.035200
     64 H20        10.0910   -5.7370   -2.9200 hc        1 C3S      0.049700
     65 H231       10.6100   -4.9030   -0.7080 hc        1 C3S      0.042200
     66 H232       10.5590   -3.1810   -1.2490 hc        1 C3S      0.042200
     67 H441       11.8540   -2.4130   -3.2180 hc        1 C3S      0.033033
     68 H442       13.5190   -3.1270   -3.2850 hc        1 C3S      0.033033
     69 H443       12.6080   -3.1190   -1.7260 hc        1 C3S      0.033033
     70 H91        13.5730   -5.5170   -6.1270 hc        1 C3S      0.052700
     71 H92        14.1610   -4.2370   -4.9990 hc        1 C3S      0.052700
     72 H13        11.3790   -5.0430   -6.6130 ha        1 C3S      0.119000
     73 H11        12.0760   -6.6540   -2.4740 hc        1 C3S      0.031700
     74 H12        12.5530   -5.4040   -1.2530 hc        1 C3S      0.031700
     75 H41        14.6500   -4.9310   -2.5190 hc        1 C3S      0.061200
     76 H42        14.5310   -6.6840   -2.0940 hc        1 C3S      0.061200
     77 H7         13.6890   -7.2380   -4.3690 h1        1 C3S      0.033700
@<TRIPOS>BOND
     1    1    2 1   
     2    1   33 1   
     3    1   34 1   
     4    1   35 1   
     5    2    3 1   
     6    2    4 1   
     7    2   36 1   
     8    3   37 1   
     9    3   38 1   
    10    3   39 1   
    11    4    5 1   
    12    4   40 1   
    13    4   41 1   
    14    5    6 1   
    15    5   42 1   
    16    5   43 1   
    17    6    7 1   
    18    6   44 1   
    19    6   45 1   
    20    7    8 1   
    21    7    9 1   
    22    7   46 1   
    23    8   47 1   
    24    8   48 1   
    25    8   49 1   
    26    9   10 1   
    27    9   11 1   
    28    9   50 1   
    29   10   15 1   
    30   10   51 1   
    31   10   52 1   
    32   11   12 1   
    33   11   13 1   
    34   11   14 1   
    35   12   19 1   
    36   12   53 1   
    37   12   54 1   
    38   13   55 1   
    39   13   56 1   
    40   13   57 1   
    41   14   15 1   
    42   14   16 1   
    43   14   58 1   
    44   15   59 1   
    45   15   60 1   
    46   16   17 1   
    47   16   18 1   
    48   16   61 1   
    49   17   24 1   
    50   17   62 1   
    51   17   63 1   
    52   18   19 1   
    53   18   20 1   
    54   18   64 1   
    55   19   65 1   
    56   19   66 1   
    57   20   21 1   
    58   20   22 1   
    59   20   25 1   
    60   21   67 1   
    61   21   68 1   
    62   21   69 1   
    63   22   23 1   
    64   22   24 2   
    65   23   27 1   
    66   23   70 1   
    67   23   71 1   
    68   24   72 1   
    69   25   26 1   
    70   25   73 1   
    71   25   74 1   
    72   26   27 1   
    73   26   75 1   
    74   26   76 1   
    75   27   28 1   
    76   27   77 1   
    77   28   29 1   
    78   29   30 1   
    79   29   31 1   
    80   29   32 1   
@<TRIPOS>SUBSTRUCTURE
     1 C3S         1 TEMP              0 ****  ****    0 ROOT
