@<TRIPOS>MOLECULE
C3S
   77    80     1     0     0
SMALL
bcc


@<TRIPOS>ATOM
      1 C65        -0.7820   -0.1260   10.8660 c3        1 C3S     -0.089600
      2 C63         0.1520    0.2470    9.7330 c3        1 C3S     -0.068700
      3 C69         1.5880   -0.0180   10.1330 c3        1 C3S     -0.089600
      4 C60        -0.2240   -0.5160    8.4710 c3        1 C3S     -0.076400
      5 C57         0.3680    0.1050    7.2230 c3        1 C3S     -0.079400
      6 C54        -0.0540   -0.6580    5.9840 c3        1 C3S     -0.080400
      7 C48         0.5500   -0.0650    4.7120 c3        1 C3S     -0.054700
      8 C50         1.9850   -0.5370    4.5690 c3        1 C3S     -0.090100
      9 C38        -0.2910   -0.4500    3.4990 c3        1 C3S     -0.055700
     10 C35        -1.7460    0.0510    3.6230 c3        1 C3S     -0.077400
     11 C29         0.1700    0.0930    2.1230 c3        1 C3S     -0.045000
     12 C26         1.2380   -0.7180    1.4060 c3        1 C3S     -0.064400
     13 C40         0.5930    1.5460    2.2520 c3        1 C3S     -0.081100
     14 C30        -1.1290   -0.0750    1.2950 c3        1 C3S     -0.062700
     15 C32        -2.2260    0.4300    2.2200 c3        1 C3S     -0.074400
     16 C18        -1.0150    0.5140   -0.0950 c3        1 C3S     -0.047700
     17 C15        -2.3220    0.3340   -0.8540 c3        1 C3S     -0.031200
     18 C20         0.1200   -0.2040   -0.8380 c3        1 C3S     -0.049700
     19 C23         1.4100   -0.2370   -0.0260 c3        1 C3S     -0.075400
     20 C22         0.3390    0.3880   -2.2490 c3        1 C3S     -0.004800
     21 C44         1.0570    1.7320   -2.1780 c3        1 C3S     -0.081100
     22 C12        -0.9850    0.5820   -2.9500 c2        1 C3S     -0.070400
     23 C9         -0.9430    0.8400   -4.4180 c3        1 C3S     -0.060200
     24 C13        -2.1610    0.5620   -2.3050 c2        1 C3S     -0.212200
     25 C1          1.1950   -0.6050   -3.0520 c3        1 C3S     -0.061400
     26 C4          1.3140   -0.2420   -4.5120 c3        1 C3S     -0.121400
     27 C7         -0.0670   -0.1700   -5.1670 c3        1 C3S      0.231100
     28 O6          0.0460    0.2440   -6.4900 os        1 C3S     -0.606500
     29 S1          0.2140   -0.9220   -7.7650 s6        1 C3S      1.697300
     30 O3         -0.9130   -1.7220   -7.5730 o         1 C3S     -0.753867
     31 O2          0.2090   -0.0990   -8.8870 o         1 C3S     -0.753867
     32 O4          1.4290   -1.5280   -7.4430 o         1 C3S     -0.753867
     33 H651       -0.5020    0.4220   11.7970 hc        1 C3S      0.031700
     34 H652       -1.8370    0.1340   10.6050 hc        1 C3S      0.031700
     35 H653       -0.7290   -1.2230   11.0710 hc        1 C3S      0.031700
     36 H63         0.0370    1.3500    9.5290 hc        1 C3S      0.045700
     37 H691        1.7430   -1.1030   10.3440 hc        1 C3S      0.031700
     38 H692        2.2850    0.2870    9.3160 hc        1 C3S      0.031700
     39 H693        1.8460    0.5600   11.0530 hc        1 C3S      0.031700
     40 H601        0.1200   -1.5800    8.5620 hc        1 C3S      0.039200
     41 H602       -1.3420   -0.5360    8.3730 hc        1 C3S      0.039200
     42 H571        0.0320    1.1720    7.1380 hc        1 C3S      0.039700
     43 H572        1.4870    0.1180    7.3020 hc        1 C3S      0.039700
     44 H541        0.2590   -1.7320    6.0770 hc        1 C3S      0.040700
     45 H542       -1.1730   -0.6460    5.9220 hc        1 C3S      0.040700
     46 H48         0.5470    1.0570    4.8080 hc        1 C3S      0.048700
     47 H501        2.0170   -1.5900    4.1980 hc        1 C3S      0.033367
     48 H502        2.5440    0.1080    3.8500 hc        1 C3S      0.033367
     49 H503        2.5120   -0.4940    5.5530 hc        1 C3S      0.033367
     50 H38        -0.3010   -1.5730    3.4350 hc        1 C3S      0.045700
     51 H351       -2.3930   -0.7520    4.0540 hc        1 C3S      0.035200
     52 H352       -1.7990    0.9370    4.3020 hc        1 C3S      0.035200
     53 H261        0.9490   -1.8020    1.4110 hc        1 C3S      0.035200
     54 H262        2.2200   -0.6300    1.9380 hc        1 C3S      0.035200
     55 H401        0.7380    2.0170    1.2500 hc        1 C3S      0.034033
     56 H402       -0.1850    2.1280    2.8030 hc        1 C3S      0.034033
     57 H403        1.5580    1.6210    2.8100 hc        1 C3S      0.034033
     58 H30        -1.2960   -1.1870    1.1650 hc        1 C3S      0.045700
     59 H321       -3.2080   -0.0440    1.9790 hc        1 C3S      0.040700
     60 H322       -2.3500    1.5370    2.1240 hc        1 C3S      0.040700
     61 H18        -0.7900    1.6130   -0.0320 hc        1 C3S      0.053700
     62 H151       -2.7160   -0.7070   -0.6900 hc        1 C3S      0.035200
     63 H152       -3.0880    1.0420   -0.4350 hc        1 C3S      0.035200
     64 H20        -0.2140   -1.2740   -0.9800 hc        1 C3S      0.049700
     65 H231        2.1390   -0.9190   -0.5400 hc        1 C3S      0.042200
     66 H232        1.8710    0.7850   -0.0040 hc        1 C3S      0.042200
     67 H441        0.9970    2.2550   -3.1640 hc        1 C3S      0.033033
     68 H442        0.5970    2.3880   -1.4010 hc        1 C3S      0.033033
     69 H443        2.1370    1.5860   -1.9330 hc        1 C3S      0.033033
     70 H91        -1.9740    0.8070   -4.8570 hc        1 C3S      0.052700
     71 H92        -0.5380    1.8710   -4.6050 hc        1 C3S      0.052700
     72 H13        -3.1040    0.7000   -2.8600 ha        1 C3S      0.119000
     73 H11         2.2210   -0.6490   -2.6000 hc        1 C3S      0.031700
     74 H12         0.7410   -1.6280   -2.9650 hc        1 C3S      0.031700
     75 H41         1.9260   -1.0080   -5.0590 hc        1 C3S      0.061200
     76 H42         1.8300    0.7450   -4.6310 hc        1 C3S      0.061200
     77 H7         -0.5540   -1.1880   -5.1230 h1        1 C3S      0.033700
@<TRIPOS>BOND
     1    1    2 1   
     2    1   33 1   
     3    1   34 1   
     4    1   35 1   
     5    2    3 1   
     6    2    4 1   
     7    2   36 1   
     8    3   37 1   
     9    3   38 1   
    10    3   39 1   
    11    4    5 1   
    12    4   40 1   
    13    4   41 1   
    14    5    6 1   
    15    5   42 1   
    16    5   43 1   
    17    6    7 1   
    18    6   44 1   
    19    6   45 1   
    20    7    8 1   
    21    7    9 1   
    22    7   46 1   
    23    8   47 1   
    24    8   48 1   
    25    8   49 1   
    26    9   10 1   
    27    9   11 1   
    28    9   50 1   
    29   10   15 1   
    30   10   51 1   
    31   10   52 1   
    32   11   12 1   
    33   11   13 1   
    34   11   14 1   
    35   12   19 1   
    36   12   53 1   
    37   12   54 1   
    38   13   55 1   
    39   13   56 1   
    40   13   57 1   
    41   14   15 1   
    42   14   16 1   
    43   14   58 1   
    44   15   59 1   
    45   15   60 1   
    46   16   17 1   
    47   16   18 1   
    48   16   61 1   
    49   17   24 1   
    50   17   62 1   
    51   17   63 1   
    52   18   19 1   
    53   18   20 1   
    54   18   64 1   
    55   19   65 1   
    56   19   66 1   
    57   20   21 1   
    58   20   22 1   
    59   20   25 1   
    60   21   67 1   
    61   21   68 1   
    62   21   69 1   
    63   22   23 1   
    64   22   24 2   
    65   23   27 1   
    66   23   70 1   
    67   23   71 1   
    68   24   72 1   
    69   25   26 1   
    70   25   73 1   
    71   25   74 1   
    72   26   27 1   
    73   26   75 1   
    74   26   76 1   
    75   27   28 1   
    76   27   77 1   
    77   28   29 1   
    78   29   30 1   
    79   29   31 1   
    80   29   32 1   
@<TRIPOS>SUBSTRUCTURE
     1 C3S         1 TEMP              0 ****  ****    0 ROOT
