@<TRIPOS>MOLECULE
C3S
   77    79     1     0     0
SMALL
bcc


@<TRIPOS>ATOM
      1 C65        -6.7160    4.0220    0.9850 c3        1 C3S     -0.089600
      2 C63        -5.9980    3.5920    2.2900 c3        1 C3S     -0.067700
      3 C69        -6.9330    3.8160    3.4860 c3        1 C3S     -0.089600
      4 C60        -5.6200    2.0770    2.2030 c3        1 C3S     -0.076400
      5 C57        -4.1000    1.9230    2.2900 c3        1 C3S     -0.079400
      6 C54        -3.6790    0.5580    1.6610 c3        1 C3S     -0.080400
      7 C48        -2.1700    0.3200    1.9100 c3        1 C3S     -0.054700
      8 C50        -1.9700   -0.2630    3.3140 c3        1 C3S     -0.090100
      9 C38        -1.6580   -0.6120    0.9230 c3        1 C3S     -0.055700
     10 C35        -2.4490   -0.3880   -0.6290 c3        1 C3S     -0.077400
     11 C29        -0.3600   -0.3400    0.6220 c3        1 C3S     -0.045000
     12 C26         0.4080   -0.7160    1.4180 c3        1 C3S     -0.064400
     13 C40        -0.1870    1.1980    0.4130 c3        1 C3S     -0.081100
     14 C30        -0.1720   -1.1920   -0.9640 c3        1 C3S     -0.062700
     15 C32        -1.0990   -0.5310   -1.7360 c3        1 C3S     -0.074400
     16 C18         0.8770   -1.1560   -1.3720 c3        1 C3S     -0.047700
     17 C15         0.8930   -1.6710   -2.5960 c3        1 C3S     -0.031200
     18 C20         1.6420   -1.5090   -0.6370 c3        1 C3S     -0.049700
     19 C23         1.5340   -0.6820    0.9730 c3        1 C3S     -0.075400
     20 C22         3.1880   -1.1840   -1.3770 c3        1 C3S     -0.004800
     21 C44         3.3390    0.3600   -1.4570 c3        1 C3S     -0.081100
     22 C12         3.3490   -1.6120   -2.5150 c2        1 C3S     -0.070400
     23 C9          4.8350   -1.3700   -3.1110 c3        1 C3S     -0.060200
     24 C13         2.3100   -1.5850   -3.2950 c2        1 C3S     -0.212200
     25 C1          4.3420   -1.7280   -0.3350 c3        1 C3S     -0.061400
     26 C4          5.7130   -1.4940   -0.8140 c3        1 C3S     -0.121400
     27 C7          5.9080   -1.9420   -2.0740 c3        1 C3S      0.231100
     28 O6          7.2680   -1.5300   -2.5180 os        1 C3S     -0.600600
     29 S1          8.1390   -2.6250   -3.1140 s4        1 C3S      1.876600
     30 O3          7.5050   -3.1700   -4.3660 os        1 C3S     -1.085000
     31 O2          9.5440   -2.1240   -3.3820 o         1 C3S     -0.680900
     32 O4          8.4040   -3.7220   -2.1120 o         1 C3S     -0.680900
     33 H651       -6.9270    4.9800    1.0260 hc        1 C3S      0.032033
     34 H652       -6.1290    3.8490    0.2170 hc        1 C3S      0.032033
     35 H653       -7.5500    3.5060    0.8830 hc        1 C3S      0.032033
     36 H63        -5.1880    4.1250    2.4070 hc        1 C3S      0.045700
     37 H691       -6.4390    3.6660    4.3210 hc        1 C3S      0.032033
     38 H692       -7.2750    4.7400    3.4680 hc        1 C3S      0.032033
     39 H693       -7.6850    3.1880    3.4340 hc        1 C3S      0.032033
     40 H601       -5.9360    1.7110    1.3550 hc        1 C3S      0.039200
     41 H602       -6.0390    1.5930    2.9440 hc        1 C3S      0.039200
     42 H571       -3.6700    2.6510    1.8040 hc        1 C3S      0.039200
     43 H572       -3.8230    1.9480    3.2290 hc        1 C3S      0.039200
     44 H541       -3.8520    0.5750    0.6980 hc        1 C3S      0.040700
     45 H542       -4.1980   -0.1680    2.0760 hc        1 C3S      0.040700
     46 H48        -1.6910    1.1660    1.8380 hc        1 C3S      0.048700
     47 H501       -2.8470   -0.3730    3.7520 hc        1 C3S      0.033367
     48 H502       -1.4130    0.3460    3.8450 hc        1 C3S      0.033367
     49 H503       -1.5290   -1.1310    3.2460 hc        1 C3S      0.033367
     50 H38        -1.7560   -1.5380    1.2330 hc        1 C3S      0.045700
     51 H351       -2.8570    0.4970   -0.6890 hc        1 C3S      0.035200
     52 H352       -3.1110   -1.0940   -0.7910 hc        1 C3S      0.035200
     53 H261        0.3570   -0.1400    2.2180 hc        1 C3S      0.035200
     54 H262        0.1850   -1.6520    1.6730 hc        1 C3S      0.035200
     55 H401       -1.0300    1.5810    0.0970 hc        1 C3S      0.034033
     56 H402        0.5120    1.3600   -0.2490 hc        1 C3S      0.034033
     57 H403        0.0700    1.6260    1.2810 hc        1 C3S      0.034033
     58 H30        -0.4460   -2.1300   -0.8620 hc        1 C3S      0.045700
     59 H321       -0.7660    0.3560   -2.0010 hc        1 C3S      0.040700
     60 H322       -1.3450   -1.0630   -2.5220 hc        1 C3S      0.040700
     61 H18         1.0720   -0.2000   -1.4960 hc        1 C3S      0.053700
     62 H151        0.1350   -1.3100   -3.1260 hc        1 C3S      0.035200
     63 H152        0.6470   -2.6240   -2.5640 hc        1 C3S      0.035200
     64 H20         1.5440   -2.4810   -0.5080 hc        1 C3S      0.049700
     65 H231        2.1460   -1.1300    1.6080 hc        1 C3S      0.042200
     66 H232        1.8080    0.2510    0.8700 hc        1 C3S      0.042200
     67 H441        3.1800    0.7500   -0.5750 hc        1 C3S      0.033033
     68 H442        4.2470    0.5830   -1.7550 hc        1 C3S      0.033033
     69 H443        2.6780    0.7250   -2.1060 hc        1 C3S      0.033033
     70 H91         4.8970   -0.4390   -3.3860 hc        1 C3S      0.052700
     71 H92         4.9910   -1.8300   -3.9720 hc        1 C3S      0.052700
     72 H13         2.4040   -1.8190   -4.2510 ha        1 C3S      0.119000
     73 H11         4.2280   -1.2750    0.5250 hc        1 C3S      0.031700
     74 H12         4.2150   -2.6920   -0.2020 hc        1 C3S      0.031700
     75 H41         6.3430   -1.9520   -0.2120 hc        1 C3S      0.061200
     76 H42         5.8950   -0.5310   -0.7900 hc        1 C3S      0.061200
     77 H7          5.8570   -2.9210   -2.0730 h1        1 C3S      0.033700
@<TRIPOS>BOND
     1    1    2 1   
     2    1   33 1   
     3    1   34 1   
     4    1   35 1   
     5    2    3 1   
     6    2    4 1   
     7    2   36 1   
     8    3   37 1   
     9    3   38 1   
    10    3   39 1   
    11    4    5 1   
    12    4   40 1   
    13    4   41 1   
    14    5    6 1   
    15    5   42 1   
    16    5   43 1   
    17    6    7 1   
    18    6   44 1   
    19    6   45 1   
    20    7    8 1   
    21    7    9 1   
    22    7   46 1   
    23    8   47 1   
    24    8   48 1   
    25    8   49 1   
    26    9   10 1   
    27    9   11 1   
    28    9   50 1   
    29   10   15 1   
    30   10   51 1   
    31   10   52 1   
    32   11   12 1   
    33   11   13 1   
    34   11   14 1   
    35   12   19 1   
    36   12   53 1   
    37   12   54 1   
    38   13   55 1   
    39   13   56 1   
    40   13   57 1   
    41   14   15 1   
    42   14   16 1   
    43   14   58 1   
    44   15   59 1   
    45   15   60 1   
    46   16   17 1   
    47   16   18 1   
    48   16   61 1   
    49   17   24 1   
    50   17   62 1   
    51   17   63 1   
    52   18   19 1   
    53   18   20 1   
    54   18   64 1   
    55   19   65 1   
    56   19   66 1   
    57   20   21 1   
    58   20   22 1   
    59   20   25 1   
    60   21   67 1   
    61   21   68 1   
    62   21   69 1   
    63   22   23 1   
    64   22   24 2   
    65   23   27 1   
    66   23   70 1   
    67   23   71 1   
    68   24   72 1   
    69   25   26 1   
    70   25   73 1   
    71   25   74 1   
    72   26   27 1   
    73   26   75 1   
    74   26   76 1   
    75   27   28 1   
    76   27   77 1   
    77   28   29 1   
    78   29   31 1   
    79   29   32 1   
@<TRIPOS>SUBSTRUCTURE
     1 C3S         1 TEMP              0 ****  ****    0 ROOT
