@<TRIPOS>MOLECULE
C3X
   28    29     1     0     0
SMALL
bcc


@<TRIPOS>ATOM
      1 C1          0.0600    0.4900   -0.0210 c3        1 C3X      0.299900
      2 C2         -1.0160    0.0410    0.9930 c3        1 C3X      0.129100
      3 C3         -0.5130    0.2310    2.4310 c3        1 C3X      0.154100
      4 C4          0.8950   -0.3720    2.5810 c3        1 C3X      0.065100
      5 C5          1.8390    0.1690    1.5070 c3        1 C3X      0.106400
      6 O1         -0.3180   -0.0580   -1.2660 os        1 C3X     -0.420600
      7 O2         -2.1490    0.8760    0.8370 oh        1 C3X     -0.582800
      8 O3         -1.4170   -0.4610    3.2740 oh        1 C3X     -0.585800
      9 O4          1.3390    0.0070    3.8760 oh        1 C3X     -0.599800
     10 O5          1.3330   -0.1030    0.2100 os        1 C3X     -0.431600
     11 C1'         0.4930    0.3940   -2.3570 c3        1 C3X      0.140400
     12 C2'        -0.0570   -0.2750   -3.5900 cx        1 C3X      0.063100
     13 C3'        -0.2280    0.4850   -4.8560 cx        1 C3X      0.052400
     14 O'          0.8830   -0.4050   -4.6700 os        1 C3X     -0.404600
     15 H1          0.1500    1.6110   -0.0600 h2        1 C3X      0.054700
     16 H2         -1.2820   -1.0380    0.8180 h1        1 C3X      0.081700
     17 H3         -0.4960    1.3240    2.6960 h1        1 C3X      0.067700
     18 H4          0.8280   -1.4940    2.5080 h1        1 C3X      0.065700
     19 H51         1.9920    1.2720    1.6440 h1        1 C3X      0.059700
     20 H52         2.8280   -0.3600    1.5350 h1        1 C3X      0.059700
     21 HO2        -2.5810    0.5960    0.0200 ho        1 C3X      0.415000
     22 HO3        -1.1220   -0.2940    4.1790 ho        1 C3X      0.418000
     23 HO4         2.1770   -0.4460    4.0280 ho        1 C3X      0.410000
     24 H1'1        0.4250    1.5110   -2.4330 h1        1 C3X      0.055700
     25 H1'2        1.5600    0.0890   -2.1880 h1        1 C3X      0.055700
     26 H2'        -0.6570   -1.1850   -3.3900 h1        1 C3X      0.110700
     27 H3'1       -0.9580    0.1560   -5.6170 h1        1 C3X      0.078700
     28 H3'2        0.0460    1.5540   -4.9150 h1        1 C3X      0.078700
@<TRIPOS>BOND
     1    1    2 1   
     2    1    6 1   
     3    1   10 1   
     4    1   15 1   
     5    2    3 1   
     6    2    7 1   
     7    2   16 1   
     8    3    4 1   
     9    3    8 1   
    10    3   17 1   
    11    4    5 1   
    12    4    9 1   
    13    4   18 1   
    14    5   10 1   
    15    5   19 1   
    16    5   20 1   
    17    6   11 1   
    18    7   21 1   
    19    8   22 1   
    20    9   23 1   
    21   11   12 1   
    22   11   24 1   
    23   11   25 1   
    24   12   13 1   
    25   12   14 1   
    26   12   26 1   
    27   13   14 1   
    28   13   27 1   
    29   13   28 1   
@<TRIPOS>SUBSTRUCTURE
     1 C3X         1 TEMP              0 ****  ****    0 ROOT
