@<TRIPOS>MOLECULE
C3Y
   23    22     1     0     0
SMALL
bcc


@<TRIPOS>ATOM
      1 N          -4.5640    1.2140    0.4930 n3        1 C3Y     -0.900800
      2 CA         -4.4870    2.1040   -0.6560 c3        1 C3Y      0.034500
      3 C          -5.0040    1.4760   -1.9850 c         1 C3Y      0.886600
      4 O          -5.9050    0.5980   -1.9170 o         1 C3Y     -0.847800
      5 CB         -3.1100    2.7260   -0.8430 c3        1 C3Y      0.033700
      6 SG         -1.7390    1.5990   -0.9100 ss        1 C3Y     -0.426200
      7 C1          0.0840    1.0600   -2.7500 c3        1 C3Y     -0.074100
      8 O2         -1.7140    2.3600   -3.5300 oh        1 C3Y     -0.630800
      9 N1         -2.1820    0.0080   -3.0380 n3        1 C3Y     -0.600700
     10 O3         -1.8330   -0.4650   -4.2450 oh        1 C3Y     -0.424300
     11 C2         -1.4340    1.2460   -2.7070 c3        1 C3Y      0.489100
     12 OXT        -4.5130    1.8850   -3.0840 o         1 C3Y     -0.847800
     13 HN1        -5.3880    0.6450    0.3810 hn        1 C3Y      0.346300
     14 HN2        -3.7690    0.5970    0.4810 hn        1 C3Y      0.346300
     15 HA         -5.2010    2.9570   -0.4390 h1        1 C3Y      0.047700
     16 HBC1       -2.8650    3.3850    0.0270 h1        1 C3Y      0.069700
     17 HBC2       -3.1320    3.3410   -1.7760 h1        1 C3Y      0.069700
     18 H1C1        0.5760    2.0480   -2.5870 hc        1 C3Y      0.045033
     19 H1C2        0.3930    0.6660   -3.7480 hc        1 C3Y      0.045033
     20 H1C3        0.4020    0.3470   -1.9530 hc        1 C3Y      0.045033
     21 H1         -3.1820    0.2450   -3.0950 hn        1 C3Y      0.433800
     22 H3         -1.2250   -1.2010   -4.0540 ho        1 C3Y      0.393000
     23 H5         -2.6790    2.4320   -3.6580 ho        1 C3Y      0.466000
@<TRIPOS>BOND
     1    1    2 1   
     2    1   13 1   
     3    1   14 1   
     4    2    3 1   
     5    2    5 1   
     6    2   15 1   
     7    3    4 1   
     8    3   12 1   
     9    5    6 1   
    10    5   16 1   
    11    5   17 1   
    12    6   11 1   
    13    7   11 1   
    14    7   18 1   
    15    7   19 1   
    16    7   20 1   
    17    8   11 1   
    18    8   23 1   
    19    9   10 1   
    20    9   11 1   
    21    9   21 1   
    22   10   22 1   
@<TRIPOS>SUBSTRUCTURE
     1 C3Y         1 TEMP              0 ****  ****    0 ROOT
