@<TRIPOS>MOLECULE
C40
   76    74     1     0     0
SMALL
bcc


@<TRIPOS>ATOM
      1 C1         -8.0210    7.6870   -0.7680 c3        1 C40     -0.074000
      2 O2         -7.8190    6.2960   -0.5960 os        1 C40     -0.276000
      3 C3         -7.5610    5.9090    0.7430 c3        1 C40     -0.020000
      4 C4         -7.0840    4.4820    0.7640 c3        1 C40     -0.171000
      5 C5         -6.3880    4.1750    2.1290 c3        1 C40     -0.016000
      6 O6         -5.6730    2.9470    2.0260 os        1 C40     -0.228000
      7 C7         -5.0240    2.5580    3.2260 c2        1 C40      0.107000
      8 C8         -5.2230    3.3000    4.4040 c1        1 C40     -0.211000
      9 C9         -4.5570    2.9430    5.5760 c1        1 C40     -0.123500
     10 C10        -3.6890    1.8470    5.5810 c1        1 C40     -0.123500
     11 C11        -3.4880    1.1060    4.4080 c1        1 C40     -0.051000
     12 C12        -4.1570    1.4630    3.2310 c2        1 C40     -0.143000
     13 C13        -4.0330    0.5540    1.9460 c2        1 C40      0.354000
     14 O14        -4.6880    0.8070    0.9600 o         1 C40     -0.376000
     15 C16        -2.4030   -0.9010    0.6510 c3        1 C40     -0.025000
     16 N15        -3.0790   -0.5380    1.9200 n         1 C40     -0.364000
     17 C18        -0.2470   -0.4360    1.6940 c3        1 C40     -0.209000
     18 C17        -1.0670   -1.4610    0.9460 c3        1 C40     -0.118000
     19 C19        -0.3540   -1.8220   -0.3800 c3        1 C40     -0.201000
     20 N21         0.9800   -3.2720    0.9730 n3        1 C40     -0.336000
     21 C20         0.2900   -3.1930   -0.2530 c3        1 C40     -0.062000
     22 C22         1.2680   -3.4020   -1.4020 c3        1 C40      0.032000
     23 O23         0.9980   -2.4640   -2.4290 oh        1 C40     -0.333000
     24 C24         2.6780   -3.2110   -0.9010 c3        1 C40     -0.151000
     25 C25         3.5820   -2.7830   -2.0550 c3        1 C40     -0.117000
     26 C26         3.7060   -1.3120   -2.0600 c3        1 C40     -0.218000
     27 C27         4.9620   -3.4060   -1.8760 c2        1 C40      0.296000
     28 O28         5.2040   -4.0720   -0.8920 o         1 C40     -0.373000
     29 C30         7.4070   -3.0470   -2.4390 c3        1 C40     -0.034000
     30 N29         6.0210   -3.1360   -2.8620 n         1 C40     -0.373000
     31 C31         8.2350   -2.4560   -3.5600 c3        1 C40     -0.185000
     32 C32         9.7270   -2.4880   -3.1740 c3        1 C40     -0.156000
     33 C33        10.5620   -1.8630   -4.3040 c3        1 C40     -0.211000
     34 H1C1       -8.8060    7.9660   -0.2620 h1        1 C40      0.074333
     35 H1C2       -8.1610    7.8800   -1.7210 h1        1 C40      0.074333
     36 H1C3       -7.2410    8.1710   -0.4510 h1        1 C40      0.074333
     37 H3C1       -8.3810    5.9880    1.2670 h1        1 C40      0.067000
     38 H3C2       -6.8740    6.4890    1.1230 h1        1 C40      0.067000
     39 H4C1       -7.8550    3.8760    0.6460 hc        1 C40      0.111500
     40 H4C2       -6.4510    4.3440    0.0410 hc        1 C40      0.111500
     41 H5C1       -7.0670    4.1010    2.8350 h1        1 C40      0.083000
     42 H5C2       -5.7580    4.9060    2.3520 h1        1 C40      0.083000
     43 H8         -5.8280    4.0640    4.4010 ha        1 C40      0.139000
     44 H9         -4.6950    3.4580    6.3930 ha        1 C40      0.138500
     45 H10        -3.2210    1.5980    6.4040 ha        1 C40      0.138500
     46 H11        -2.8800    0.3380    4.4120 ha        1 C40      0.160000
     47 H15        -2.9340   -1.0400    2.6780 hn        1 C40      0.232000
     48 H161       -2.9510   -1.5830    0.1630 h1        1 C40      0.095500
     49 H162       -2.3040   -0.0930    0.0870 h1        1 C40      0.095500
     50 H17        -1.1640   -2.2620    1.4930 hc        1 C40      0.083000
     51 H181       -0.2430   -0.6520    2.6430 hc        1 C40      0.077000
     52 H182        0.6550   -0.4410    1.3590 hc        1 C40      0.077000
     53 H183       -0.6400    0.4560    1.5630 hc        1 C40      0.077000
     54 H191       -1.0120   -1.8340   -1.1150 hc        1 C40      0.102000
     55 H192        0.3410   -1.1490   -0.5720 hc        1 C40      0.102000
     56 H20        -0.4070   -3.8900   -0.2830 h1        1 C40      0.090000
     57 H211        0.4050   -3.0610    1.6610 hn        1 C40      0.147500
     58 H212        1.2960   -4.1180    1.0900 hn        1 C40      0.147500
     59 H22         1.1690   -4.2960   -1.7500 h1        1 C40      0.088000
     60 H23         0.6830   -2.8830   -3.1350 ho        1 C40      0.201000
     61 H241        2.6860   -2.5210   -0.2080 hc        1 C40      0.111500
     62 H242        3.0040   -4.0460   -0.5290 hc        1 C40      0.111500
     63 H25         3.2030   -3.0750   -2.8860 hc        1 C40      0.108000
     64 H261        4.3920   -1.0440   -1.4280 hc        1 C40      0.086667
     65 H262        3.9500   -1.0120   -2.9450 hc        1 C40      0.086667
     66 H263        2.8560   -0.9130   -1.8040 hc        1 C40      0.086667
     67 H29         5.8010   -3.0190   -3.7600 hn        1 C40      0.216000
     68 H301        7.4700   -2.4760   -1.6520 h1        1 C40      0.101500
     69 H302        7.7400   -3.9420   -2.2210 h1        1 C40      0.101500
     70 H311        8.0960   -2.9890   -4.3930 hc        1 C40      0.083500
     71 H312        7.9580   -1.5270   -3.7170 hc        1 C40      0.083500
     72 H321       10.0120   -3.4270   -3.0340 hc        1 C40      0.081500
     73 H322        9.8650   -1.9660   -2.3290 hc        1 C40      0.081500
     74 H331       10.2260   -0.9530   -4.4990 hc        1 C40      0.073333
     75 H332       10.4890   -2.4260   -5.1220 hc        1 C40      0.073333
     76 H333       11.5110   -1.8110   -4.0240 hc        1 C40      0.073333
@<TRIPOS>BOND
     1    1    2 1   
     2    1   34 1   
     3    1   35 1   
     4    1   36 1   
     5    2    3 1   
     6    3    4 1   
     7    3   37 1   
     8    3   38 1   
     9    4    5 1   
    10    4   39 1   
    11    4   40 1   
    12    5    6 1   
    13    5   41 1   
    14    5   42 1   
    15    6    7 1   
    16    7    8 1   
    17    7   12 1   
    18    8   43 1   
    19    9   10 1   
    20    9   44 1   
    21   10   45 1   
    22   11   12 1   
    23   11   46 1   
    24   12   13 1   
    25   13   14 1   
    26   13   16 1   
    27   15   16 1   
    28   15   18 1   
    29   15   48 1   
    30   15   49 1   
    31   16   47 1   
    32   17   18 1   
    33   17   51 1   
    34   17   52 1   
    35   17   53 1   
    36   18   19 1   
    37   18   50 1   
    38   19   21 1   
    39   19   54 1   
    40   19   55 1   
    41   20   21 1   
    42   20   57 1   
    43   20   58 1   
    44   21   22 1   
    45   21   56 1   
    46   22   23 1   
    47   22   24 1   
    48   22   59 1   
    49   23   60 1   
    50   24   25 1   
    51   24   61 1   
    52   24   62 1   
    53   25   26 1   
    54   25   27 1   
    55   25   63 1   
    56   26   64 1   
    57   26   65 1   
    58   26   66 1   
    59   27   28 1   
    60   27   30 1   
    61   29   30 1   
    62   29   31 1   
    63   29   68 1   
    64   29   69 1   
    65   30   67 1   
    66   31   32 1   
    67   31   70 1   
    68   31   71 1   
    69   32   33 1   
    70   32   72 1   
    71   32   73 1   
    72   33   74 1   
    73   33   75 1   
    74   33   76 1   
@<TRIPOS>SUBSTRUCTURE
     1 C40         1 TEMP              0 ****  ****    0 ROOT
