@<TRIPOS>MOLECULE
C40
   76    76     1     0     0
SMALL
bcc


@<TRIPOS>ATOM
      1 C1          6.5900   -5.8140    0.6520 c3        1 C40      0.115700
      2 O2          5.7840   -4.6490    0.6890 os        1 C40     -0.417600
      3 C3          6.4740   -3.4920    0.2240 c3        1 C40      0.130400
      4 C4          5.4810   -2.3460    0.2900 c3        1 C40     -0.092400
      5 C5          6.1640   -1.0570   -0.1280 c3        1 C40      0.133400
      6 O6          5.1570   -0.0390   -0.0350 os        1 C40     -0.343900
      7 C7          5.4750    1.1830   -0.5940 ca        1 C40      0.157100
      8 C8          6.7940    1.5590   -0.8940 ca        1 C40     -0.213000
      9 C9          7.0510    2.8170   -1.4310 ca        1 C40     -0.075000
     10 C10         6.0040    3.7040   -1.6790 ca        1 C40     -0.171000
     11 C11         4.6950    3.3290   -1.3870 ca        1 C40     -0.050000
     12 C12         4.4080    2.0730   -0.8360 ca        1 C40     -0.166600
     13 C13         2.9690    1.7750   -0.5790 c         1 C40      0.683700
     14 O14         2.0820    2.2480   -1.3270 o         1 C40     -0.638100
     15 C16         1.2580    0.6980    0.8130 c3        1 C40      0.099000
     16 N15         2.6280    1.0200    0.5190 n         1 C40     -0.556900
     17 C18         0.8480    2.0220    2.9030 c3        1 C40     -0.091100
     18 C17         0.4590    1.8480    1.4500 c3        1 C40     -0.087700
     19 C19        -1.0340    1.5880    1.3470 c3        1 C40     -0.113400
     20 N21        -1.1060    2.4960   -1.0230 n3        1 C40     -0.919800
     21 C20        -1.5860    1.5010   -0.0870 c3        1 C40      0.140500
     22 C22        -3.1360    1.5100    0.0220 c3        1 C40      0.142100
     23 O23        -3.6300    2.7780    0.4200 oh        1 C40     -0.607800
     24 C24        -3.7720    1.0360   -1.2800 c3        1 C40     -0.098400
     25 C25        -5.2790    0.8830   -1.1410 c3        1 C40     -0.136700
     26 C26        -5.9330    0.7800   -2.5030 c3        1 C40     -0.091100
     27 C27        -5.6230   -0.3590   -0.3180 c         1 C40      0.660100
     28 O28        -4.7950   -1.2680   -0.1040 o         1 C40     -0.616100
     29 N29        -6.8980   -0.4170    0.2130 n         1 C40     -0.569900
     30 C31        -8.5020   -2.3280    0.1840 c3        1 C40     -0.105400
     31 C32        -8.9880   -3.4810    1.0350 c3        1 C40     -0.078400
     32 C33       -10.0780   -4.2560    0.3400 c3        1 C40     -0.093100
     33 H1C1        7.4870   -5.6940    1.3100 h1        1 C40      0.034700
     34 H1C2        5.9250   -6.6250    1.0400 h1        1 C40      0.034700
     35 H1C3        6.9140   -6.0380   -0.3940 h1        1 C40      0.034700
     36 H3C1        7.3630   -3.2960    0.8810 h1        1 C40      0.027200
     37 H3C2        6.8280   -3.6590   -0.8280 h1        1 C40      0.027200
     38 H4C1        4.6090   -2.5560   -0.3820 hc        1 C40      0.073200
     39 H4C2        5.0800   -2.2490    1.3330 hc        1 C40      0.073200
     40 H5C1        7.0060   -0.8010    0.5690 h1        1 C40      0.043700
     41 H5C2        6.5460   -1.1220   -1.1800 h1        1 C40      0.043700
     42 H8          7.6300    0.8710   -0.7060 ha        1 C40      0.140000
     43 H9          8.0870    3.1090   -1.6610 ha        1 C40      0.136000
     44 H10         6.2080    4.6950   -2.1100 ha        1 C40      0.141000
     45 H11         3.8560    4.0140   -1.5990 ha        1 C40      0.160000
     46 H15         3.3400    0.6340    1.0910 hn        1 C40      0.326500
     47 H161        0.7530    0.3990   -0.1510 h1        1 C40      0.054700
     48 H162        1.2450   -0.1870    1.5100 h1        1 C40      0.054700
     49 H17         0.7050    2.8030    0.9030 hc        1 C40      0.062700
     50 H181        0.6060    1.1030    3.4900 hc        1 C40      0.034033
     51 H182        1.9430    2.2230    2.9940 hc        1 C40      0.034033
     52 H183        0.2940    2.8810    3.3520 hc        1 C40      0.034033
     53 H191       -1.2800    0.6280    1.8720 hc        1 C40      0.053700
     54 H192       -1.5760    2.4140    1.8830 hc        1 C40      0.053700
     55 H20        -1.3080    0.4880   -0.5100 h1        1 C40      0.061700
     56 H212       -0.1590    2.2990   -1.2920 hn        1 C40      0.363300
     57 H22        -3.4400    0.8220    0.8640 h1        1 C40      0.082700
     58 H23        -3.5030    3.3860   -0.3180 ho        1 C40      0.402000
     59 H241       -3.5520    1.7730   -2.0960 hc        1 C40      0.069200
     60 H242       -3.3200    0.0520   -1.5680 hc        1 C40      0.069200
     61 H25        -5.6710    1.7960   -0.6050 hc        1 C40      0.076700
     62 H261       -7.0430    0.7050   -2.4080 hc        1 C40      0.041367
     63 H262       -5.6920    1.6860   -3.1110 hc        1 C40      0.041367
     64 H263       -5.5590   -0.1200   -3.0490 hc        1 C40      0.041367
     65 H29        -7.5600    0.2660   -0.0660 hn        1 C40      0.304500
     66 H301       -6.5390   -2.2670    1.1230 h1        1 C40      0.060700
     67 H302       -7.8050   -1.2120    1.9100 h1        1 C40      0.060700
     68 H311       -9.3610   -1.6430   -0.0460 hc        1 C40      0.043700
     69 H312       -8.1150   -2.7180   -0.7930 hc        1 C40      0.043700
     70 H321       -8.1270   -4.1640    1.2640 hc        1 C40      0.041700
     71 H322       -9.3700   -3.0900    2.0150 hc        1 C40      0.041700
     72 H331      -10.9550   -3.5980    0.1250 hc        1 C40      0.033700
     73 H332       -9.7090   -4.6750   -0.6270 hc        1 C40      0.033700
     74 H333      -10.4220   -5.1020    0.9830 hc        1 C40      0.033700
     75 H211       -1.1420    3.4080   -0.6110 hn        1 C40      0.363300
     76 C30        -7.3980   -1.5640    0.9180 c3        1 C40      0.086000
@<TRIPOS>BOND
     1    1    2 1   
     2    1   33 1   
     3    1   34 1   
     4    1   35 1   
     5    2    3 1   
     6    3    4 1   
     7    3   36 1   
     8    3   37 1   
     9    4    5 1   
    10    4   38 1   
    11    4   39 1   
    12    5    6 1   
    13    5   40 1   
    14    5   41 1   
    15    6    7 1   
    16    7    8 ar  
    17    7   12 ar  
    18    8    9 ar  
    19    8   42 1   
    20    9   10 ar  
    21    9   43 1   
    22   10   11 ar  
    23   10   44 1   
    24   11   12 ar  
    25   11   45 1   
    26   12   13 1   
    27   13   14 2   
    28   13   16 1   
    29   15   16 1   
    30   15   18 1   
    31   15   47 1   
    32   15   48 1   
    33   16   46 1   
    34   17   18 1   
    35   17   50 1   
    36   17   51 1   
    37   17   52 1   
    38   18   19 1   
    39   18   49 1   
    40   19   21 1   
    41   19   53 1   
    42   19   54 1   
    43   20   21 1   
    44   20   56 1   
    45   20   75 1   
    46   21   22 1   
    47   21   55 1   
    48   22   23 1   
    49   22   24 1   
    50   22   57 1   
    51   23   58 1   
    52   24   25 1   
    53   24   59 1   
    54   24   60 1   
    55   25   26 1   
    56   25   27 1   
    57   25   61 1   
    58   26   62 1   
    59   26   63 1   
    60   26   64 1   
    61   27   28 2   
    62   27   29 1   
    63   29   65 1   
    64   29   76 1   
    65   30   31 1   
    66   30   68 1   
    67   30   69 1   
    68   30   76 1   
    69   31   32 1   
    70   31   70 1   
    71   31   71 1   
    72   32   72 1   
    73   32   73 1   
    74   32   74 1   
    75   66   76 1   
    76   67   76 1   
@<TRIPOS>SUBSTRUCTURE
     1 C40         1 TEMP              0 ****  ****    0 ROOT
