@<TRIPOS>MOLECULE
C40
   79    79     1     0     0
SMALL
bcc


@<TRIPOS>ATOM
      1 C1          1.1960    2.4510   -0.6160 c3        1 C40      0.111700
      2 O2          2.4510    1.8920   -0.2510 os        1 C40     -0.428600
      3 C3          2.5190    1.5600    1.1320 c3        1 C40      0.131400
      4 C4          3.8840    0.9230    1.3350 c3        1 C40     -0.093400
      5 C5          4.1080    0.6470    2.8080 c3        1 C40      0.131400
      6 O6          5.4240    0.0410    2.8740 os        1 C40     -0.333900
      7 C7          5.8690   -0.3580    4.0940 ca        1 C40      0.253100
      8 C8          5.2040   -0.1130    5.3140 ca        1 C40     -0.206000
      9 C9          5.7760   -0.5260    6.5050 ca        1 C40      0.004000
     10 C10         7.0210   -1.1880    6.5120 ca        1 C40     -0.143000
     11 C11         7.6810   -1.4370    5.3270 ca        1 C40     -0.074000
     12 C12         7.1180   -1.0350    4.0940 ca        1 C40     -0.282600
     13 C13         7.7220   -1.3580    2.8220 c         1 C40      0.618700
     14 O14         7.2650   -1.6930    1.7460 o         1 C40     -0.408100
     15 C16         9.8250   -0.9270    1.4850 c3        1 C40      0.101800
     16 N15         9.2870   -1.2440    2.8280 n4        1 C40     -0.700800
     17 C18        11.9890   -0.0550    2.4070 c3        1 C40     -0.132100
     18 C17        11.3600   -0.9690    1.3750 c3        1 C40     -0.094700
     19 C19        11.7400   -0.5530   -0.0470 c3        1 C40     -0.115400
     20 N21        14.1490   -1.2750    0.0620 n4        1 C40     -0.838600
     21 C20        12.8530   -1.3930   -0.6870 c3        1 C40      0.096500
     22 C22        13.0390   -0.9590   -2.1790 c3        1 C40      0.116100
     23 O23        13.8340    0.2120   -2.2120 oh        1 C40     -0.610800
     24 C24        13.7520   -2.0480   -2.9850 c3        1 C40     -0.090400
     25 C25        14.0550   -1.6350   -4.4260 c3        1 C40     -0.129700
     26 C26        15.1730   -2.4890   -4.9900 c3        1 C40     -0.132100
     27 C27        12.7950   -1.6960   -5.2690 c         1 C40      0.537100
     28 O28        11.6500   -1.6210   -4.8410 o         1 C40     -0.430100
     29 N29        12.9720   -1.8280   -6.7550 n4        1 C40     -0.669800
     30 C31        11.9230   -1.8920   -9.0320 c3        1 C40     -0.113400
     31 C32        10.5880   -1.7960   -9.7510 c3        1 C40     -0.074400
     32 C33        10.7780   -1.9380  -11.2400 c3        1 C40     -0.104100
     33 H1C1        1.2980    2.6580   -1.7110 h1        1 C40      0.046700
     34 H1C2        0.3710    1.7210   -0.4280 h1        1 C40      0.046700
     35 H1C3        1.0090    3.3980   -0.0520 h1        1 C40      0.046700
     36 H3C1        1.6960    0.8440    1.3960 h1        1 C40      0.039200
     37 H3C2        2.4100    2.4910    1.7500 h1        1 C40      0.039200
     38 H4C1        4.6800    1.6090    0.9460 hc        1 C40      0.070200
     39 H4C2        3.9470   -0.0310    0.7500 hc        1 C40      0.070200
     40 H5C1        3.3540   -0.0760    3.2160 h1        1 C40      0.067200
     41 H5C2        4.1170    1.5920    3.4120 h1        1 C40      0.067200
     42 H8          4.2280    0.4000    5.3180 ha        1 C40      0.182000
     43 H9          5.2550   -0.3410    7.4620 ha        1 C40      0.183000
     44 H10         7.4530   -1.5150    7.4730 ha        1 C40      0.177000
     45 H11         8.6320   -1.9910    5.3490 ha        1 C40      0.122000
     46 H15         9.5490   -0.5130    3.4970 hn        1 C40      0.450800
     47 H161        9.4540    0.1030    1.2080 hx        1 C40      0.120200
     48 H162        9.3770   -1.6670    0.7560 hx        1 C40      0.120200
     49 H17        11.6990   -2.0280    1.5580 hc        1 C40      0.060700
     50 H181       11.9370   -0.5080    3.4290 hc        1 C40      0.065033
     51 H182       13.0650    0.1410    2.1850 hc        1 C40      0.065033
     52 H183       11.4700    0.9370    2.4310 hc        1 C40      0.065033
     53 H191       12.0290    0.5330   -0.0610 hc        1 C40      0.099200
     54 H192       10.8450   -0.6610   -0.7230 hc        1 C40      0.099200
     55 H20        12.5580   -2.4860   -0.6670 hx        1 C40      0.120700
     56 H22        12.0140   -0.7850   -2.6150 h1        1 C40      0.105700
     57 H23        13.2580    0.9760   -2.3580 ho        1 C40      0.453000
     58 H241       13.1170   -2.9730   -2.9770 hc        1 C40      0.081200
     59 H242       14.7340   -2.2930   -2.4990 hc        1 C40      0.081200
     60 H25        14.3850   -0.5490   -4.4240 hc        1 C40      0.131700
     61 H261       14.8510   -3.5510   -5.1200 hc        1 C40      0.079367
     62 H262       15.5450   -2.0880   -5.9650 hc        1 C40      0.079367
     63 H263       16.0470   -2.4790   -4.2900 hc        1 C40      0.079367
     64 H29        13.4210   -2.7350   -6.9500 hn        1 C40      0.470800
     65 H301       11.0060   -2.5590   -7.1580 hx        1 C40      0.114700
     66 H302       11.2150   -0.7470   -7.3050 hx        1 C40      0.114700
     67 H311       12.6040   -1.0850   -9.4100 hc        1 C40      0.073200
     68 H312       12.3960   -2.8830   -9.2640 hc        1 C40      0.073200
     69 H321        9.8990   -2.6010   -9.3800 hc        1 C40      0.057200
     70 H322       10.1070   -0.8070   -9.5250 hc        1 C40      0.057200
     71 H331        9.7880   -1.8650  -11.7550 hc        1 C40      0.060033
     72 H332       11.4400   -1.1310  -11.6380 hc        1 C40      0.060033
     73 H333       11.2320   -2.9270  -11.4920 hc        1 C40      0.060033
     74 H211       14.8130   -1.9820   -0.2700 hn        1 C40      0.473467
     75 C30        11.6900   -1.7440   -7.5340 c3        1 C40      0.107800
     76 H152        9.6680   -2.1330    3.1600 hn        1 C40      0.450800
     77 H212       14.5530   -0.3410   -0.1090 hn        1 C40      0.473467
     78 H292       13.6110   -1.0900   -7.0800 hn        1 C40      0.470800
     79 H213       13.9910   -1.3980    1.0680 hn        1 C40      0.473467
@<TRIPOS>BOND
     1    1    2 1   
     2    1   33 1   
     3    1   34 1   
     4    1   35 1   
     5    2    3 1   
     6    3    4 1   
     7    3   36 1   
     8    3   37 1   
     9    4    5 1   
    10    4   38 1   
    11    4   39 1   
    12    5    6 1   
    13    5   40 1   
    14    5   41 1   
    15    6    7 1   
    16    7    8 ar  
    17    7   12 ar  
    18    8    9 ar  
    19    8   42 1   
    20    9   10 ar  
    21    9   43 1   
    22   10   11 ar  
    23   10   44 1   
    24   11   12 ar  
    25   11   45 1   
    26   12   13 1   
    27   13   14 2   
    28   13   16 1   
    29   15   16 1   
    30   15   18 1   
    31   15   47 1   
    32   15   48 1   
    33   16   46 1   
    34   16   76 1   
    35   17   18 1   
    36   17   50 1   
    37   17   51 1   
    38   17   52 1   
    39   18   19 1   
    40   18   49 1   
    41   19   21 1   
    42   19   53 1   
    43   19   54 1   
    44   20   21 1   
    45   20   74 1   
    46   20   77 1   
    47   20   79 1   
    48   21   22 1   
    49   21   55 1   
    50   22   23 1   
    51   22   24 1   
    52   22   56 1   
    53   23   57 1   
    54   24   25 1   
    55   24   58 1   
    56   24   59 1   
    57   25   26 1   
    58   25   27 1   
    59   25   60 1   
    60   26   61 1   
    61   26   62 1   
    62   26   63 1   
    63   27   28 2   
    64   27   29 1   
    65   29   64 1   
    66   29   75 1   
    67   29   78 1   
    68   30   31 1   
    69   30   67 1   
    70   30   68 1   
    71   30   75 1   
    72   31   32 1   
    73   31   69 1   
    74   31   70 1   
    75   32   71 1   
    76   32   72 1   
    77   32   73 1   
    78   65   75 1   
    79   66   75 1   
@<TRIPOS>SUBSTRUCTURE
     1 C40         1 TEMP              0 ****  ****    0 ROOT
