@<TRIPOS>MOLECULE
C41
   95    95     1     0     0
SMALL
bcc


@<TRIPOS>ATOM
      1 C1         10.6330   -4.0930    7.8510 c3        1 C41      0.116700
      2 O2          9.8120   -3.2480    8.6550 os        1 C41     -0.530600
      3 C3          9.2090   -2.1890    7.8950 c3        1 C41      0.123400
      4 C4          8.0250   -1.7290    8.7200 c3        1 C41     -0.097400
      5 C5          7.1270   -0.7640    7.9680 c3        1 C41      0.130400
      6 O6          5.9690   -0.6420    8.8170 os        1 C41     -0.391900
      7 C7          4.8800   -0.0390    8.2000 ca        1 C41      0.030100
      8 C8          3.7440   -0.8320    8.0040 ca        1 C41     -0.146000
      9 C9          2.5470   -0.2580    7.5770 ca        1 C41     -0.105300
     10 C10         2.5270    1.1120    7.2650 ca        1 C41     -0.076000
     11 C11         3.6650    1.8990    7.4010 ca        1 C41     -0.166000
     12 C12         4.8580    1.3350    7.8840 ca        1 C41      0.129100
     13 O13         6.0310    2.0220    8.0800 os        1 C41     -0.337900
     14 C14         6.0380    3.3950    7.6760 c3        1 C41      0.105700
     15 C15         1.2920   -1.0500    7.4450 c3        1 C41     -0.039100
     16 C16         1.2610   -2.3280    8.2760 c3        1 C41     -0.061700
     17 C17        -0.0240   -3.1350    8.0550 c3        1 C41     -0.054700
     18 C18        -1.2810   -2.2950    8.1150 c3        1 C41     -0.102600
     19 C19         0.0340   -3.8910    6.7420 c3        1 C41     -0.102600
     20 C20         1.4500   -2.0050    9.7590 c3        1 C41     -0.116400
     21 C21         2.3390   -3.0380   10.4730 c3        1 C41      0.096500
     22 N22         1.5450   -3.8280   11.4760 nz        1 C41     -0.837600
     23 C23         3.5520   -2.3310   11.1490 c3        1 C41      0.113100
     24 O24         3.0960   -1.6800   12.3230 oh        1 C41     -0.611800
     25 C25         4.6440   -3.3200   11.5680 c3        1 C41     -0.097400
     26 C26         6.0380   -2.6790   11.5640 c3        1 C41     -0.128700
     27 C27         6.2090   -1.6870   12.7220 c3        1 C41     -0.092700
     28 C28         6.6260   -2.3480   14.0160 c3        1 C41     -0.114100
     29 C29         7.1260   -0.5340   12.3680 c3        1 C41     -0.114100
     30 C30         7.0600   -3.8000   11.6060 c         1 C41      0.560100
     31 O31         6.8570   -4.9960   11.7240 o         1 C41     -0.410100
     32 N32         8.5300   -3.4020   11.4540 ny        1 C41     -0.689800
     33 C33         9.4020   -4.2210   12.3370 c3        1 C41      0.100800
     34 C34        10.8390   -3.6730   12.5470 c3        1 C41     -0.106000
     35 C35        11.6700   -3.8500   11.2900 c3        1 C41     -0.147100
     36 C36        10.8160   -2.2140   12.9820 c3        1 C41     -0.147100
     37 C37        11.4160   -4.5030   13.6970 c         1 C41      0.532100
     38 O38        10.7910   -5.1630   14.5090 o         1 C41     -0.368100
     39 N39        12.9100   -4.5050   13.8750 nz        1 C41     -0.749400
     40 H1C1       10.0150   -4.6080    7.0750 h1        1 C41      0.056367
     41 H1C2       11.0610   -4.8360    8.5700 h1        1 C41      0.056367
     42 H1C3       11.4450   -3.4950    7.3690 h1        1 C41      0.056367
     43 H3C1        9.9660   -1.3730    7.7560 h1        1 C41      0.074700
     44 H3C2        8.8800   -2.5700    6.8920 h1        1 C41      0.074700
     45 H4C1        8.3800   -1.2360    9.6630 hc        1 C41      0.019700
     46 H4C2        7.4150   -2.6310    9.0020 hc        1 C41      0.019700
     47 H5C1        6.8310   -1.1700    6.9660 h1        1 C41      0.079200
     48 H5C2        7.5950    0.2490    7.8480 h1        1 C41      0.079200
     49 H8          3.8240   -1.9120    8.1910 ha        1 C41      0.117000
     50 H10         1.5930    1.5720    6.8980 ha        1 C41      0.164000
     51 H151        0.4200   -0.3990    7.7350 hc        1 C41      0.083700
     52 H152        1.1490   -1.3280    6.3630 hc        1 C41      0.083700
     53 H11         3.6230    2.9660    7.1320 ha        1 C41      0.170000
     54 H141        5.3100    3.9820    8.2870 h1        1 C41      0.064033
     55 H142        5.8110    3.4840    6.5870 h1        1 C41      0.064033
     56 H143        7.0880    3.7180    7.8920 h1        1 C41      0.064033
     57 H16         2.1150   -2.9770    7.9240 hc        1 C41      0.047700
     58 H17        -0.0730   -3.8980    8.8880 hc        1 C41     -0.002300
     59 H201        1.9310   -0.9930    9.8610 hc        1 C41      0.085200
     60 H202        0.4420   -1.9130   10.2480 hc        1 C41      0.085200
     61 H181       -1.3670   -1.6450    7.2100 hc        1 C41      0.053033
     62 H182       -2.1800   -2.9590    8.1450 hc        1 C41      0.053033
     63 H183       -1.2920   -1.6420    9.0210 hc        1 C41      0.053033
     64 H191        0.9180   -4.5720    6.7140 hc        1 C41      0.053033
     65 H192        0.1010   -3.1850    5.8790 hc        1 C41      0.053033
     66 H193       -0.8910   -4.5060    6.6170 hc        1 C41      0.053033
     67 H21         2.7360   -3.7860    9.7210 hx        1 C41      0.113700
     68 H221        2.0950   -4.6150   11.8260 hn        1 C41      0.468133
     69 H222        0.6830   -4.1740   11.0370 hn        1 C41      0.468133
     70 H23         3.9670   -1.5960   10.3950 h1        1 C41      0.119700
     71 H24         2.8380   -0.7770   12.0890 ho        1 C41      0.450000
     72 H251        4.4230   -3.7070   12.5990 hc        1 C41      0.078700
     73 H252        4.6410   -4.1890   10.8560 hc        1 C41      0.078700
     74 H26         6.1710   -2.1180   10.5840 hc        1 C41      0.140700
     75 H27         5.1790   -1.2420   12.8940 hc        1 C41      0.117700
     76 H281        6.5020   -1.6260   14.8630 hc        1 C41      0.054033
     77 H282        7.7000   -2.6580   13.9910 hc        1 C41      0.054033
     78 H283        5.9970   -3.2460   14.2320 hc        1 C41      0.054033
     79 H291        6.8760    0.3470   13.0150 hc        1 C41      0.054033
     80 H292        8.2020   -0.7730   12.5570 hc        1 C41      0.054033
     81 H293        6.9980   -0.2200   11.3010 hc        1 C41      0.054033
     82 H32         8.6220   -2.4020   11.6810 hn        1 C41      0.483800
     83 H331        8.8910   -4.3010   13.3440 hx        1 C41      0.132200
     84 H332        9.4610   -5.2590   11.8930 hx        1 C41      0.132200
     85 H351       11.1590   -3.3690   10.4130 hc        1 C41      0.086200
     86 H352       11.8180   -4.9310   11.0460 hc        1 C41      0.086200
     87 H353       12.6650   -3.3480   11.3880 hc        1 C41      0.086200
     88 H361       10.0490   -2.0430   13.7780 hc        1 C41      0.086200
     89 H362       11.8110   -1.8920   13.3770 hc        1 C41      0.086200
     90 H363       10.5940   -1.5520   12.1070 hc        1 C41      0.086200
     91 H391       13.3660   -4.8990   13.0420 hn        1 C41      0.488800
     92 H392       13.1650   -5.0780   14.6980 hn        1 C41      0.488800
     93 H223        1.3010   -3.2160   12.2670 hn        1 C41      0.468133
     94 H322        8.8120   -3.5300   10.4600 hn        1 C41      0.483800
     95 H393       13.2560   -3.5480   14.0190 hn        1 C41      0.488800
@<TRIPOS>BOND
     1    1    2 1   
     2    1   40 1   
     3    1   41 1   
     4    1   42 1   
     5    2    3 1   
     6    3    4 1   
     7    3   43 1   
     8    3   44 1   
     9    4    5 1   
    10    4   45 1   
    11    4   46 1   
    12    5    6 1   
    13    5   47 1   
    14    5   48 1   
    15    6    7 1   
    16    7    8 ar  
    17    7   12 ar  
    18    8    9 ar  
    19    8   49 1   
    20    9   10 ar  
    21    9   15 1   
    22   10   11 ar  
    23   10   50 1   
    24   11   12 ar  
    25   11   53 1   
    26   12   13 1   
    27   13   14 1   
    28   14   54 1   
    29   14   55 1   
    30   14   56 1   
    31   15   16 1   
    32   15   51 1   
    33   15   52 1   
    34   16   17 1   
    35   16   20 1   
    36   16   57 1   
    37   17   18 1   
    38   17   19 1   
    39   17   58 1   
    40   18   61 1   
    41   18   62 1   
    42   18   63 1   
    43   19   64 1   
    44   19   65 1   
    45   19   66 1   
    46   20   21 1   
    47   20   59 1   
    48   20   60 1   
    49   21   22 1   
    50   21   23 1   
    51   21   67 1   
    52   22   68 1   
    53   22   69 1   
    54   22   93 1   
    55   23   24 1   
    56   23   25 1   
    57   23   70 1   
    58   24   71 1   
    59   25   26 1   
    60   25   72 1   
    61   25   73 1   
    62   26   27 1   
    63   26   30 1   
    64   26   74 1   
    65   27   28 1   
    66   27   29 1   
    67   27   75 1   
    68   28   76 1   
    69   28   77 1   
    70   28   78 1   
    71   29   79 1   
    72   29   80 1   
    73   29   81 1   
    74   30   31 2   
    75   30   32 1   
    76   32   33 1   
    77   32   82 1   
    78   32   94 1   
    79   33   34 1   
    80   33   83 1   
    81   33   84 1   
    82   34   35 1   
    83   34   36 1   
    84   34   37 1   
    85   35   85 1   
    86   35   86 1   
    87   35   87 1   
    88   36   88 1   
    89   36   89 1   
    90   36   90 1   
    91   37   38 2   
    92   37   39 1   
    93   39   91 1   
    94   39   92 1   
    95   39   95 1   
@<TRIPOS>SUBSTRUCTURE
     1 C41         1 TEMP              0 ****  ****    0 ROOT
