@<TRIPOS>MOLECULE
C41
   92    92     1     0     0
SMALL
bcc


@<TRIPOS>ATOM
      1 C1        -11.8010   -2.5970    1.5420 c3        1 C41      0.115700
      2 O2        -11.1820   -1.3810    1.1600 os        1 C41     -0.417600
      3 C3         -9.7590   -1.4820    1.1240 c3        1 C41      0.130400
      4 C4         -9.2420   -0.1200    0.7000 c3        1 C41     -0.089400
      5 C5         -7.7250   -0.1490    0.6450 c3        1 C41      0.127400
      6 O6         -7.3300    1.1670    0.2390 os        1 C41     -0.305900
      7 C7         -5.9720    1.3640    0.0910 ca        1 C41      0.106100
      8 C8         -4.9900    0.4080    0.3500 ca        1 C41     -0.180000
      9 C9         -3.6350    0.7220    0.1720 ca        1 C41     -0.069300
     10 C10        -3.2750    1.9960   -0.2670 ca        1 C41     -0.129000
     11 C11        -4.2470    2.9620   -0.5320 ca        1 C41     -0.175000
     12 C12        -5.5970    2.6590   -0.3570 ca        1 C41      0.097100
     13 O13        -6.6420    3.5330   -0.5840 os        1 C41     -0.303900
     14 C14        -6.2780    4.8280   -1.0460 c3        1 C41      0.110700
     15 C15        -2.5870   -0.2850    0.4990 c3        1 C41     -0.031100
     16 C16        -1.7620   -0.7490   -0.7000 c3        1 C41     -0.050700
     17 C17        -2.4960   -1.7150   -1.6380 c3        1 C41     -0.055700
     18 C18        -3.2170   -2.8270   -0.9060 c3        1 C41     -0.092600
     19 C19        -3.4530   -0.9850   -2.5580 c3        1 C41     -0.092600
     20 C20        -0.4640   -1.3860   -0.2050 c3        1 C41     -0.074400
     21 C21         0.7920   -0.7540   -0.8240 c3        1 C41      0.140500
     22 N22         0.8220   -0.8520   -2.2660 n3        1 C41     -0.907800
     23 C23         2.0310   -1.3650   -0.1030 c3        1 C41      0.092100
     24 O24         2.0940   -2.7670   -0.3140 oh        1 C41     -0.595800
     25 C25         3.3120   -0.6580   -0.5320 c3        1 C41     -0.110400
     26 C26         4.4140   -0.7310    0.5160 c3        1 C41     -0.119700
     27 C27         4.9280   -2.1550    0.7340 c3        1 C41     -0.072700
     28 C28         5.6060   -2.7320   -0.4910 c3        1 C41     -0.095100
     29 C29         5.8580   -2.2250    1.9280 c3        1 C41     -0.095100
     30 C30         5.5440    0.2060    0.0820 c         1 C41      0.653100
     31 O31         5.8070    0.3980   -1.1230 o         1 C41     -0.611100
     32 N32         6.2210    0.8840    1.0810 n         1 C41     -0.558900
     33 C33         7.3210    1.7630    0.8120 c3        1 C41      0.091000
     34 C34         8.7350    1.1580    1.0110 c3        1 C41     -0.142000
     35 C35         8.8790    0.5580    2.4000 c3        1 C41     -0.094100
     36 C36         9.0020    0.1070   -0.0510 c3        1 C41     -0.094100
     37 C37         9.7260    2.3280    0.9080 c         1 C41      0.662100
     38 O38         9.3780    3.5060    1.1350 o         1 C41     -0.617100
     39 N39        11.0370    2.0600    0.6060 n         1 C41     -0.671000
     40 H1C1      -11.5590   -3.4100    0.8140 h1        1 C41      0.032700
     41 H1C2      -11.4790   -2.8990    2.5690 h1        1 C41      0.032700
     42 H1C3      -12.8960   -2.3690    1.5260 h1        1 C41      0.032700
     43 H3C1       -9.3760   -1.7610    2.1420 h1        1 C41      0.025200
     44 H3C2       -9.4570   -2.2760    0.3900 h1        1 C41      0.025200
     45 H4C1       -9.6570    0.1540   -0.3040 hc        1 C41      0.073700
     46 H4C2       -9.5850    0.6640    1.4240 hc        1 C41      0.073700
     47 H5C1       -7.2880   -0.3780    1.6520 h1        1 C41      0.036200
     48 H5C2       -7.3610   -0.9010   -0.1040 h1        1 C41      0.036200
     49 H8         -5.2670   -0.5990    0.6940 ha        1 C41      0.138000
     50 H10        -2.2130    2.2470   -0.4070 ha        1 C41      0.135000
     51 H151       -1.8910    0.1920    1.2460 hc        1 C41      0.045700
     52 H152       -3.0470   -1.1740    1.0060 hc        1 C41      0.045700
     53 H11        -3.9380    3.9590   -0.8790 ha        1 C41      0.139000
     54 H141       -5.6450    5.3550   -0.2900 h1        1 C41      0.043367
     55 H142       -5.7460    4.7660   -2.0260 h1        1 C41      0.043367
     56 H143       -7.2640    5.3460   -1.1640 h1        1 C41      0.043367
     57 H16        -1.5100    0.1700   -1.3060 hc        1 C41      0.068700
     58 H17        -1.7060   -2.1910   -2.2920 hc        1 C41      0.043700
     59 H201       -0.3750   -1.2750    0.9090 hc        1 C41      0.049200
     60 H202       -0.4570   -2.4890   -0.4140 hc        1 C41      0.049200
     61 H181       -4.1360   -2.4410   -0.4020 hc        1 C41      0.034367
     62 H182       -3.5260   -3.6210   -1.6290 hc        1 C41      0.034367
     63 H183       -2.5540   -3.2880   -0.1350 hc        1 C41      0.034367
     64 H191       -2.9050   -0.2310   -3.1710 hc        1 C41      0.034367
     65 H192       -3.9490   -1.7110   -3.2460 hc        1 C41      0.034367
     66 H193       -4.2420   -0.4580   -1.9690 hc        1 C41      0.034367
     67 H21         0.7880    0.3510   -0.5790 h1        1 C41      0.063700
     68 H221        1.7040   -0.5380   -2.6220 hn        1 C41      0.351300
     69 H222        0.6550   -1.7920   -2.5660 hn        1 C41      0.351300
     70 H23         1.8830   -1.2700    1.0110 h1        1 C41      0.078700
     71 H24         2.3670   -2.9160   -1.2270 ho        1 C41      0.395000
     72 H251        3.6940   -1.0910   -1.4940 hc        1 C41      0.065700
     73 H252        3.0840    0.4240   -0.7260 hc        1 C41      0.065700
     74 H26         3.9840   -0.3710    1.4950 hc        1 C41      0.060700
     75 H27         4.0180   -2.7880    0.9590 hc        1 C41      0.079700
     76 H281        6.3810   -2.0300   -0.8880 hc        1 C41      0.037700
     77 H282        6.0960   -3.7020   -0.2360 hc        1 C41      0.037700
     78 H283        4.8550   -2.9190   -1.2970 hc        1 C41      0.037700
     79 H291        5.4290   -1.6760    2.8010 hc        1 C41      0.037700
     80 H292        6.0130   -3.2910    2.2250 hc        1 C41      0.037700
     81 H293        6.8550   -1.7870    1.6810 hc        1 C41      0.037700
     82 H32         6.1190    0.5650    2.0150 hn        1 C41      0.305500
     83 H331        7.2470    2.1260   -0.2540 h1        1 C41      0.084200
     84 H332        7.2260    2.6530    1.5000 h1        1 C41      0.084200
     85 H351        8.2630   -0.3690    2.4910 hc        1 C41      0.044867
     86 H352        9.9440    0.2850    2.6000 hc        1 C41      0.044867
     87 H353        8.5470    1.2910    3.1750 hc        1 C41      0.044867
     88 H361        9.1420    0.5850   -1.0500 hc        1 C41      0.044867
     89 H362        9.9080   -0.4970    0.1970 hc        1 C41      0.044867
     90 H363        8.1330   -0.5950   -0.1260 hc        1 C41      0.044867
     91 H391       11.3300    1.1520    0.3570 hn        1 C41      0.312000
     92 H392       11.6770    2.8100    0.5160 hn        1 C41      0.312000
@<TRIPOS>BOND
     1    1    2 1   
     2    1   40 1   
     3    1   41 1   
     4    1   42 1   
     5    2    3 1   
     6    3    4 1   
     7    3   43 1   
     8    3   44 1   
     9    4    5 1   
    10    4   45 1   
    11    4   46 1   
    12    5    6 1   
    13    5   47 1   
    14    5   48 1   
    15    6    7 1   
    16    7    8 ar  
    17    7   12 ar  
    18    8    9 ar  
    19    8   49 1   
    20    9   10 ar  
    21    9   15 1   
    22   10   11 ar  
    23   10   50 1   
    24   11   12 ar  
    25   11   53 1   
    26   12   13 1   
    27   13   14 1   
    28   14   54 1   
    29   14   55 1   
    30   14   56 1   
    31   15   16 1   
    32   15   51 1   
    33   15   52 1   
    34   16   17 1   
    35   16   20 1   
    36   16   57 1   
    37   17   18 1   
    38   17   19 1   
    39   17   58 1   
    40   18   61 1   
    41   18   62 1   
    42   18   63 1   
    43   19   64 1   
    44   19   65 1   
    45   19   66 1   
    46   20   21 1   
    47   20   59 1   
    48   20   60 1   
    49   21   22 1   
    50   21   23 1   
    51   21   67 1   
    52   22   68 1   
    53   22   69 1   
    54   23   24 1   
    55   23   25 1   
    56   23   70 1   
    57   24   71 1   
    58   25   26 1   
    59   25   72 1   
    60   25   73 1   
    61   26   27 1   
    62   26   30 1   
    63   26   74 1   
    64   27   28 1   
    65   27   29 1   
    66   27   75 1   
    67   28   76 1   
    68   28   77 1   
    69   28   78 1   
    70   29   79 1   
    71   29   80 1   
    72   29   81 1   
    73   30   31 2   
    74   30   32 1   
    75   32   33 1   
    76   32   82 1   
    77   33   34 1   
    78   33   83 1   
    79   33   84 1   
    80   34   35 1   
    81   34   36 1   
    82   34   37 1   
    83   35   85 1   
    84   35   86 1   
    85   35   87 1   
    86   36   88 1   
    87   36   89 1   
    88   36   90 1   
    89   37   38 2   
    90   37   39 1   
    91   39   91 1   
    92   39   92 1   
@<TRIPOS>SUBSTRUCTURE
     1 C41         1 TEMP              0 ****  ****    0 ROOT
