@<TRIPOS>MOLECULE
C41
   95    95     1     0     0
SMALL
bcc


@<TRIPOS>ATOM
      1 C1         10.9330   -3.4520    8.1160 c3        1 C41      0.115700
      2 O2          9.8930   -2.8020    8.8420 os        1 C41     -0.529600
      3 C3          9.2750   -1.7500    8.0800 c3        1 C41      0.124400
      4 C4          7.9940   -1.4270    8.8180 c3        1 C41     -0.102400
      5 C5          7.0990   -0.4590    8.0660 c3        1 C41      0.132400
      6 O6          5.9070   -0.4140    8.8740 os        1 C41     -0.390900
      7 C7          4.8130    0.1670    8.2460 ca        1 C41      0.032100
      8 C8          3.7000   -0.6540    8.0400 ca        1 C41     -0.147000
      9 C9          2.4880   -0.1080    7.6170 ca        1 C41     -0.106300
     10 C10         2.4330    1.2610    7.3100 ca        1 C41     -0.076000
     11 C11         3.5510    2.0760    7.4520 ca        1 C41     -0.166000
     12 C12         4.7560    1.5420    7.9380 ca        1 C41      0.128100
     13 O13         5.9090    2.2600    8.1450 os        1 C41     -0.336900
     14 C14         5.8780    3.6370    7.7570 c3        1 C41      0.105700
     15 C15         1.2530   -0.9320    7.4890 c3        1 C41     -0.038100
     16 C16         1.2570   -2.2040    8.3310 c3        1 C41     -0.061700
     17 C17        -0.0080   -3.0450    8.1200 c3        1 C41     -0.054700
     18 C18        -1.2860   -2.2360    8.1700 c3        1 C41     -0.103100
     19 C19         0.0690   -3.8160    6.8160 c3        1 C41     -0.103100
     20 C20         1.4410   -1.8650    9.8100 c3        1 C41     -0.116400
     21 C21         2.3100   -2.9050   10.5400 c3        1 C41      0.096500
     22 N22         1.5070   -3.6400   11.5780 n4        1 C41     -0.837600
     23 C23         3.5550   -2.2170   11.1790 c3        1 C41      0.114100
     24 O24         3.1370   -1.5260   12.3440 oh        1 C41     -0.612800
     25 C25         4.6220   -3.2320   11.6010 c3        1 C41     -0.097400
     26 C26         6.0320   -2.6250   11.6100 c3        1 C41     -0.126700
     27 C27         6.2290   -1.6620   12.7870 c3        1 C41     -0.096700
     28 C28         6.6460   -2.3530   14.0660 c3        1 C41     -0.112100
     29 C29         7.1540   -0.5160   12.4380 c3        1 C41     -0.112100
     30 C30         7.0280   -3.7720   11.6360 c         1 C41      0.558100
     31 O31         6.7900   -4.9630   11.7480 o         1 C41     -0.414100
     32 N32         8.5000   -3.3870   11.4980 n4        1 C41     -0.685800
     33 C33         9.4530   -4.5280   11.4970 c3        1 C41      0.095800
     34 C34        10.7950   -4.2460   12.2260 c3        1 C41     -0.112000
     35 C35        11.3720   -2.8910   11.8300 c3        1 C41     -0.143100
     36 C36        10.6020   -4.3350   13.7300 c3        1 C41     -0.143100
     37 C37        11.7670   -5.3150   11.7270 c         1 C41      0.537100
     38 O38        11.7060   -5.9210   10.6700 o         1 C41     -0.370100
     39 N39        12.9540   -5.6410   12.5910 n4        1 C41     -0.750400
     40 H1C1       11.2880   -4.2660    8.7990 h1        1 C41      0.052700
     41 H1C2       11.7560   -2.7290    7.8950 h1        1 C41      0.052700
     42 H1C3       10.5350   -3.8880    7.1670 h1        1 C41      0.052700
     43 H3C1        9.0650   -2.1060    7.0370 h1        1 C41      0.074700
     44 H3C2        9.9730   -0.8730    8.0440 h1        1 C41      0.074700
     45 H4C1        8.2320   -0.9820    9.8230 hc        1 C41      0.025700
     46 H4C2        7.4200   -2.3820    8.9760 hc        1 C41      0.025700
     47 H5C1        6.8570   -0.8320    7.0380 h1        1 C41      0.079200
     48 H5C2        7.5370    0.5720    8.0080 h1        1 C41      0.079200
     49 H8          3.8090   -1.7330    8.2180 ha        1 C41      0.117000
     50 H10         1.4890    1.7000    6.9450 ha        1 C41      0.164000
     51 H151        0.3660   -0.3030    7.7740 hc        1 C41      0.082700
     52 H152        1.1190   -1.2240    6.4090 hc        1 C41      0.082700
     53 H11         3.4820    3.1440    7.1880 ha        1 C41      0.170000
     54 H141        5.6570    3.7320    6.6670 h1        1 C41      0.064033
     55 H142        5.1300    4.1960    8.3690 h1        1 C41      0.064033
     56 H143        6.9180    3.9870    7.9840 h1        1 C41      0.064033
     57 H16         2.1260   -2.8350    7.9830 hc        1 C41      0.047700
     58 H17        -0.0380   -3.7990    8.9620 hc        1 C41     -0.003300
     59 H201        1.9360   -0.8600    9.9040 hc        1 C41      0.085700
     60 H202        0.4300   -1.7540   10.2900 hc        1 C41      0.085700
     61 H181       -1.3140   -1.5740    9.0680 hc        1 C41      0.053033
     62 H182       -2.1680   -2.9220    8.2070 hc        1 C41      0.053033
     63 H183       -1.3870   -1.5990    7.2560 hc        1 C41      0.053033
     64 H191        0.9680   -4.4770    6.7970 hc        1 C41      0.053033
     65 H192       -0.8420   -4.4520    6.6970 hc        1 C41      0.053033
     66 H193        0.1220   -3.1190    5.9450 hc        1 C41      0.053033
     67 H21         2.6700   -3.6860    9.8050 hx        1 C41      0.113700
     68 H221        0.6300   -3.9760   11.1610 hn        1 C41      0.467800
     69 H222        1.2910   -2.9960   12.3520 hn        1 C41      0.467800
     70 H23         3.9790   -1.5120   10.4020 h1        1 C41      0.120700
     71 H24         2.9210   -0.6160   12.0960 ho        1 C41      0.451000
     72 H251        4.3870   -3.6170   12.6300 hc        1 C41      0.077700
     73 H252        4.6020   -4.0980   10.8870 hc        1 C41      0.077700
     74 H26         6.1790   -2.0480   10.6420 hc        1 C41      0.136700
     75 H27         5.2090   -1.2020   12.9820 hc        1 C41      0.120700
     76 H281        6.5030   -1.6560   14.9310 hc        1 C41      0.053700
     77 H282        7.7230   -2.6500   14.0540 hc        1 C41      0.053700
     78 H283        6.0250   -3.2630   14.2510 hc        1 C41      0.053700
     79 H291        7.0870    0.2700   13.2340 hc        1 C41      0.053700
     80 H292        8.2240   -0.8300   12.3740 hc        1 C41      0.053700
     81 H293        6.8610   -0.0470   11.4640 hc        1 C41      0.053700
     82 H32         8.6220   -2.8650   10.6070 hn        1 C41      0.482300
     83 H331        9.6620   -4.7770   10.4090 hx        1 C41      0.140700
     84 H332        8.9610   -5.4230   11.9830 hx        1 C41      0.140700
     85 H351       12.4450   -2.8040   12.1310 hc        1 C41      0.084367
     86 H352       11.2970   -2.7360   10.7210 hc        1 C41      0.084367
     87 H353       10.8250   -2.0670   12.3530 hc        1 C41      0.084367
     88 H361       11.5150   -3.9910   14.2780 hc        1 C41      0.084367
     89 H362        9.7670   -3.6630   14.0530 hc        1 C41      0.084367
     90 H363       10.3430   -5.3740   14.0500 hc        1 C41      0.084367
     91 H391       12.6430   -6.0150   13.4970 hn        1 C41      0.488133
     92 H392       13.5170   -4.7970   12.7580 hn        1 C41      0.488133
     93 H223        2.0390   -4.4310   11.9460 hn        1 C41      0.467800
     94 H322        8.7150   -2.7410   12.2710 hn        1 C41      0.482300
     95 H393       13.5460   -6.3490   12.1250 hn        1 C41      0.488133
@<TRIPOS>BOND
     1    1    2 1   
     2    1   40 1   
     3    1   41 1   
     4    1   42 1   
     5    2    3 1   
     6    3    4 1   
     7    3   43 1   
     8    3   44 1   
     9    4    5 1   
    10    4   45 1   
    11    4   46 1   
    12    5    6 1   
    13    5   47 1   
    14    5   48 1   
    15    6    7 1   
    16    7    8 ar  
    17    7   12 ar  
    18    8    9 ar  
    19    8   49 1   
    20    9   10 ar  
    21    9   15 1   
    22   10   11 ar  
    23   10   50 1   
    24   11   12 ar  
    25   11   53 1   
    26   12   13 1   
    27   13   14 1   
    28   14   54 1   
    29   14   55 1   
    30   14   56 1   
    31   15   16 1   
    32   15   51 1   
    33   15   52 1   
    34   16   17 1   
    35   16   20 1   
    36   16   57 1   
    37   17   18 1   
    38   17   19 1   
    39   17   58 1   
    40   18   61 1   
    41   18   62 1   
    42   18   63 1   
    43   19   64 1   
    44   19   65 1   
    45   19   66 1   
    46   20   21 1   
    47   20   59 1   
    48   20   60 1   
    49   21   22 1   
    50   21   23 1   
    51   21   67 1   
    52   22   68 1   
    53   22   69 1   
    54   22   93 1   
    55   23   24 1   
    56   23   25 1   
    57   23   70 1   
    58   24   71 1   
    59   25   26 1   
    60   25   72 1   
    61   25   73 1   
    62   26   27 1   
    63   26   30 1   
    64   26   74 1   
    65   27   28 1   
    66   27   29 1   
    67   27   75 1   
    68   28   76 1   
    69   28   77 1   
    70   28   78 1   
    71   29   79 1   
    72   29   80 1   
    73   29   81 1   
    74   30   31 2   
    75   30   32 1   
    76   32   33 1   
    77   32   82 1   
    78   32   94 1   
    79   33   34 1   
    80   33   83 1   
    81   33   84 1   
    82   34   35 1   
    83   34   36 1   
    84   34   37 1   
    85   35   85 1   
    86   35   86 1   
    87   35   87 1   
    88   36   88 1   
    89   36   89 1   
    90   36   90 1   
    91   37   38 2   
    92   37   39 1   
    93   39   91 1   
    94   39   92 1   
    95   39   95 1   
@<TRIPOS>SUBSTRUCTURE
     1 C41         1 TEMP              0 ****  ****    0 ROOT
