@<TRIPOS>MOLECULE
C41
   92    90     1     0     0
SMALL
bcc


@<TRIPOS>ATOM
      1 C1         -6.4570   -1.5710    3.9720 c3        1 C41     -0.073000
      2 O2         -6.7890   -0.6210    3.0440 os        1 C41     -0.294000
      3 C3         -6.2190   -0.8310    1.7920 c3        1 C41     -0.019000
      4 C4         -6.2310    0.4900    0.9970 c3        1 C41     -0.172000
      5 C5         -5.5310    0.2840   -0.3580 c3        1 C41     -0.018000
      6 O6         -4.7650    1.4640   -0.6860 os        1 C41     -0.215000
      7 C7         -4.0900    1.3880   -1.9550 c2        1 C41      0.037000
      8 C8         -2.8700    0.7200   -2.0560 c1        1 C41     -0.111000
      9 C9         -2.2150    0.6480   -3.2800 c1        1 C41     -0.089000
     10 C10        -2.7790    1.2440   -4.4050 c1        1 C41     -0.109000
     11 C11        -3.9990    1.9130   -4.3040 c1        1 C41     -0.187000
     12 C12        -4.6530    1.9830   -3.0780 c2        1 C41      0.050000
     13 O13        -5.8930    2.6660   -2.9710 os        1 C41     -0.210000
     14 C14        -5.8460    3.9920   -3.3870 c3        1 C41     -0.076000
     15 C15        -0.9320   -0.2500   -3.4310 c3        1 C41     -0.116000
     16 C16         0.3150    0.6410   -3.4850 c3        1 C41     -0.097000
     17 C17         0.8760    0.6550   -4.9030 c3        1 C41     -0.109000
     18 C18         0.4920   -0.6850   -5.6370 c3        1 C41     -0.209000
     19 C19         0.2910    1.8620   -5.6830 c3        1 C41     -0.209000
     20 C20         1.3620    0.0990   -2.5370 c3        1 C41     -0.159000
     21 C21         1.9650    1.2800   -1.6990 c3        1 C41     -0.061000
     22 N22         2.3150    2.3340   -2.5600 n3        1 C41     -0.357000
     23 C23         3.1890    0.8070   -0.9630 c3        1 C41      0.032000
     24 O24         4.3540    1.3010   -1.6110 oh        1 C41     -0.330000
     25 C25         3.1500    1.3240    0.4860 c3        1 C41     -0.184000
     26 C26         3.9940    0.4270    1.3630 c3        1 C41     -0.116000
     27 C27         5.3380    1.0880    1.6270 c3        1 C41     -0.097000
     28 C28         5.4040    1.5530    3.0710 c3        1 C41     -0.217000
     29 C29         6.4550    0.0720    1.3650 c3        1 C41     -0.217000
     30 C30         3.2800    0.1810    2.6800 c2        1 C41      0.301000
     31 O31         2.9530    1.1370    3.3940 o         1 C41     -0.372000
     32 N32         2.9140   -1.2260    3.0890 n         1 C41     -0.369000
     33 C33         1.8020   -1.4570    4.0470 c3        1 C41     -0.025000
     34 C34         1.8040   -2.9610    4.5050 c3        1 C41     -0.094000
     35 C35         3.0570   -3.2370    5.3980 c3        1 C41     -0.204000
     36 C36         1.8410   -3.8780    3.2710 c3        1 C41     -0.204000
     37 C37         0.5620   -3.2370    5.2860 c2        1 C41      0.300000
     38 O38        -0.3840   -2.4950    5.1910 o         1 C41     -0.387000
     39 N39         0.5280   -4.3270    6.2270 n         1 C41     -0.425000
     40 H1C1       -5.5090   -1.4980    4.1880 h1        1 C41      0.075333
     41 H1C2       -6.9780   -1.4360    4.7690 h1        1 C41      0.075333
     42 H1C3       -6.6400   -2.4550    3.6100 h1        1 C41      0.075333
     43 H3C1       -6.7440   -1.5210    1.3000 h1        1 C41      0.070000
     44 H3C2       -5.2810   -1.1450    1.9030 h1        1 C41      0.070000
     45 H4C1       -7.1630    0.7730    0.8440 hc        1 C41      0.104500
     46 H4C2       -5.7600    1.1800    1.5070 hc        1 C41      0.104500
     47 H5C1       -4.9390   -0.4780   -0.3030 h1        1 C41      0.084000
     48 H5C2       -6.2040    0.1260   -1.0540 h1        1 C41      0.084000
     49 H8         -2.4730    0.3000   -1.2610 ha        1 C41      0.149000
     50 H10        -2.3180    1.1940   -5.2670 ha        1 C41      0.133000
     51 H151       -0.9950   -0.7790   -4.2640 hc        1 C41      0.091000
     52 H152       -0.8640   -0.8680   -2.6500 hc        1 C41      0.091000
     53 H11        -4.4050    2.3420   -5.1140 ha        1 C41      0.138000
     54 H141       -6.7080    4.2490   -3.7340 h1        1 C41      0.084333
     55 H142       -5.1790    4.0890   -4.0770 h1        1 C41      0.084333
     56 H143       -5.6200    4.5570   -2.6390 h1        1 C41      0.084333
     57 H16         0.0780    1.5450   -3.2220 hc        1 C41      0.085000
     58 H17         1.8770    0.7400   -4.8630 hc        1 C41      0.093000
     59 H201        0.9470   -0.5570   -1.9320 hc        1 C41      0.099000
     60 H202        2.0750   -0.3360   -3.0520 hc        1 C41      0.099000
     61 H181        1.0400   -0.7760   -6.4720 hc        1 C41      0.073667
     62 H182       -0.4760   -0.6710   -5.8770 hc        1 C41      0.073667
     63 H183        0.6730   -1.4560   -5.0360 hc        1 C41      0.073667
     64 H191       -0.3100    2.3760   -5.0950 hc        1 C41      0.073667
     65 H192       -0.2120    1.5360   -6.4630 hc        1 C41      0.073667
     66 H193        1.0270    2.4410   -5.9860 hc        1 C41      0.073667
     67 H21         1.3000    1.5930   -1.0550 h1        1 C41      0.073000
     68 H221        1.6810    3.0060   -2.4990 hn        1 C41      0.148500
     69 H222        3.1470    2.6690   -2.3190 hn        1 C41      0.148500
     70 H23         3.2110   -0.1840   -0.9570 h1        1 C41      0.119000
     71 H24         4.6770    0.6840   -2.1420 ho        1 C41      0.212000
     72 H251        3.5080    2.2490    0.5170 hc        1 C41      0.102000
     73 H252        2.2460    1.3190    0.8010 hc        1 C41      0.102000
     74 H26         4.1400   -0.4410    0.9010 hc        1 C41      0.114000
     75 H27         5.4480    1.8650    1.0260 hc        1 C41      0.090000
     76 H281        6.2900    1.9510    3.2490 hc        1 C41      0.079333
     77 H282        5.2630    0.7960    3.6610 hc        1 C41      0.079333
     78 H283        4.7120    2.2200    3.2290 hc        1 C41      0.079333
     79 H291        7.2730    0.5420    1.1190 hc        1 C41      0.079333
     80 H292        6.1900   -0.5200    0.6390 hc        1 C41      0.079333
     81 H293        6.6160   -0.4670    2.1900 hc        1 C41      0.079333
     82 H32         3.3680   -1.9560    2.7160 hn        1 C41      0.223000
     83 H331        1.9170   -0.8810    4.8250 h1        1 C41      0.106000
     84 H332        0.9480   -1.2520    3.6130 h1        1 C41      0.106000
     85 H351        3.8440   -2.9620    4.9360 hc        1 C41      0.084667
     86 H352        2.9750   -2.7180    6.2630 hc        1 C41      0.084667
     87 H353        3.1130   -4.2100    5.5980 hc        1 C41      0.084667
     88 H361        2.7660   -3.9640    2.9520 hc        1 C41      0.084667
     89 H362        1.4980   -4.7580    3.5110 hc        1 C41      0.084667
     90 H363        1.2920   -3.4970    2.5700 hc        1 C41      0.084667
     91 H391        1.1930   -4.9710    6.2150 hn        1 C41      0.231500
     92 H392       -0.1430   -4.3660    6.8650 hn        1 C41      0.231500
@<TRIPOS>BOND
     1    1    2 1   
     2    1   40 1   
     3    1   41 1   
     4    1   42 1   
     5    2    3 1   
     6    3    4 1   
     7    3   43 1   
     8    3   44 1   
     9    4    5 1   
    10    4   45 1   
    11    4   46 1   
    12    5    6 1   
    13    5   47 1   
    14    5   48 1   
    15    6    7 1   
    16    7    8 1   
    17    7   12 1   
    18    8   49 1   
    19    9   10 1   
    20    9   15 1   
    21   10   50 1   
    22   11   12 1   
    23   11   53 1   
    24   12   13 1   
    25   13   14 1   
    26   14   54 1   
    27   14   55 1   
    28   14   56 1   
    29   15   16 1   
    30   15   51 1   
    31   15   52 1   
    32   16   17 1   
    33   16   20 1   
    34   16   57 1   
    35   17   18 1   
    36   17   19 1   
    37   17   58 1   
    38   18   61 1   
    39   18   62 1   
    40   18   63 1   
    41   19   64 1   
    42   19   65 1   
    43   19   66 1   
    44   20   21 1   
    45   20   59 1   
    46   20   60 1   
    47   21   22 1   
    48   21   23 1   
    49   21   67 1   
    50   22   68 1   
    51   22   69 1   
    52   23   24 1   
    53   23   25 1   
    54   23   70 1   
    55   24   71 1   
    56   25   26 1   
    57   25   72 1   
    58   25   73 1   
    59   26   27 1   
    60   26   30 1   
    61   26   74 1   
    62   27   28 1   
    63   27   29 1   
    64   27   75 1   
    65   28   76 1   
    66   28   77 1   
    67   28   78 1   
    68   29   79 1   
    69   29   80 1   
    70   29   81 1   
    71   30   31 1   
    72   30   32 1   
    73   32   33 1   
    74   32   82 1   
    75   33   34 1   
    76   33   83 1   
    77   33   84 1   
    78   34   35 1   
    79   34   36 1   
    80   34   37 1   
    81   35   85 1   
    82   35   86 1   
    83   35   87 1   
    84   36   88 1   
    85   36   89 1   
    86   36   90 1   
    87   37   38 1   
    88   37   39 1   
    89   39   91 1   
    90   39   92 1   
@<TRIPOS>SUBSTRUCTURE
     1 C41         1 TEMP              0 ****  ****    0 ROOT
