@<TRIPOS>MOLECULE
C42
   33    34     1     0     0
SMALL
bcc


@<TRIPOS>ATOM
      1 N1          0.8910    0.1830    2.4770 n         1 C42     -0.368000
      2 C2          0.9940    0.2510    3.9100 c         1 C42      0.819900
      3 N3         -0.1220    0.0090    4.7220 nc        1 C42     -0.766100
      4 C4         -1.3030   -0.2510    4.1230 cd        1 C42      0.704500
      5 C5         -1.4380   -0.3330    2.6920 cd        1 C42     -0.461600
      6 C6         -0.3200   -0.1070    1.9070 cc        1 C42      0.091600
      7 O2          2.1120    0.5040    4.4270 o         1 C42     -0.696500
      8 N4         -2.4560   -0.4070    4.9130 nh        1 C42     -0.895800
      9 C1'         2.0790    0.4660    1.6580 c3        1 C42      0.290500
     10 C2'         2.5410   -0.7230    0.7900 c3        1 C42     -0.105400
     11 C3'         1.9820   -0.4120   -0.6110 c3        1 C42      0.119500
     12 C4'         1.7860    1.1270   -0.5980 c3        1 C42      0.075100
     13 O4'         1.8410    1.5660    0.7780 os        1 C42     -0.440600
     14 C5'         0.4430    1.5880   -1.2140 c3        1 C42      0.222400
     15 O5'         0.1930    0.9820   -2.4120 os        1 C42     -0.570200
     16 P          -0.9050   -0.3670   -2.4290 p5        1 C42      1.335900
     17 O1P        -2.0300    0.0680   -3.3110 o         1 C42     -0.924500
     18 O2P        -1.2110   -0.5100   -0.9490 o         1 C42     -0.924500
     19 O3P         0.0660   -1.4110   -2.9120 o         1 C42     -0.924500
     20 N           2.7780   -0.9520   -1.6920 n3        1 C42     -0.920800
     21 H5         -2.3930   -0.5540    2.2010 ha        1 C42      0.170000
     22 H6         -0.4090   -0.1790    0.7710 h4        1 C42      0.308000
     23 H4N1       -2.3000   -0.6230    5.8720 hn        1 C42      0.388300
     24 H4N2       -3.1500   -0.9730    4.4800 hn        1 C42      0.388300
     25 H1'         2.8880    0.8150    2.3670 h2        1 C42      0.087700
     26 H2'1        2.1590   -1.7040    1.1560 hc        1 C42      0.045700
     27 H2'2        3.6580   -0.7540    0.8010 hc        1 C42      0.045700
     28 H3'         0.9310   -0.8660   -0.6940 h1        1 C42      0.145700
     29 H4'         2.6410    1.6560   -1.1010 h1        1 C42      0.020700
     30 H5'1       -0.3830    1.4060   -0.4710 h1        1 C42     -0.000800
     31 H5'2        0.5360    2.7040   -1.3750 h1        1 C42     -0.000800
     32 HN1         2.1580   -1.4540   -2.3190 hn        1 C42      0.369800
     33 HN2         3.1930   -0.2030   -2.2140 hn        1 C42      0.369800
@<TRIPOS>BOND
     1    1    2 1   
     2    1    6 1   
     3    1    9 1   
     4    2    3 1   
     5    2    7 2   
     6    3    4 2   
     7    4    5 1   
     8    4    8 1   
     9    5    6 2   
    10    5   21 1   
    11    6   22 1   
    12    8   23 1   
    13    8   24 1   
    14    9   10 1   
    15    9   13 1   
    16    9   25 1   
    17   10   11 1   
    18   10   26 1   
    19   10   27 1   
    20   11   12 1   
    21   11   20 1   
    22   11   28 1   
    23   12   13 1   
    24   12   14 1   
    25   12   29 1   
    26   14   15 1   
    27   14   30 1   
    28   14   31 1   
    29   15   16 1   
    30   16   17 1   
    31   16   18 1   
    32   16   19 1   
    33   20   32 1   
    34   20   33 1   
@<TRIPOS>SUBSTRUCTURE
     1 C42         1 TEMP              0 ****  ****    0 ROOT
