@<TRIPOS>MOLECULE
C42
   33    33     1     0     0
SMALL
bcc


@<TRIPOS>ATOM
      1 N1          1.3110    0.8070    0.8610 n         1 C42     -0.261000
      2 C2          0.6480    0.2770    2.0510 c2        1 C42      0.338000
      3 N3          1.4240   -0.0030    3.2590 n2        1 C42     -0.339000
      4 C4          2.8050    0.3220    3.3080 c1        1 C42      0.178000
      5 C5          3.4550    0.9330    2.1400 c1        1 C42     -0.375000
      6 C6          2.6790    1.1810    0.9180 c2        1 C42      0.089000
      7 O2         -0.5340   -0.0020    2.0120 o         1 C42     -0.421000
      8 N4          3.5350    0.1330    4.5090 n3        1 C42     -0.334000
      9 C1'         0.5880    0.9830   -0.3220 c3        1 C42      0.142000
     10 C2'         1.0830    0.2220   -1.2720 c3        1 C42     -0.184000
     11 C3'        -0.1240   -0.1910   -2.1210 c3        1 C42     -0.078000
     12 C4'        -1.3980    0.2220   -1.2820 c3        1 C42     -0.036000
     13 O4'        -0.9520    0.5040   -0.1130 os        1 C42     -0.297000
     14 C5'        -2.3840   -0.9430   -1.2070 c3        1 C42      0.072000
     15 O5'        -3.6200   -0.4820   -0.7130 os        1 C42     -0.732000
     16 P          -4.8730   -1.4420   -0.8020 p5        1 C42      1.569500
     17 O1P        -4.9550   -2.0350   -2.1880 o         1 C42     -0.924500
     18 O2P        -4.7300   -2.5510    0.2120 o         1 C42     -0.924500
     19 O3P        -6.1300   -0.6560   -0.5160 o         1 C42     -0.924500
     20 N          -0.1100    0.4620   -3.3020 n3        1 C42     -0.353000
     21 H5          4.4160    1.1060    2.1520 ha        1 C42      0.170000
     22 H6          3.1170    1.5480    0.1270 h4        1 C42      0.308000
     23 H4N1        3.1170   -0.1990    5.2510 hn        1 C42      0.183500
     24 H4N2        4.4210    0.3580    4.5460 hn        1 C42      0.183500
     25 H1'         0.6130    1.9220   -0.5970 h2        1 C42      0.127000
     26 H2'1        1.5130   -0.5680   -0.8840 hc        1 C42      0.085000
     27 H2'2        1.7230    0.7290   -1.8140 hc        1 C42      0.085000
     28 H3'        -0.1170   -1.1570   -2.2690 h1        1 C42      0.185000
     29 H4'        -1.8270    1.0060   -1.6790 h1        1 C42      0.060000
     30 H5'1       -2.0300   -1.6330   -0.6070 h1        1 C42      0.038500
     31 H5'2       -2.5100   -1.3220   -2.1010 h1        1 C42      0.038500
     32 HN1         0.6690    0.2740   -3.7460 hn        1 C42      0.165000
     33 HN2        -0.8230    0.1910   -3.8100 hn        1 C42      0.165000
@<TRIPOS>BOND
     1    1    2 1   
     2    1    6 1   
     3    1    9 1   
     4    2    3 1   
     5    2    7 1   
     6    3    4 1   
     7    4    8 1   
     8    5    6 1   
     9    5   21 1   
    10    6   22 1   
    11    8   23 1   
    12    8   24 1   
    13    9   10 1   
    14    9   13 1   
    15    9   25 1   
    16   10   11 1   
    17   10   26 1   
    18   10   27 1   
    19   11   12 1   
    20   11   20 1   
    21   11   28 1   
    22   12   13 1   
    23   12   14 1   
    24   12   29 1   
    25   14   15 1   
    26   14   30 1   
    27   14   31 1   
    28   15   16 1   
    29   16   17 1   
    30   16   18 1   
    31   16   19 1   
    32   20   32 1   
    33   20   33 1   
@<TRIPOS>SUBSTRUCTURE
     1 C42         1 TEMP              0 ****  ****    0 ROOT
