@<TRIPOS>MOLECULE
C43
   43    42     1     0     0
SMALL
bcc


@<TRIPOS>ATOM
      1 P          -0.6200    3.8680    4.2470 p3        1 C43      2.519000
      2 OP3         0.8670    3.8950    4.1640 os        1 C43     -1.226000
      3 OP2        -1.0480    3.8480    5.7100 o         1 C43     -1.250500
      4 OP1        -1.1750    5.0810    3.5830 o         1 C43     -1.250500
      5 O5'        -1.1780    2.5470    3.5060 os        1 C43     -0.741000
      6 C5'        -0.6610    2.2180    2.1880 c3        1 C43      0.059000
      7 C4'        -1.7570    1.4060    1.3750 c3        1 C43     -0.044000
      8 O4'        -1.7130    1.8030   -0.1430 os        1 C43     -0.288000
      9 C3'        -1.4990    0.1860    1.3990 c3        1 C43     -0.013000
     10 O3'        -2.7630   -0.6050    1.3530 oh        1 C43     -0.380000
     11 C2'        -0.5850   -0.1180    0.0540 c3        1 C43     -0.015000
     12 O2'        -0.6760   -1.5490   -0.3140 os        1 C43     -0.266000
     13 C1'        -1.0640    0.5980   -0.8660 c3        1 C43      0.146000
     14 N1          0.0050    1.0550   -1.7650 n         1 C43     -0.266000
     15 C2          0.5570    2.3870   -1.6100 c2        1 C43      0.340000
     16 O2         -0.0040    3.1880   -0.9030 o         1 C43     -0.401000
     17 N3          1.6770    2.8280   -2.4740 n2        1 C43     -0.333000
     18 C4          2.0750    2.0330   -3.5780 c1        1 C43      0.185000
     19 N4          3.0030    2.5340   -4.5010 n2        1 C43     -0.335000
     20 C5          1.4070    0.7390   -3.8270 c2        1 C43     -0.372000
     21 C6          0.3960    0.2440   -2.8770 c2        1 C43      0.092000
     22 CA'         0.2950   -2.3790    0.3410 c3        1 C43     -0.018000
     23 CB'        -0.0300   -3.8940    0.0630 c3        1 C43     -0.069000
     24 CD'         0.7970   -6.0710    0.4400 c3        1 C43     -0.067000
     25 OC'         1.0440   -4.6880    0.5020 os        1 C43     -0.284000
     26 H5'1        0.1730    1.6540    2.2840 h1        1 C43      0.053500
     27 H5'2       -0.4370    3.0690    1.6930 h1        1 C43      0.053500
     28 H4'        -2.6750    1.5770    1.7550 h1        1 C43      0.080000
     29 H3'        -0.9970   -0.0330    2.2000 h1        1 C43      0.193000
     30 HA         -2.9780   -0.8540    2.1540 ho        1 C43      0.284000
     31 H2'         0.3660    0.1330    0.2230 h1        1 C43      0.087000
     32 H1'        -1.7320    0.1060   -1.3610 h2        1 C43      0.147000
     33 H4N1        3.3980    3.3330   -4.3550 hn        1 C43      0.189000
     34 H4N2        3.2470    2.0210   -5.2440 hn        1 C43      0.189000
     35 H5          1.6710    0.1980   -4.5720 ha        1 C43      0.168000
     36 H6         -0.0500   -0.6150   -3.0390 h4        1 C43      0.277000
     37 HA'1        0.2700   -2.2080    1.3200 h1        1 C43      0.112000
     38 HA'2        1.1880   -2.1700   -0.0030 h1        1 C43      0.112000
     39 HB'1       -0.8400   -4.1480    0.5430 h1        1 C43      0.078000
     40 HB'2       -0.1690   -4.0340   -0.9320 h1        1 C43      0.078000
     41 HD'1        1.6290   -6.5600    0.6300 h1        1 C43      0.059667
     42 HD'2        0.4710   -6.3110   -0.4720 h1        1 C43      0.059667
     43 HD'3        0.1150   -6.3130    1.1070 h1        1 C43      0.059667
@<TRIPOS>BOND
     1    1    3 1   
     2    1    4 1   
     3    1    5 1   
     4    5    6 1   
     5    6    7 1   
     6    6   26 1   
     7    6   27 1   
     8    7    8 1   
     9    7    9 1   
    10    7   28 1   
    11    8   13 1   
    12    9   10 1   
    13    9   11 1   
    14    9   29 1   
    15   10   30 1   
    16   11   12 1   
    17   11   13 1   
    18   11   31 1   
    19   12   22 1   
    20   13   14 1   
    21   13   32 1   
    22   14   15 1   
    23   14   21 1   
    24   15   16 1   
    25   15   17 1   
    26   17   18 1   
    27   18   20 1   
    28   19   33 1   
    29   19   34 1   
    30   20   21 1   
    31   20   35 1   
    32   21   36 1   
    33   22   23 1   
    34   22   37 1   
    35   22   38 1   
    36   23   25 1   
    37   23   39 1   
    38   23   40 1   
    39   24   25 1   
    40   24   41 1   
    41   24   42 1   
    42   24   43 1   
@<TRIPOS>SUBSTRUCTURE
     1 C43         1 TEMP              0 ****  ****    0 ROOT
