@<TRIPOS>MOLECULE
C43
   43    44     1     0     0
SMALL
bcc


@<TRIPOS>ATOM
      1 P           4.1060   -0.4830    0.4340 p5        1 C43      1.328900
      2 OP3         3.3140   -1.2820   -0.5810 o         1 C43     -0.928167
      3 OP2         5.3890   -1.0710    0.9290 o         1 C43     -0.928167
      4 OP1         4.0380    1.0040    0.2180 o         1 C43     -0.928167
      5 O5'         3.0050   -0.6790    1.7800 os        1 C43     -0.551200
      6 C5'         1.8120   -0.0430    1.5950 c3        1 C43      0.224400
      7 C4'         0.6780   -1.0520    1.2920 c3        1 C43      0.051100
      8 O4'        -0.5880   -0.4770    1.7170 os        1 C43     -0.434600
      9 C3'         0.5580   -1.4240   -0.1980 c3        1 C43      0.159100
     10 O3'         0.9730   -2.7410   -0.4390 oh        1 C43     -0.637800
     11 C2'        -0.9390   -1.2430   -0.5460 c3        1 C43      0.095100
     12 O2'        -1.5970   -2.5010   -0.5860 os        1 C43     -0.375600
     13 C1'        -1.5160   -0.4160    0.6490 c3        1 C43      0.260500
     14 N1         -1.8010    0.9900    0.3040 n         1 C43     -0.368000
     15 C2         -3.1350    1.3820   -0.0570 c         1 C43      0.826900
     16 O2         -4.0320    0.5040   -0.0800 o         1 C43     -0.680500
     17 N3         -3.4210    2.7130   -0.3960 nc        1 C43     -0.748100
     18 C4         -2.4270    3.6190   -0.3340 cd        1 C43      0.717500
     19 N4         -2.7060    4.9690   -0.5880 nh        1 C43     -0.897800
     20 C5         -1.0760    3.2600    0.0400 cd        1 C43     -0.458600
     21 C6         -0.8210    1.9400    0.3520 cc        1 C43      0.101600
     22 CA'        -2.8470   -2.4450   -1.2710 c3        1 C43      0.077400
     23 CB'        -3.6840   -3.6000   -0.7290 c3        1 C43      0.125400
     24 CD'        -5.7360   -2.5130   -0.2080 c3        1 C43      0.104700
     25 OC'        -5.0620   -3.4360   -1.0490 os        1 C43     -0.440600
     26 H5'1        1.5120    0.4980    2.5430 h1        1 C43     -0.004800
     27 H5'2        1.8870    0.7090    0.7550 h1        1 C43     -0.004800
     28 H4'         0.8120   -1.9740    1.9170 h1        1 C43      0.077700
     29 H3'         1.1680   -0.7120   -0.8300 h1        1 C43      0.116700
     30 HA          1.9530   -2.6810   -0.5400 ho        1 C43      0.493000
     31 H2'        -1.0540   -0.7160   -1.5280 h1        1 C43      0.047700
     32 H1'        -2.4840   -0.8620    1.0270 h2        1 C43      0.092700
     33 H4N1       -3.5580    5.1630   -1.0630 hn        1 C43      0.399800
     34 H4N2       -1.9220    5.4850   -0.9160 hn        1 C43      0.399800
     35 H5         -0.2720    4.0010    0.0850 ha        1 C43      0.160000
     36 H6          0.1980    1.5960    0.6540 h4        1 C43      0.227000
     37 HA'1       -3.3650   -1.4640   -1.0970 h1        1 C43      0.044200
     38 HA'2       -2.6590   -2.5700   -2.3700 h1        1 C43      0.044200
     39 HB'1       -3.4010   -4.5630   -1.2310 h1        1 C43      0.052700
     40 HB'2       -3.5400   -3.6960    0.3790 h1        1 C43      0.052700
     41 HD'1       -5.7820   -2.9100    0.8370 h1        1 C43      0.036700
     42 HD'2       -5.2370   -1.5110   -0.2130 h1        1 C43      0.036700
     43 HD'3       -6.7640   -2.4410   -0.6410 h1        1 C43      0.036700
@<TRIPOS>BOND
     1    1    2 1   
     2    1    3 1   
     3    1    4 1   
     4    1    5 1   
     5    5    6 1   
     6    6    7 1   
     7    6   26 1   
     8    6   27 1   
     9    7    8 1   
    10    7    9 1   
    11    7   28 1   
    12    8   13 1   
    13    9   10 1   
    14    9   11 1   
    15    9   29 1   
    16   10   30 1   
    17   11   12 1   
    18   11   13 1   
    19   11   31 1   
    20   12   22 1   
    21   13   14 1   
    22   13   32 1   
    23   14   15 1   
    24   14   21 1   
    25   15   16 2   
    26   15   17 1   
    27   17   18 2   
    28   18   19 1   
    29   18   20 1   
    30   19   33 1   
    31   19   34 1   
    32   20   21 2   
    33   20   35 1   
    34   21   36 1   
    35   22   23 1   
    36   22   37 1   
    37   22   38 1   
    38   23   25 1   
    39   23   39 1   
    40   23   40 1   
    41   24   25 1   
    42   24   41 1   
    43   24   42 1   
    44   24   43 1   
@<TRIPOS>SUBSTRUCTURE
     1 C43         1 TEMP              0 ****  ****    0 ROOT
