@<TRIPOS>MOLECULE
C44
   87    91     1     0     0
SMALL
bcc


@<TRIPOS>ATOM
      1 C1         -0.4220    0.5610   -1.4540 c         1 C44      0.570700
      2 N2          0.6280    0.2690   -0.4130 n4        1 C44     -0.678800
      3 C3          0.5560    1.1520    0.8150 c3        1 C44      0.142500
      4 C4          1.1780    2.5520    0.5360 c3        1 C44      0.101100
      5 C5          1.2370    0.4490    2.0020 c3        1 C44     -0.055100
      6 C6          1.3030    3.3330    1.8600 c3        1 C44      0.067800
      7 O7         -0.9920    1.6400   -1.3470 o         1 C44     -0.426100
      8 C8         -0.6800   -0.4540   -2.4930 ca        1 C44     -0.143600
      9 C9          0.2120   -1.4870   -2.8110 ca        1 C44     -0.127000
     10 C10        -0.1270   -2.3470   -3.8670 ca        1 C44      0.007600
     11 C11        -1.3310   -2.2090   -4.5740 ca        1 C44     -0.111000
     12 C12        -2.2170   -1.1370   -4.2900 ca        1 C44      0.243600
     13 C13        -1.8690   -0.2760   -3.2130 ca        1 C44     -0.073000
     14 C14         0.7890   -0.9610    2.1640 ca        1 C44     -0.191300
     15 C15        -0.4800   -1.2420    2.6870 ca        1 C44     -0.131500
     16 C16        -0.8600   -2.5600    2.9350 ca        1 C44     -0.114500
     17 C17         0.0280   -3.6060    2.6690 ca        1 C44     -0.084000
     18 C18         1.2930   -3.3300    2.1460 ca        1 C44     -0.114500
     19 C19         1.6740   -2.0130    1.8930 ca        1 C44     -0.131500
     20 N20         1.7390    4.7400    1.6780 n4        1 C44     -0.772000
     21 N32         0.7910   -3.4140   -4.2860 n4        1 C44     -0.647400
     22 C33         0.3050   -4.7880   -3.8980 c3        1 C44      0.117800
     23 C34         1.2320   -5.8750   -4.3960 c3        1 C44     -0.148100
     24 S41        -3.3440   -1.0280   -6.7670 s6        1 C44      1.443900
     25 C42        -4.9240   -1.4760   -7.1350 c3        1 C44     -0.337600
     26 C43        -5.9940   -0.7010   -6.3980 c3        1 C44     -0.061400
     27 C44        -5.8450   -0.8600   -4.9030 c3        1 C44     -0.107400
     28 C45        -4.5040   -0.3250   -4.3990 c3        1 C44      0.187800
     29 O52        -3.0190    0.2370   -7.2480 o         1 C44     -0.629800
     30 O53        -2.4480   -2.0690   -7.0750 o         1 C44     -0.629800
     31 C54         1.8460    5.5280    2.9920 c3        1 C44      0.211800
     32 C56         0.4480    5.9090    3.4900 c3        1 C44     -0.101400
     33 C57         0.5310    6.4260    4.9100 c3        1 C44     -0.077400
     34 C58         1.0350    5.3380    5.8340 c3        1 C44     -0.059100
     35 C59         2.3060    4.7400    5.3440 ca        1 C44     -0.019300
     36 C60         2.6930    4.8140    3.9970 ca        1 C44     -0.189300
     37 C67         3.1600    4.1220    6.2720 ca        1 C44     -0.116000
     38 C68         4.3890    3.6090    5.8750 ca        1 C44     -0.070000
     39 C69         4.7920    3.7190    4.5390 ca        1 C44     -0.114000
     40 C70         3.9540    4.3240    3.6120 ca        1 C44     -0.144000
     41 N75        -3.3550   -0.9290   -5.0550 nh        1 C44     -0.632900
     42 O82         2.4620    2.3310   -0.0220 oh        1 C44     -0.607800
     43 H2          0.5320   -0.7130   -0.0960 hn        1 C44      0.480300
     44 H3         -0.5420    1.3000    1.0470 hx        1 C44      0.125700
     45 H4          0.5080    3.1030   -0.1870 h1        1 C44      0.087700
     46 H5C1        2.3530    0.5020    1.8780 hc        1 C44      0.097200
     47 H5C2        0.9650    1.0220    2.9310 hc        1 C44      0.097200
     48 H6C1        2.0750    2.8360    2.5260 hx        1 C44      0.135200
     49 H6C2        0.3070    3.3300    2.3890 hx        1 C44      0.135200
     50 H82         2.6620    3.0530   -0.6350 ho        1 C44      0.443000
     51 H20         2.6670    4.7400    1.2380 hn        1 C44      0.448300
     52 H9          1.1630   -1.6130   -2.2730 ha        1 C44      0.140000
     53 H13        -2.5330    0.5730   -2.9560 ha        1 C44      0.194000
     54 H11        -1.5820   -2.9280   -5.3860 ha        1 C44      0.225000
     55 H32         1.7200   -3.2580   -3.8800 hn        1 C44      0.467300
     56 H15        -1.1690   -0.4210    2.9380 ha        1 C44      0.138500
     57 H19         2.6940   -1.8010    1.5360 ha        1 C44      0.138500
     58 H16        -1.8510   -2.7750    3.3670 ha        1 C44      0.167500
     59 H17        -0.2630   -4.6460    2.8950 ha        1 C44      0.173000
     60 H18         2.0050   -4.1520    1.9670 ha        1 C44      0.167500
     61 H54         2.3900    6.4810    2.6880 hx        1 C44      0.120700
     62 H331        0.2260   -4.8140   -2.7740 hx        1 C44      0.109200
     63 H332       -0.7260   -4.9170   -4.3390 hx        1 C44      0.109200
     64 H341        1.3080   -5.8820   -5.5120 hc        1 C44      0.094033
     65 H342        2.2560   -5.7870   -3.9590 hc        1 C44      0.094033
     66 H343        0.8030   -6.8620   -4.0780 hc        1 C44      0.094033
     67 H431       -7.0080   -1.0700   -6.7120 hc        1 C44      0.091200
     68 H432       -5.9410    0.3850   -6.6840 hc        1 C44      0.091200
     69 H441       -5.9670   -1.9370   -4.6150 hc        1 C44      0.083700
     70 H442       -6.6540   -0.2790   -4.3830 hc        1 C44      0.083700
     71 H451       -4.4590   -0.5120   -3.2880 h1        1 C44      0.062700
     72 H452       -4.4670    0.7930   -4.5640 h1        1 C44      0.062700
     73 H561       -0.2450    5.0270    3.4700 hc        1 C44      0.061200
     74 H562        0.0180    6.7050    2.8250 hc        1 C44      0.061200
     75 H571       -0.4880    6.7630    5.2390 hc        1 C44      0.086700
     76 H572        1.2100    7.3190    4.9580 hc        1 C44      0.086700
     77 H581        1.1910    5.7720    6.8610 hc        1 C44      0.083700
     78 H582        0.2610    4.5290    5.9360 hc        1 C44      0.083700
     79 H67         2.8560    4.0680    7.3320 ha        1 C44      0.171000
     80 H70         4.3180    4.4510    2.5810 ha        1 C44      0.113000
     81 H68         5.0590    3.1380    6.6160 ha        1 C44      0.174000
     82 H69         5.7840    3.3490    4.2320 ha        1 C44      0.164000
     83 H421       -5.1090   -1.3330   -8.2430 h1        1 C44      0.156700
     84 H22         1.5620    0.3880   -0.8330 hn        1 C44      0.480300
     85 H202        1.0800    5.2380    1.0710 hn        1 C44      0.448300
     86 H322        0.8820   -3.3780   -5.3150 hn        1 C44      0.467300
     87 H422       -5.1050   -2.5760   -6.9700 h1        1 C44      0.156700
@<TRIPOS>BOND
     1    1    2 1   
     2    1    7 2   
     3    1    8 1   
     4    2    3 1   
     5    2   43 1   
     6    2   84 1   
     7    3    4 1   
     8    3    5 1   
     9    3   44 1   
    10    4    6 1   
    11    4   42 1   
    12    4   45 1   
    13    5   14 1   
    14    5   46 1   
    15    5   47 1   
    16    6   20 1   
    17    6   48 1   
    18    6   49 1   
    19    8    9 ar  
    20    8   13 ar  
    21    9   10 ar  
    22    9   52 1   
    23   10   11 ar  
    24   10   21 1   
    25   11   12 ar  
    26   11   54 1   
    27   12   13 ar  
    28   12   41 1   
    29   13   53 1   
    30   14   15 ar  
    31   14   19 ar  
    32   15   16 ar  
    33   15   56 1   
    34   16   17 ar  
    35   16   58 1   
    36   17   18 ar  
    37   17   59 1   
    38   18   19 ar  
    39   18   60 1   
    40   19   57 1   
    41   20   31 1   
    42   20   51 1   
    43   20   85 1   
    44   21   22 1   
    45   21   55 1   
    46   21   86 1   
    47   22   23 1   
    48   22   62 1   
    49   22   63 1   
    50   23   64 1   
    51   23   65 1   
    52   23   66 1   
    53   24   25 1   
    54   24   29 2   
    55   24   30 2   
    56   24   41 1   
    57   25   26 1   
    58   25   83 1   
    59   25   87 1   
    60   26   27 1   
    61   26   67 1   
    62   26   68 1   
    63   27   28 1   
    64   27   69 1   
    65   27   70 1   
    66   28   41 1   
    67   28   71 1   
    68   28   72 1   
    69   31   32 1   
    70   31   36 1   
    71   31   61 1   
    72   32   33 1   
    73   32   73 1   
    74   32   74 1   
    75   33   34 1   
    76   33   75 1   
    77   33   76 1   
    78   34   35 1   
    79   34   77 1   
    80   34   78 1   
    81   35   36 ar  
    82   35   37 ar  
    83   36   40 ar  
    84   37   38 ar  
    85   37   79 1   
    86   38   39 ar  
    87   38   81 1   
    88   39   40 ar  
    89   39   82 1   
    90   40   80 1   
    91   42   50 1   
@<TRIPOS>SUBSTRUCTURE
     1 C44         1 TEMP              0 ****  ****    0 ROOT
