@<TRIPOS>MOLECULE
C44
   86    90     1     0     0
SMALL
bcc


@<TRIPOS>ATOM
      1 C1         -1.3080   -0.3320   -0.7030 c         1 C44      0.577700
      2 N2         -0.0020   -0.5600    0.0510 n4        1 C44     -0.683800
      3 C3          0.2360    0.3790    1.1970 c3        1 C44      0.112500
      4 C4          0.4550    1.8320    0.6940 c3        1 C44      0.102100
      5 C5          1.4180   -0.1070    2.0540 c3        1 C44     -0.051100
      6 C6          0.6740    2.7610    1.9060 c3        1 C44      0.092800
      7 O7         -2.1140    0.3960   -0.1360 o         1 C44     -0.461100
      8 C8         -1.3990   -0.9600   -2.0170 ca        1 C44     -0.151600
      9 C9         -0.5940   -2.0470   -2.3930 ca        1 C44     -0.229000
     10 C10        -0.7230   -2.5960   -3.6870 ca        1 C44      0.230600
     11 C11        -1.6430   -1.9890   -4.5970 ca        1 C44     -0.140000
     12 C12        -2.4350   -0.8980   -4.2170 ca        1 C44      0.199600
     13 C13        -2.3310   -0.4000   -2.8930 ca        1 C44     -0.118000
     14 C14         1.4080   -1.5770    2.2840 ca        1 C44     -0.179300
     15 C15         0.2980   -2.1950    2.8790 ca        1 C44     -0.132500
     16 C16         0.3200   -3.5600    3.1540 ca        1 C44     -0.111500
     17 C17         1.4510   -4.3180    2.8440 ca        1 C44     -0.090000
     18 C18         2.5590   -3.7070    2.2560 ca        1 C44     -0.111500
     19 C19         2.5390   -2.3410    1.9750 ca        1 C44     -0.132500
     20 N20         0.9690    4.1600    1.4990 n4        1 C44     -0.766000
     21 N32        -0.0520   -3.7330   -4.0870 nh        1 C44     -0.742600
     22 C33         1.0200   -4.3300   -3.3370 c3        1 C44      0.197800
     23 C34         2.3420   -3.5790   -3.3490 c3        1 C44     -0.129100
     24 S41        -2.7480    0.2930   -6.5990 s6        1 C44      1.447900
     25 C42        -4.1150    0.1800   -7.6040 c3        1 C44     -0.322600
     26 C43        -5.4170    0.6260   -6.9790 c3        1 C44     -0.054400
     27 C44        -5.7200   -0.1650   -5.7260 c3        1 C44     -0.108400
     28 C45        -4.6380    0.0260   -4.6630 c3        1 C44      0.212800
     29 O52        -2.3610    1.6310   -6.4410 o         1 C44     -0.644300
     30 O53        -1.7530   -0.5850   -7.0680 o         1 C44     -0.644300
     31 C54         1.2510    5.1010    2.6690 c3        1 C44      0.206800
     32 C56        -0.0550    5.4460    3.3940 c3        1 C44     -0.100400
     33 C57         0.2490    6.1310    4.7080 c3        1 C44     -0.076400
     34 C58         1.0090    5.1950    5.6220 c3        1 C44     -0.057100
     35 C59         2.2120    4.6280    4.9570 ca        1 C44     -0.023300
     36 C60         2.3330    4.5710    3.5600 ca        1 C44     -0.180300
     37 C67         3.2710    4.1710    5.7580 ca        1 C44     -0.119000
     38 C68         4.4410    3.6880    5.1830 ca        1 C44     -0.076000
     39 C69         4.5770    3.6700    3.7910 ca        1 C44     -0.117000
     40 C70         3.5340    4.1160    2.9870 ca        1 C44     -0.139000
     41 N75        -3.3040   -0.2810   -5.1350 nh        1 C44     -0.678900
     42 O82         1.6220    1.9060   -0.1050 oh        1 C44     -0.602800
     43 H2          0.7810   -0.4970   -0.6090 hn        1 C44      0.474300
     44 H3         -0.7100    0.3690    1.8220 hx        1 C44      0.127700
     45 H4         -0.4600    2.1620    0.1210 h1        1 C44      0.083700
     46 H5C1        1.3450    0.4090    3.0510 hc        1 C44      0.089200
     47 H5C2        2.3810    0.2110    1.5670 hc        1 C44      0.089200
     48 H6C1        1.5600    2.4060    2.5140 hx        1 C44      0.130700
     49 H6C2       -0.2490    2.7490    2.5530 hx        1 C44      0.130700
     50 H82         1.3590    1.9340   -1.0360 ho        1 C44      0.440000
     51 H20         1.7980    4.1410    0.8880 hn        1 C44      0.453300
     52 H9          0.1080   -2.5100   -1.6870 ha        1 C44      0.128000
     53 H13        -2.9740    0.4320   -2.5610 ha        1 C44      0.165000
     54 H11        -1.7090   -2.3800   -5.6320 ha        1 C44      0.196000
     55 H32        -0.0570   -3.9230   -5.0680 hn        1 C44      0.450800
     56 H15        -0.5800   -1.5960    3.1640 ha        1 C44      0.136500
     57 H19         3.4280   -1.8630    1.5330 ha        1 C44      0.136500
     58 H16        -0.5500   -4.0390    3.6330 ha        1 C44      0.163500
     59 H17         1.4720   -5.3960    3.0750 ha        1 C44      0.168000
     60 H18         3.4590   -4.3010    2.0240 ha        1 C44      0.163500
     61 H54         1.6430    6.0460    2.1710 hx        1 C44      0.115700
     62 H331        1.1830   -5.3580   -3.7770 h1        1 C44      0.065700
     63 H332        0.6800   -4.4730   -2.2710 h1        1 C44      0.065700
     64 H341        2.2390   -2.5710   -2.8820 hc        1 C44      0.047700
     65 H342        3.0970   -4.1670   -2.7720 hc        1 C44      0.047700
     66 H343        2.7230   -3.4470   -4.3910 hc        1 C44      0.047700
     67 H431       -5.3650    1.7220   -6.7400 hc        1 C44      0.074200
     68 H432       -6.2530    0.4900   -7.7160 hc        1 C44      0.074200
     69 H441       -6.6930    0.1820   -5.2880 hc        1 C44      0.074700
     70 H442       -5.8320   -1.2530   -5.9750 hc        1 C44      0.074700
     71 H451       -4.8920   -0.6290   -3.7810 h1        1 C44      0.054200
     72 H452       -4.6600    1.0990   -4.3090 h1        1 C44      0.054200
     73 H561       -0.6580    4.5230    3.6030 hc        1 C44      0.062700
     74 H562       -0.6720    6.1240    2.7470 hc        1 C44      0.062700
     75 H571        0.8450    7.0650    4.5280 hc        1 C44      0.081700
     76 H572       -0.7160    6.4380    5.1940 hc        1 C44      0.081700
     77 H581        0.3400    4.3540    5.9540 hc        1 C44      0.081200
     78 H582        1.3160    5.7540    6.5490 hc        1 C44      0.081200
     79 H67         3.1740    4.2160    6.8560 ha        1 C44      0.166000
     80 H70         3.6850    4.1390    1.8970 ha        1 C44      0.119000
     81 H68         5.2700    3.3400    5.8220 ha        1 C44      0.168000
     82 H69         5.5170    3.3220    3.3340 ha        1 C44      0.161000
     83 H421       -4.2470   -0.8680   -7.9930 h1        1 C44      0.139200
     84 H22        -0.0170   -1.5220    0.4350 hn        1 C44      0.474300
     85 H202        0.1780    4.5420    0.9710 hn        1 C44      0.453300
     86 H422       -3.9470    0.8060   -8.5280 h1        1 C44      0.139200
@<TRIPOS>BOND
     1    1    2 1   
     2    1    7 2   
     3    1    8 1   
     4    2    3 1   
     5    2   43 1   
     6    2   84 1   
     7    3    4 1   
     8    3    5 1   
     9    3   44 1   
    10    4    6 1   
    11    4   42 1   
    12    4   45 1   
    13    5   14 1   
    14    5   46 1   
    15    5   47 1   
    16    6   20 1   
    17    6   48 1   
    18    6   49 1   
    19    8    9 ar  
    20    8   13 ar  
    21    9   10 ar  
    22    9   52 1   
    23   10   11 ar  
    24   10   21 1   
    25   11   12 ar  
    26   11   54 1   
    27   12   13 ar  
    28   12   41 1   
    29   13   53 1   
    30   14   15 ar  
    31   14   19 ar  
    32   15   16 ar  
    33   15   56 1   
    34   16   17 ar  
    35   16   58 1   
    36   17   18 ar  
    37   17   59 1   
    38   18   19 ar  
    39   18   60 1   
    40   19   57 1   
    41   20   31 1   
    42   20   51 1   
    43   20   85 1   
    44   21   22 1   
    45   21   55 1   
    46   22   23 1   
    47   22   62 1   
    48   22   63 1   
    49   23   64 1   
    50   23   65 1   
    51   23   66 1   
    52   24   25 1   
    53   24   29 2   
    54   24   30 2   
    55   24   41 1   
    56   25   26 1   
    57   25   83 1   
    58   25   86 1   
    59   26   27 1   
    60   26   67 1   
    61   26   68 1   
    62   27   28 1   
    63   27   69 1   
    64   27   70 1   
    65   28   41 1   
    66   28   71 1   
    67   28   72 1   
    68   31   32 1   
    69   31   36 1   
    70   31   61 1   
    71   32   33 1   
    72   32   73 1   
    73   32   74 1   
    74   33   34 1   
    75   33   75 1   
    76   33   76 1   
    77   34   35 1   
    78   34   77 1   
    79   34   78 1   
    80   35   36 ar  
    81   35   37 ar  
    82   36   40 ar  
    83   37   38 ar  
    84   37   79 1   
    85   38   39 ar  
    86   38   81 1   
    87   39   40 ar  
    88   39   82 1   
    89   40   80 1   
    90   42   50 1   
@<TRIPOS>SUBSTRUCTURE
     1 C44         1 TEMP              0 ****  ****    0 ROOT
