@<TRIPOS>MOLECULE
C44
   86    90     1     0     0
SMALL
bcc


@<TRIPOS>ATOM
      1 C1         -1.3190   -0.3570   -0.6830 c         1 C44      0.577700
      2 N2         -0.0080   -0.5810    0.0620 ny        1 C44     -0.683800
      3 C3          0.2370    0.3630    1.2030 c3        1 C44      0.112500
      4 C4          0.4460    1.8150    0.6930 c3        1 C44      0.103100
      5 C5          1.4280   -0.1160    2.0500 c3        1 C44     -0.051100
      6 C6          0.6700    2.7500    1.9000 c3        1 C44      0.092800
      7 O7         -2.1290    0.3600   -0.1060 o         1 C44     -0.460100
      8 C8         -1.4120   -0.9760   -2.0020 ca        1 C44     -0.151600
      9 C9         -0.6070   -2.0600   -2.3850 ca        1 C44     -0.229000
     10 C10        -0.7370   -2.6000   -3.6840 ca        1 C44      0.230600
     11 C11        -1.6550   -1.9850   -4.5890 ca        1 C44     -0.140000
     12 C12        -2.4470   -0.8980   -4.2020 ca        1 C44      0.199600
     13 C13        -2.3440   -0.4100   -2.8730 ca        1 C44     -0.118000
     14 C14         1.4250   -1.5850    2.2860 ca        1 C44     -0.179300
     15 C15         0.3220   -2.2040    2.8920 ca        1 C44     -0.132500
     16 C16         0.3510   -3.5680    3.1720 ca        1 C44     -0.111500
     17 C17         1.4820   -4.3240    2.8540 ca        1 C44     -0.090000
     18 C18         2.5830   -3.7110    2.2560 ca        1 C44     -0.111500
     19 C19         2.5560   -2.3450    1.9710 ca        1 C44     -0.132500
     20 N20         0.9560    4.1480    1.4850 ny        1 C44     -0.766000
     21 N32        -0.0660   -3.7340   -4.0920 nu        1 C44     -0.743600
     22 C33         1.0040   -4.3380   -3.3450 c3        1 C44      0.197800
     23 C34         2.3280   -3.5890   -3.3490 c3        1 C44     -0.129100
     24 S41        -2.7560    0.3160   -6.5720 s6        1 C44      1.447900
     25 C42        -4.1210    0.2160   -7.5820 c3        1 C44     -0.322600
     26 C43        -5.4240    0.6530   -6.9540 c3        1 C44     -0.054400
     27 C44        -5.7300   -0.1530   -5.7110 c3        1 C44     -0.109400
     28 C45        -4.6520    0.0270   -4.6430 c3        1 C44      0.212800
     29 O52        -2.3680    1.6530   -6.3990 o         1 C44     -0.644300
     30 O53        -1.7600   -0.5580   -7.0480 o         1 C44     -0.644300
     31 C54         1.2440    5.0930    2.6510 c3        1 C44      0.206800
     32 C56        -0.0570    5.4350    3.3860 c3        1 C44     -0.100400
     33 C57         0.2550    6.1250    4.6960 c3        1 C44     -0.076400
     34 C58         1.0270    5.1940    5.6050 c3        1 C44     -0.057100
     35 C59         2.2280    4.6310    4.9310 ca        1 C44     -0.023300
     36 C60         2.3370    4.5720    3.5330 ca        1 C44     -0.180300
     37 C67         3.2960    4.1820    5.7230 ca        1 C44     -0.119000
     38 C68         4.4630    3.7040    5.1390 ca        1 C44     -0.076000
     39 C69         4.5870    3.6830    3.7460 ca        1 C44     -0.117000
     40 C70         3.5350    4.1210    2.9510 ca        1 C44     -0.139000
     41 N75        -3.3160   -0.2730   -5.1150 nh        1 C44     -0.678900
     42 O82         1.6070    1.8910   -0.1150 oh        1 C44     -0.602800
     43 H2          0.7700   -0.5190   -0.6040 hn        1 C44      0.474300
     44 H3         -0.7040    0.3520    1.8350 hx        1 C44      0.127700
     45 H4         -0.4750    2.1390    0.1260 h1        1 C44      0.083700
     46 H5C1        2.3850    0.2040    1.5550 hc        1 C44      0.089200
     47 H5C2        1.3620    0.4040    3.0460 hc        1 C44      0.089200
     48 H6C1       -0.2480    2.7360    2.5540 hx        1 C44      0.130700
     49 H6C2        1.5620    2.4000    2.5020 hx        1 C44      0.130700
     50 H82         1.3370    1.9130   -1.0440 ho        1 C44      0.440000
     51 H20         1.7800    4.1310    0.8680 hn        1 C44      0.453300
     52 H9          0.0940   -2.5290   -1.6820 ha        1 C44      0.128000
     53 H13        -2.9880    0.4190   -2.5350 ha        1 C44      0.165000
     54 H11        -1.7210   -2.3690   -5.6280 ha        1 C44      0.196000
     55 H32        -0.0710   -3.9180   -5.0740 hn        1 C44      0.450800
     56 H15        -0.5560   -1.6080    3.1820 ha        1 C44      0.136500
     57 H19         3.4400   -1.8660    1.5200 ha        1 C44      0.136500
     58 H16        -0.5130   -4.0490    3.6590 ha        1 C44      0.163500
     59 H17         1.5090   -5.4010    3.0900 ha        1 C44      0.168000
     60 H18         3.4830   -4.3030    2.0190 ha        1 C44      0.163500
     61 H54         1.6270    6.0390    2.1460 hx        1 C44      0.115700
     62 H331        0.6630   -4.4890   -2.2800 h1        1 C44      0.065700
     63 H332        1.1670   -5.3630   -3.7920 h1        1 C44      0.065700
     64 H341        3.0810   -4.1830   -2.7750 hc        1 C44      0.047700
     65 H342        2.7100   -3.4490   -4.3890 hc        1 C44      0.047700
     66 H343        2.2250   -2.5840   -2.8740 hc        1 C44      0.047700
     67 H431       -6.2580    0.5250   -7.6940 hc        1 C44      0.074200
     68 H432       -5.3740    1.7470   -6.7020 hc        1 C44      0.074200
     69 H441       -5.8400   -1.2380   -5.9730 hc        1 C44      0.074700
     70 H442       -6.7040    0.1890   -5.2710 hc        1 C44      0.074700
     71 H451       -4.6750    1.0960   -4.2760 h1        1 C44      0.053700
     72 H452       -4.9060   -0.6380   -3.7690 h1        1 C44      0.053700
     73 H561       -0.6820    6.1090    2.7430 hc        1 C44      0.062700
     74 H562       -0.6540    4.5100    3.6030 hc        1 C44      0.062700
     75 H571        0.8460    7.0610    4.5080 hc        1 C44      0.081700
     76 H572       -0.7060    6.4290    5.1890 hc        1 C44      0.081700
     77 H581        0.3660    4.3510    5.9450 hc        1 C44      0.081200
     78 H582        1.3390    5.7560    6.5280 hc        1 C44      0.081200
     79 H67         3.2080    4.2290    6.8220 ha        1 C44      0.166000
     80 H70         3.6760    4.1420    1.8600 ha        1 C44      0.119000
     81 H68         5.2990    3.3610    5.7720 ha        1 C44      0.168000
     82 H69         5.5250    3.3380    3.2820 ha        1 C44      0.161000
     83 H421       -4.2510   -0.8280   -7.9830 h1        1 C44      0.139200
     84 H22        -0.0180   -1.5410    0.4500 hn        1 C44      0.474300
     85 H202        0.1600    4.5250    0.9630 hn        1 C44      0.453300
     86 H422       -3.9500    0.8530   -8.4970 h1        1 C44      0.139200
@<TRIPOS>BOND
     1    1    2 1   
     2    1    7 2   
     3    1    8 1   
     4    2    3 1   
     5    2   43 1   
     6    2   84 1   
     7    3    4 1   
     8    3    5 1   
     9    3   44 1   
    10    4    6 1   
    11    4   42 1   
    12    4   45 1   
    13    5   14 1   
    14    5   46 1   
    15    5   47 1   
    16    6   20 1   
    17    6   48 1   
    18    6   49 1   
    19    8    9 ar  
    20    8   13 ar  
    21    9   10 ar  
    22    9   52 1   
    23   10   11 ar  
    24   10   21 1   
    25   11   12 ar  
    26   11   54 1   
    27   12   13 ar  
    28   12   41 1   
    29   13   53 1   
    30   14   15 ar  
    31   14   19 ar  
    32   15   16 ar  
    33   15   56 1   
    34   16   17 ar  
    35   16   58 1   
    36   17   18 ar  
    37   17   59 1   
    38   18   19 ar  
    39   18   60 1   
    40   19   57 1   
    41   20   31 1   
    42   20   51 1   
    43   20   85 1   
    44   21   22 1   
    45   21   55 1   
    46   22   23 1   
    47   22   62 1   
    48   22   63 1   
    49   23   64 1   
    50   23   65 1   
    51   23   66 1   
    52   24   25 1   
    53   24   29 2   
    54   24   30 2   
    55   24   41 1   
    56   25   26 1   
    57   25   83 1   
    58   25   86 1   
    59   26   27 1   
    60   26   67 1   
    61   26   68 1   
    62   27   28 1   
    63   27   69 1   
    64   27   70 1   
    65   28   41 1   
    66   28   71 1   
    67   28   72 1   
    68   31   32 1   
    69   31   36 1   
    70   31   61 1   
    71   32   33 1   
    72   32   73 1   
    73   32   74 1   
    74   33   34 1   
    75   33   75 1   
    76   33   76 1   
    77   34   35 1   
    78   34   77 1   
    79   34   78 1   
    80   35   36 ar  
    81   35   37 ar  
    82   36   40 ar  
    83   37   38 ar  
    84   37   79 1   
    85   38   39 ar  
    86   38   81 1   
    87   39   40 ar  
    88   39   82 1   
    89   40   80 1   
    90   42   50 1   
@<TRIPOS>SUBSTRUCTURE
     1 C44         1 TEMP              0 ****  ****    0 ROOT
