@<TRIPOS>MOLECULE
C44
   84    88     1     0     0
SMALL
bcc


@<TRIPOS>ATOM
      1 C1         30.1480    1.2770   34.5000 c         1 C44      0.672700
      2 N2         28.9120    1.4450   33.9010 n         1 C44     -0.554900
      3 C3         28.6760    2.4620   32.9060 c3        1 C44      0.076700
      4 C4         27.8450    3.6600   33.4480 c3        1 C44      0.114100
      5 C5         27.9410    1.9080   31.6680 c3        1 C44     -0.058100
      6 C6         28.5100    4.2760   34.6920 c3        1 C44      0.122800
      7 O7         31.0380    2.1460   34.4070 o         1 C44     -0.602100
      8 C8         30.3430    0.0350   35.3090 ca        1 C44     -0.092600
      9 C9         29.9390   -1.2040   34.8150 ca        1 C44     -0.173000
     10 C10        30.1570   -2.3700   35.5790 ca        1 C44      0.158600
     11 C11        30.7820   -2.2500   36.8430 ca        1 C44     -0.187000
     12 C12        31.1860   -0.9960   37.3340 ca        1 C44      0.171600
     13 C13        30.9610    0.1570   36.5510 ca        1 C44     -0.139000
     14 C14        28.7010    0.8180   31.0020 ca        1 C44     -0.080300
     15 C15        29.6810    1.1190   30.0490 ca        1 C44     -0.129500
     16 C16        30.3920    0.0970   29.4220 ca        1 C44     -0.126000
     17 C17        30.1320   -1.2360   29.7420 ca        1 C44     -0.127000
     18 C18        29.1560   -1.5430   30.6900 ca        1 C44     -0.126000
     19 C19        28.4440   -0.5220   31.3170 ca        1 C44     -0.129500
     20 N20        27.8640    5.4890   35.1590 n3        1 C44     -0.813200
     21 N32        29.8630   -3.6550   35.0900 nh        1 C44     -0.719600
     22 C33        28.8390   -3.8280   34.0880 c3        1 C44      0.177800
     23 C34        27.4130   -3.5000   34.5030 c3        1 C44     -0.135100
     24 S41        31.2250   -1.5740   39.9640 s6        1 C44      1.455900
     25 C42        32.6670   -2.0950   40.7520 c3        1 C44     -0.308600
     26 C43        33.7560   -1.0520   40.8120 c3        1 C44     -0.052400
     27 C44        34.1450   -0.5890   39.4250 c3        1 C44     -0.110400
     28 C45        32.9520    0.0060   38.6740 c3        1 C44      0.211800
     29 O52        30.6000   -0.6210   40.7840 o         1 C44     -0.649800
     30 O53        30.4690   -2.7280   39.6750 o         1 C44     -0.649800
     31 C54        28.7640    6.5320   35.6370 c3        1 C44      0.222800
     32 C56        29.5740    6.0460   36.8500 c3        1 C44     -0.073400
     33 C57        30.5160    7.1290   37.3220 c3        1 C44     -0.077400
     34 C58        31.5570    7.4130   36.2620 c3        1 C44     -0.038100
     35 C59        30.9560    7.6120   34.9140 ca        1 C44     -0.060300
     36 C60        29.6590    7.1780   34.5980 ca        1 C44     -0.105300
     37 C67        31.7350    8.2480   33.9370 ca        1 C44     -0.131000
     38 C68        31.2360    8.4650   32.6570 ca        1 C44     -0.128000
     39 C69        29.9410    8.0510   32.3450 ca        1 C44     -0.135000
     40 C70        29.1620    7.4180   33.3090 ca        1 C44     -0.144000
     41 N75        31.8150   -0.8860   38.5960 nh        1 C44     -0.685900
     42 O82        27.6980    4.6260   32.4190 oh        1 C44     -0.606800
     43 H2         28.2560    0.7020   33.9460 hn        1 C44      0.310500
     44 H3         29.6800    2.8700   32.5730 h1        1 C44      0.083700
     45 H4         26.7910    3.3370   33.6740 h1        1 C44      0.082700
     46 H5C1       26.9230    1.5420   31.9660 hc        1 C44      0.066700
     47 H5C2       27.7910    2.7670   30.9580 hc        1 C44      0.066700
     48 H6C1       28.4470    3.5340   35.5370 h1        1 C44      0.059200
     49 H6C2       29.6050    4.4320   34.4610 h1        1 C44      0.059200
     50 H82        28.5710    5.0070   32.2510 ho        1 C44      0.407000
     51 H20        27.2610    5.8610   34.4460 hn        1 C44      0.367800
     52 H9         29.4740   -1.2700   33.8180 ha        1 C44      0.144000
     53 H13        31.2720    1.1540   36.9010 ha        1 C44      0.158000
     54 H11        30.9360   -3.1560   37.4570 ha        1 C44      0.163000
     55 H32        29.7990   -4.3350   35.8230 hn        1 C44      0.399800
     56 H15        29.8900    2.1700   29.7950 ha        1 C44      0.129000
     57 H19        27.6700   -0.7710   32.0590 ha        1 C44      0.129000
     58 H16        31.1620    0.3430   28.6760 ha        1 C44      0.131500
     59 H17        30.6940   -2.0410   29.2490 ha        1 C44      0.134000
     60 H18        28.9470   -2.5930   30.9440 ha        1 C44      0.131500
     61 H54        28.0790    7.3620   36.0060 h1        1 C44      0.064700
     62 H331       29.1120   -3.2080   33.1860 h1        1 C44      0.055700
     63 H332       28.8850   -4.9120   33.7750 h1        1 C44      0.055700
     64 H341       27.0920   -4.1240   35.3710 hc        1 C44      0.043700
     65 H342       27.3210   -2.4240   34.7900 hc        1 C44      0.043700
     66 H343       26.7250   -3.7010   33.6480 hc        1 C44      0.043700
     67 H422       33.0750   -3.0200   40.2650 h1        1 C44      0.117200
     68 H431       33.4010   -0.1770   41.4210 hc        1 C44      0.059700
     69 H432       34.6570   -1.4730   41.3310 hc        1 C44      0.059700
     70 H441       34.9320    0.2060   39.5000 hc        1 C44      0.061700
     71 H442       34.5790   -1.4440   38.8440 hc        1 C44      0.061700
     72 H451       32.6300    0.9570   39.1930 h1        1 C44      0.064200
     73 H452       33.2950    0.2840   37.6370 h1        1 C44      0.064200
     74 H561       28.8660    5.7700   37.6750 hc        1 C44      0.054200
     75 H562       30.1610    5.1280   36.5840 hc        1 C44      0.054200
     76 H571       29.9410    8.0630   37.5530 hc        1 C44      0.044200
     77 H572       31.0230    6.8030   38.2670 hc        1 C44      0.044200
     78 H581       32.1480    8.3240   36.5500 hc        1 C44      0.051200
     79 H582       32.2790    6.5530   36.2050 hc        1 C44      0.051200
     80 H67        32.7530    8.5790   34.1910 ha        1 C44      0.130000
     81 H70        28.1360    7.1200   33.0390 ha        1 C44      0.134000
     82 H68        31.8560    8.9630   31.8980 ha        1 C44      0.131000
     83 H69        29.5320    8.2300   31.3400 ha        1 C44      0.130000
     84 H421       32.4120   -2.4010   41.8030 h1        1 C44      0.117200
@<TRIPOS>BOND
     1    1    2 1   
     2    1    7 2   
     3    1    8 1   
     4    2    3 1   
     5    2   43 1   
     6    3    4 1   
     7    3    5 1   
     8    3   44 1   
     9    4    6 1   
    10    4   42 1   
    11    4   45 1   
    12    5   14 1   
    13    5   46 1   
    14    5   47 1   
    15    6   20 1   
    16    6   48 1   
    17    6   49 1   
    18    8    9 ar  
    19    8   13 ar  
    20    9   10 ar  
    21    9   52 1   
    22   10   11 ar  
    23   10   21 1   
    24   11   12 ar  
    25   11   54 1   
    26   12   13 ar  
    27   12   41 1   
    28   13   53 1   
    29   14   15 ar  
    30   14   19 ar  
    31   15   16 ar  
    32   15   56 1   
    33   16   17 ar  
    34   16   58 1   
    35   17   18 ar  
    36   17   59 1   
    37   18   19 ar  
    38   18   60 1   
    39   19   57 1   
    40   20   31 1   
    41   20   51 1   
    42   21   22 1   
    43   21   55 1   
    44   22   23 1   
    45   22   62 1   
    46   22   63 1   
    47   23   64 1   
    48   23   65 1   
    49   23   66 1   
    50   24   25 1   
    51   24   29 2   
    52   24   30 2   
    53   24   41 1   
    54   25   26 1   
    55   25   67 1   
    56   25   84 1   
    57   26   27 1   
    58   26   68 1   
    59   26   69 1   
    60   27   28 1   
    61   27   70 1   
    62   27   71 1   
    63   28   41 1   
    64   28   72 1   
    65   28   73 1   
    66   31   32 1   
    67   31   36 1   
    68   31   61 1   
    69   32   33 1   
    70   32   74 1   
    71   32   75 1   
    72   33   34 1   
    73   33   76 1   
    74   33   77 1   
    75   34   35 1   
    76   34   78 1   
    77   34   79 1   
    78   35   36 ar  
    79   35   37 ar  
    80   36   40 ar  
    81   37   38 ar  
    82   37   80 1   
    83   38   39 ar  
    84   38   82 1   
    85   39   40 ar  
    86   39   83 1   
    87   40   81 1   
    88   42   50 1   
@<TRIPOS>SUBSTRUCTURE
     1 C44         1 TEMP              0 ****  ****    0 ROOT
