@<TRIPOS>MOLECULE
C44
   84    79     1     0     0
SMALL
bcc


@<TRIPOS>ATOM
      1 C1         -1.4210   -0.1790   -0.7460 c1        1 C44      0.345000
      2 N2         -0.0140    0.2320   -0.7840 n2        1 C44     -0.371000
      3 C3          0.7170    0.3990    0.4420 c3        1 C44      0.032000
      4 C4          0.9340    1.8450    0.6940 c3        1 C44      0.022000
      5 C5          2.0680   -0.3130    0.3260 c3        1 C44     -0.143000
      6 C6          1.2360    2.0690    2.1930 c3        1 C44     -0.109000
      7 O7         -2.0890    0.0930    0.1890 o         1 C44     -0.377000
      8 C8         -2.0570   -0.8250   -1.9660 c2        1 C44     -0.065000
      9 C9         -1.6370   -0.4650   -3.2360 c2        1 C44     -0.182000
     10 C10        -2.1510   -1.1100   -4.3410 c1        1 C44      0.090000
     11 C11        -3.1090   -2.1420   -4.1780 c1        1 C44     -0.186000
     12 C12        -3.5240   -2.4980   -2.9230 c1        1 C44      0.104000
     13 C13        -3.0030   -1.8450   -1.8050 c1        1 C44     -0.157000
     14 C14         2.2970   -1.2220    1.5930 c2        1 C44     -0.079000
     15 C15         2.4870   -0.6390    2.8250 c2        1 C44     -0.133000
     16 C16         2.8390   -1.4130    3.9070 c1        1 C44     -0.134000
     17 C17         3.0000   -2.7620    3.7620 c1        1 C44     -0.131000
     18 C18         2.8100   -3.3520    2.5280 c1        1 C44     -0.131000
     19 C19         2.4590   -2.5810    1.4450 c1        1 C44     -0.129000
     20 N20         2.4200    2.9430    2.3360 n3        1 C44     -0.306000
     21 N32        -1.5820   -0.8160   -5.7170 n3        1 C44     -0.287000
     22 C33        -2.4200   -0.2650   -6.7350 c3        1 C44     -0.058000
     23 C34        -1.5550    0.2270   -7.8840 c3        1 C44     -0.225000
     24 S41        -6.0850   -3.1870   -2.8520 ss        1 C44      2.801000
     25 C42        -6.9790   -4.3540   -1.9760 c2        1 C44     -0.853000
     26 C43        -6.5740   -5.7370   -2.4240 c3        1 C44     -0.130000
     27 C44        -5.0540   -5.9810   -2.3730 c3        1 C44     -0.197000
     28 C45        -4.2090   -4.8970   -3.1340 c3        1 C44     -0.036000
     29 O52        -6.3420   -1.8830   -2.3010 o         1 C44     -0.925500
     30 O53        -6.4920   -3.2090   -4.2640 o         1 C44     -0.925500
     31 C54         2.5440    3.3610    3.7380 c3        1 C44      0.023000
     32 C56         3.1240    2.2930    4.4650 c3        1 C44     -0.193000
     33 C57         4.5920    2.2160    4.4780 c3        1 C44     -0.153000
     34 C58         5.3150    3.4240    4.8780 c3        1 C44     -0.123000
     35 C59         4.6590    4.8320    4.4490 c2        1 C44     -0.057000
     36 C60         3.3510    4.8020    3.7770 c2        1 C44     -0.075000
     37 C67         5.2690    6.0740    4.7530 c1        1 C44     -0.138000
     38 C68         4.6140    7.2930    4.4070 c1        1 C44     -0.131000
     39 C69         3.3250    7.2650    3.7440 c1        1 C44     -0.131000
     40 C70         2.7060    6.0180    3.4360 c1        1 C44     -0.105000
     41 N75        -4.5200   -3.5470   -2.7570 n2        1 C44     -0.769000
     42 O82         2.0100    2.2920   -0.0670 oh        1 C44     -0.339000
     43 H2          0.3920    0.4420   -1.6050 hn        1 C44      0.236000
     44 H3          0.2060    0.0130    1.1850 h1        1 C44      0.132000
     45 H4          0.0970    2.3610    0.4350 h1        1 C44      0.093000
     46 H5C1        2.7970    0.3660    0.2680 hc        1 C44      0.104500
     47 H5C2        2.0750   -0.8810   -0.4980 hc        1 C44      0.104500
     48 H6C1        0.4670    2.4950    2.6180 h1        1 C44      0.088000
     49 H6C2        1.4160    1.1870    2.6350 h1        1 C44      0.088000
     50 H82         1.7110    2.8720   -0.7070 ho        1 C44      0.211000
     51 H20         3.1580    2.4910    2.0910 hn        1 C44      0.157000
     52 H9         -0.9850    0.2380   -3.3470 ha        1 C44      0.140000
     53 H13        -3.2970   -2.0950   -0.9180 ha        1 C44      0.155000
     54 H11        -3.4680   -2.5920   -4.9480 ha        1 C44      0.154000
     55 H32        -0.6710   -0.9270   -5.8770 hn        1 C44      0.194000
     56 H15         2.3720    0.3300    2.9320 ha        1 C44      0.129000
     57 H19         2.3230   -3.0060    0.5550 ha        1 C44      0.161000
     58 H16         2.9770   -0.9850    4.8080 ha        1 C44      0.129000
     59 H17         3.2560   -3.3220    4.5530 ha        1 C44      0.131250
     60 H18         2.9270   -4.3300    2.4220 ha        1 C44      0.131250
     61 H54         1.6020    3.5180    4.1060 h1        1 C44      0.103000
     62 H331       -2.9290    0.4770   -6.3710 h1        1 C44      0.090000
     63 H332       -3.0190   -0.9390   -7.0520 h1        1 C44      0.090000
     64 H341       -2.0510    0.8540   -8.4120 hc        1 C44      0.083667
     65 H342       -0.7460    0.6640   -7.5230 hc        1 C44      0.083667
     66 H343       -1.2910   -0.5370   -8.4460 hc        1 C44      0.083667
     67 H421       -6.9420   -4.2830   -1.0330 ha        1 C44      0.157000
     68 H422       -7.9560   -4.1880   -2.1380 ha        1 C44      0.157000
     69 H431       -7.0130   -6.3900   -1.8520 hc        1 C44      0.099000
     70 H432       -6.8780   -5.8680   -3.3350 hc        1 C44      0.099000
     71 H441       -4.7660   -5.9910   -1.4090 hc        1 C44      0.102000
     72 H442       -4.8680   -6.8440   -2.7600 hc        1 C44      0.102000
     73 H451       -4.3690   -4.9980   -4.1160 h1        1 C44      0.110000
     74 H452       -3.2570   -5.0600   -2.9530 h1        1 C44      0.110000
     75 H561        2.8090    2.3600    5.4140 hc        1 C44      0.091000
     76 H562        2.7830    1.4530    4.0910 hc        1 C44      0.091000
     77 H571        4.8850    1.9840    3.5560 hc        1 C44      0.081000
     78 H572        4.8460    1.4950    5.1180 hc        1 C44      0.081000
     79 H581        6.1990    3.3800    4.4710 hc        1 C44      0.091000
     80 H582        5.3820    3.4170    5.8400 hc        1 C44      0.091000
     81 H67         6.1330    6.0960    5.1990 ha        1 C44      0.130000
     82 H70         1.8220    6.0010    2.9820 ha        1 C44      0.139000
     83 H68         5.0450    8.1680    4.6210 ha        1 C44      0.131250
     84 H69         2.8700    8.1190    3.5020 ha        1 C44      0.131250
@<TRIPOS>BOND
     1    1    7 1   
     2    1    8 1   
     3    2    3 1   
     4    2   43 1   
     5    3    4 1   
     6    3    5 1   
     7    3   44 1   
     8    4    6 1   
     9    4   42 1   
    10    4   45 1   
    11    5   14 1   
    12    5   46 1   
    13    5   47 1   
    14    6   20 1   
    15    6   48 1   
    16    6   49 1   
    17    8    9 1   
    18    8   13 1   
    19    9   10 1   
    20    9   52 1   
    21   10   21 1   
    22   11   12 1   
    23   11   54 1   
    24   12   41 1   
    25   13   53 1   
    26   14   15 1   
    27   14   19 1   
    28   15   16 1   
    29   15   56 1   
    30   16   58 1   
    31   17   18 1   
    32   17   59 1   
    33   18   60 1   
    34   19   57 1   
    35   20   31 1   
    36   20   51 1   
    37   21   22 1   
    38   21   55 1   
    39   22   23 1   
    40   22   62 1   
    41   22   63 1   
    42   23   64 1   
    43   23   65 1   
    44   23   66 1   
    45   24   29 1   
    46   24   30 1   
    47   25   26 1   
    48   25   67 1   
    49   25   68 1   
    50   26   27 1   
    51   26   69 1   
    52   26   70 1   
    53   27   28 1   
    54   27   71 1   
    55   27   72 1   
    56   28   41 1   
    57   28   73 1   
    58   28   74 1   
    59   31   32 1   
    60   31   36 1   
    61   31   61 1   
    62   32   33 1   
    63   32   75 1   
    64   32   76 1   
    65   33   34 1   
    66   33   77 1   
    67   33   78 1   
    68   34   35 1   
    69   34   79 1   
    70   34   80 1   
    71   35   36 1   
    72   35   37 1   
    73   36   40 1   
    74   37   81 1   
    75   38   39 1   
    76   38   83 1   
    77   39   84 1   
    78   40   82 1   
    79   42   50 1   
@<TRIPOS>SUBSTRUCTURE
     1 C44         1 TEMP              0 ****  ****    0 ROOT
