@<TRIPOS>MOLECULE
C45
   36    36     1     0     0
SMALL
bcc


@<TRIPOS>ATOM
      1 N1          0.4300    1.0720   -0.1300 n         1 C45     -0.255000
      2 C2          1.8680    1.3610   -0.0450 c2        1 C45      0.333000
      3 N3          2.5220    1.4770    1.2690 n2        1 C45     -0.292000
      4 C4          1.7650    1.3060    2.4580 c1        1 C45      0.125000
      5 C5          0.3260    1.0020    2.3760 c1        1 C45     -0.366000
      6 C6         -0.3410    0.9490    1.0590 c2        1 C45      0.095000
      7 O2          2.5170    1.5090   -1.0600 o         1 C45     -0.404000
      8 N4          2.3870    1.4910    3.7370 n3        1 C45     -0.115000
      9 C1'        -0.2140    1.0530   -1.3960 c3        1 C45      0.145000
     10 C2'         0.3300    0.1560   -2.1680 c3        1 C45     -0.199000
     11 CM2         4.0390    2.2280    5.1600 c3        1 C45     -0.063000
     12 C3'        -0.8630   -0.4360   -3.0800 c3        1 C45      0.011000
     13 C4'        -1.9550   -0.4920   -2.2850 c3        1 C45     -0.050000
     14 O4'        -1.7450    0.5960   -1.2370 os        1 C45     -0.296000
     15 O3'        -1.1100    0.4350   -4.1950 oh        1 C45     -0.388000
     16 C5'        -2.0540   -1.8670   -1.6120 c3        1 C45      0.059000
     17 O5'        -2.9660   -2.7040   -2.3570 os        1 C45     -0.740000
     18 P          -3.6050   -3.9990   -1.6220 p5        1 C45      1.558500
     19 O1P        -4.6920   -3.5520   -0.6660 o         1 C45     -0.923500
     20 O2P        -2.5280   -4.7270   -0.8560 o         1 C45     -0.923500
     21 O           3.7110    1.8900    3.8110 os        1 C45     -0.222000
     22 O3P        -4.1990   -4.9280   -2.6620 o         1 C45     -0.923500
     23 H5         -0.1850    0.8300    3.1900 ha        1 C45      0.171000
     24 H6         -1.3190    0.9130    1.0070 h4        1 C45      0.280000
     25 H4          1.9230    1.2850    4.5110 hn        1 C45      0.191000
     26 H1'        -0.1650    1.9320   -1.8140 h2        1 C45      0.126000
     27 H2'1        1.0120    0.5690   -2.7330 hc        1 C45      0.090500
     28 H2'2        0.7270   -0.5580   -1.6280 hc        1 C45      0.090500
     29 HM21        4.5150    1.4720    5.5830 h1        1 C45      0.079000
     30 HM22        3.2190    2.4150    5.6570 h1        1 C45      0.079000
     31 HM23        4.6140    3.0240    5.1680 h1        1 C45      0.079000
     32 H3'        -0.6320   -1.3310   -3.3970 h1        1 C45      0.188000
     33 H4'        -2.7640   -0.3100   -2.8060 h1        1 C45      0.076000
     34 HA         -1.0160   -0.0190   -4.9520 ho        1 C45      0.282000
     35 H5'1       -1.1660   -2.2860   -1.5930 h1        1 C45      0.052500
     36 H5'2       -2.3850   -1.7580   -0.6930 h1        1 C45      0.052500
@<TRIPOS>BOND
     1    1    2 1   
     2    1    6 1   
     3    1    9 1   
     4    2    3 1   
     5    2    7 1   
     6    3    4 1   
     7    4    8 1   
     8    5    6 1   
     9    5   23 1   
    10    6   24 1   
    11    8   21 1   
    12    8   25 1   
    13    9   10 1   
    14    9   14 1   
    15    9   26 1   
    16   10   12 1   
    17   10   27 1   
    18   10   28 1   
    19   11   21 1   
    20   11   29 1   
    21   11   30 1   
    22   11   31 1   
    23   12   13 1   
    24   12   15 1   
    25   12   32 1   
    26   13   14 1   
    27   13   16 1   
    28   13   33 1   
    29   15   34 1   
    30   16   17 1   
    31   16   35 1   
    32   16   36 1   
    33   17   18 1   
    34   18   19 1   
    35   18   20 1   
    36   18   22 1   
@<TRIPOS>SUBSTRUCTURE
     1 C45         1 TEMP              0 ****  ****    0 ROOT
