@<TRIPOS>MOLECULE
C45
   36    37     1     0     0
SMALL
bcc


@<TRIPOS>ATOM
      1 N1         -1.1160    0.1290    1.8990 n         1 C45     -0.362000
      2 C2         -1.3900    0.4570    3.2680 c         1 C45      0.816900
      3 N3         -0.3420    0.5190    4.2100 nc        1 C45     -0.707100
      4 C4          0.9000    0.2400    3.8040 cd        1 C45      0.653500
      5 C5          1.2100   -0.1000    2.4350 cd        1 C45     -0.454600
      6 C6          0.1680   -0.1490    1.5300 cc        1 C45      0.101600
      7 O2         -2.5710    0.6980    3.6110 o         1 C45     -0.658500
      8 N4          2.0030    0.1540    4.7400 nh        1 C45     -0.520700
      9 C1'        -2.2200    0.0540    0.9160 c3        1 C45      0.291500
     10 C2'        -2.2720    1.2620   -0.0400 c3        1 C45     -0.130400
     11 CM2         1.2830    0.2500    6.9710 c3        1 C45      0.125700
     12 C3'        -1.6910    0.7410   -1.3640 c3        1 C45      0.153100
     13 C4'        -1.7570   -0.7950   -1.2500 c3        1 C45      0.049100
     14 O4'        -2.0820   -1.1210    0.1290 os        1 C45     -0.440600
     15 O3'        -2.4870    1.2130   -2.4240 oh        1 C45     -0.667800
     16 C5'        -0.4510   -1.5190   -1.6550 c3        1 C45      0.225400
     17 O5'        -0.4520   -1.8200   -2.9870 os        1 C45     -0.553200
     18 P           0.5960   -0.7860   -3.9320 p5        1 C45      1.329900
     19 O1P         0.5780   -1.4060   -5.2930 o         1 C45     -0.929167
     20 O2P        -0.1740    0.5060   -3.7440 o         1 C45     -0.929167
     21 O           1.8970    0.9100    5.8490 os        1 C45     -0.240100
     22 O3P         1.8680   -0.8530   -3.1330 o         1 C45     -0.929167
     23 H5          2.2300   -0.3290    2.1080 ha        1 C45      0.162000
     24 H6          0.3340   -0.4180    0.4580 h4        1 C45      0.227000
     25 H4          2.8370    0.4960    4.2610 hn        1 C45      0.394800
     26 H1'        -3.1680   -0.0670    1.5170 h2        1 C45      0.089700
     27 H2'1       -3.3380    1.5680   -0.1790 hc        1 C45      0.054200
     28 H2'2       -1.7010    2.1420    0.3350 hc        1 C45      0.054200
     29 HM21        1.3250    1.0390    7.7630 h1        1 C45      0.042033
     30 HM22        0.2280   -0.0310    6.7480 h1        1 C45      0.042033
     31 HM23        1.8750   -0.6470    7.2740 h1        1 C45      0.042033
     32 H3'        -0.6280    1.0840   -1.5080 h1        1 C45      0.099700
     33 H4'        -2.6100   -1.1960   -1.8600 h1        1 C45      0.074700
     34 HA         -1.9430    1.0760   -3.2360 ho        1 C45      0.500000
     35 H5'1        0.4420   -0.8770   -1.3940 h1        1 C45     -0.003800
     36 H5'2       -0.4070   -2.4700   -1.0450 h1        1 C45     -0.003800
@<TRIPOS>BOND
     1    1    2 1   
     2    1    6 1   
     3    1    9 1   
     4    2    3 1   
     5    2    7 2   
     6    3    4 2   
     7    4    5 1   
     8    4    8 1   
     9    5    6 2   
    10    5   23 1   
    11    6   24 1   
    12    8   21 1   
    13    8   25 1   
    14    9   10 1   
    15    9   14 1   
    16    9   26 1   
    17   10   12 1   
    18   10   27 1   
    19   10   28 1   
    20   11   21 1   
    21   11   29 1   
    22   11   30 1   
    23   11   31 1   
    24   12   13 1   
    25   12   15 1   
    26   12   32 1   
    27   13   14 1   
    28   13   16 1   
    29   13   33 1   
    30   15   34 1   
    31   16   17 1   
    32   16   35 1   
    33   16   36 1   
    34   17   18 1   
    35   18   19 1   
    36   18   20 1   
    37   18   22 1   
@<TRIPOS>SUBSTRUCTURE
     1 C45         1 TEMP              0 ****  ****    0 ROOT
