@<TRIPOS>MOLECULE
C46
   37    37     1     0     0
SMALL
bcc


@<TRIPOS>ATOM
      1 P           0.9870    4.2660   -0.3390 p3        1 C46      2.520000
      2 O1P         1.5210    3.8460    1.0200 os        1 C46     -1.220000
      3 O2P         0.6230    5.7200   -0.3040 o         1 C46     -1.251000
      4 O3P         2.0480    4.0390   -1.3910 o         1 C46     -1.251000
      5 O5'        -0.3160    3.3980   -0.6930 os        1 C46     -0.738000
      6 C5'        -0.1860    1.9990   -0.7890 c3        1 C46      0.074000
      7 C4'        -0.9430    1.4980   -2.0360 c3        1 C46     -0.044000
      8 O4'        -0.6110   -0.0650   -2.2990 os        1 C46     -0.283000
      9 C3'        -2.2050    1.5710   -1.8410 c3        1 C46      0.000000
     10 O3'        -2.9100    1.8270   -3.1280 oh        1 C46     -0.378000
     11 C2'        -2.6120    0.1610   -1.2680 c3        1 C46     -0.195000
     12 C1'        -1.3890   -0.7430   -1.4960 c3        1 C46      0.144000
     13 N1         -0.7190   -1.0040   -0.2490 n         1 C46     -0.250000
     14 C2         -1.5300   -1.0820    1.0500 c2        1 C46      0.330000
     15 O2         -2.6670   -0.6510    1.0840 o         1 C46     -0.428000
     16 N3         -0.9250   -1.6850    2.2670 n2        1 C46     -0.313000
     17 C4          0.3990   -2.2170    2.2050 c1        1 C46      0.109000
     18 N4          1.0490   -2.5840    3.3420 n2        1 C46     -0.096000
     19 C5          1.2830   -1.9050    0.9990 c2        1 C46     -0.279000
     20 C6          0.6620   -1.4190   -0.2540 c2        1 C46      0.106000
     21 CM5         2.5410   -2.5540    0.9690 c3        1 C46     -0.153000
     22 O4          2.3750   -3.3070    3.1700 os        1 C46     -0.253000
     23 C7          3.0880   -2.8280    2.5050 c3        1 C46     -0.011000
     24 H5'1       -0.5660    1.5790    0.0160 h1        1 C46      0.043500
     25 H5'2        0.7650    1.7610   -0.8640 h1        1 C46      0.043500
     26 H4'        -0.6890    2.0410   -2.8320 h1        1 C46      0.059000
     27 H3'        -2.4110    2.2810   -1.1870 h1        1 C46      0.179000
     28 HA         -3.5800    2.3440   -2.9900 ho        1 C46      0.270000
     29 H2'1       -2.8070    0.2300   -0.3090 hc        1 C46      0.089500
     30 H2'2       -3.3970   -0.1940   -1.7530 hc        1 C46      0.089500
     31 H1'        -1.6590   -1.5750   -1.9130 h2        1 C46      0.129000
     32 H4          0.5810   -2.6480    4.1490 hn        1 C46      0.175000
     33 H6          1.1500   -1.4970   -1.1080 h4        1 C46      0.310000
     34 HM51        2.6710   -3.3160    0.3890 hc        1 C46      0.154000
     35 HM52        3.1420   -1.9060    0.5310 hc        1 C46      0.154000
     36 H7C1        3.8930   -3.4000    2.4510 h1        1 C46      0.081500
     37 H7C2        3.3430   -1.9800    2.8930 h1        1 C46      0.081500
@<TRIPOS>BOND
     1    1    3 1   
     2    1    4 1   
     3    1    5 1   
     4    5    6 1   
     5    6    7 1   
     6    6   24 1   
     7    6   25 1   
     8    7    8 1   
     9    7    9 1   
    10    7   26 1   
    11    8   12 1   
    12    9   10 1   
    13    9   11 1   
    14    9   27 1   
    15   10   28 1   
    16   11   12 1   
    17   11   29 1   
    18   11   30 1   
    19   12   13 1   
    20   12   31 1   
    21   13   14 1   
    22   13   20 1   
    23   14   15 1   
    24   14   16 1   
    25   16   17 1   
    26   17   19 1   
    27   18   22 1   
    28   18   32 1   
    29   19   20 1   
    30   19   21 1   
    31   20   33 1   
    32   21   23 1   
    33   21   34 1   
    34   21   35 1   
    35   22   23 1   
    36   23   36 1   
    37   23   37 1   
@<TRIPOS>SUBSTRUCTURE
     1 C46         1 TEMP              0 ****  ****    0 ROOT
