@<TRIPOS>MOLECULE
C46
   37    39     1     0     0
SMALL
bcc


@<TRIPOS>ATOM
      1 P          -1.3940    0.8320   -2.0690 p5        1 C46      1.342900
      2 O1P        -2.5110    1.6460   -2.6310 o         1 C46     -0.924500
      3 O2P        -1.3530    0.6740   -0.5590 o         1 C46     -0.924500
      4 O3P        -0.9470   -0.4290   -2.7670 o         1 C46     -0.924500
      5 O5'         0.0400    1.7550   -2.3680 os        1 C46     -0.569200
      6 C5'         0.9070    1.9800   -1.3370 c3        1 C46      0.225400
      7 C4'         2.0660    0.9550   -1.2820 c3        1 C46      0.061100
      8 O4'         2.7510    1.1000   -0.0120 os        1 C46     -0.439600
      9 C3'         1.6370   -0.5230   -1.4010 c3        1 C46      0.111100
     10 O3'         1.9190   -1.0470   -2.6780 oh        1 C46     -0.649800
     11 C2'         2.4530   -1.2500   -0.3300 c3        1 C46     -0.121400
     12 C1'         2.7810   -0.1430    0.6950 c3        1 C46      0.292500
     13 N1          1.8540   -0.1200    1.8390 n         1 C46     -0.360000
     14 C2          2.3260   -0.4680    3.1520 c         1 C46      0.812900
     15 O2          3.5430   -0.7410    3.3030 o         1 C46     -0.689500
     16 N3          1.4380   -0.5320    4.2390 nc        1 C46     -0.723100
     17 C4          0.1570   -0.1740    4.0350 cd        1 C46      0.639500
     18 N4         -0.7420   -0.1760    5.1730 nh        1 C46     -0.486700
     19 C5         -0.3360    0.2220    2.7470 cd        1 C46     -0.382800
     20 C6          0.5360    0.1940    1.6670 cc        1 C46      0.086600
     21 CM5        -1.7510    0.6010    2.5570 c3        1 C46     -0.060200
     22 O4         -2.0270    0.1010    4.9290 os        1 C46     -0.250100
     23 C7         -2.5790   -0.1120    3.6020 c3        1 C46      0.103400
     24 H5'1        0.3730    1.9970   -0.3470 h1        1 C46     -0.002300
     25 H5'2        1.3930    2.9910   -1.4850 h1        1 C46     -0.002300
     26 H4'         2.8320    1.1980   -2.0650 h1        1 C46      0.042700
     27 H3'         0.5180   -0.6000   -1.2040 h1        1 C46      0.142700
     28 HA          1.0780   -0.9550   -3.1740 ho        1 C46      0.478000
     29 H2'1        1.8810   -2.0990    0.1090 hc        1 C46      0.051700
     30 H2'2        3.4060   -1.6460   -0.7570 hc        1 C46      0.051700
     31 H1'         3.8230   -0.2310    1.1180 h2        1 C46      0.092700
     32 H4         -0.6890   -1.0960    5.6160 hn        1 C46      0.357800
     33 H6          0.1200    0.4050    0.6240 h4        1 C46      0.306000
     34 HM51       -1.8640    1.7120    2.6830 hc        1 C46      0.112700
     35 HM52       -2.0790    0.3620    1.4970 hc        1 C46      0.112700
     36 H7C1       -3.6050    0.3260    3.7010 h1        1 C46      0.042700
     37 H7C2       -2.6440   -1.2120    3.4040 h1        1 C46      0.042700
@<TRIPOS>BOND
     1    1    2 1   
     2    1    3 1   
     3    1    4 1   
     4    1    5 1   
     5    5    6 1   
     6    6    7 1   
     7    6   24 1   
     8    6   25 1   
     9    7    8 1   
    10    7    9 1   
    11    7   26 1   
    12    8   12 1   
    13    9   10 1   
    14    9   11 1   
    15    9   27 1   
    16   10   28 1   
    17   11   12 1   
    18   11   29 1   
    19   11   30 1   
    20   12   13 1   
    21   12   31 1   
    22   13   14 1   
    23   13   20 1   
    24   14   15 2   
    25   14   16 1   
    26   16   17 2   
    27   17   18 1   
    28   17   19 1   
    29   18   22 1   
    30   18   32 1   
    31   19   20 2   
    32   19   21 1   
    33   20   33 1   
    34   21   23 1   
    35   21   34 1   
    36   21   35 1   
    37   22   23 1   
    38   23   36 1   
    39   23   37 1   
@<TRIPOS>SUBSTRUCTURE
     1 C46         1 TEMP              0 ****  ****    0 ROOT
