@<TRIPOS>MOLECULE
C47
   80    81     1     0     0
SMALL
bcc


@<TRIPOS>ATOM
      1 C1          0.6190   -1.1690   -0.6320 c3        1 C47      0.123700
      2 O2          1.8810   -1.1070    0.0440 os        1 C47     -0.413900
      3 C3          2.0570   -0.0910    0.9280 c         1 C47      0.638100
      4 O4          1.1440    0.7250    1.1010 o         1 C47     -0.578000
      5 C5          3.4130   -0.0970    1.5850 c3        1 C47     -0.117700
      6 C6          3.6450   -1.3710    2.3800 c3        1 C47     -0.028100
      7 C7          4.9680   -1.2770    3.0520 ca        1 C47     -0.109300
      8 C8          5.7840   -2.4040    3.1490 ca        1 C47     -0.100000
      9 C9          7.0460   -2.3200    3.7340 ca        1 C47     -0.120000
     10 C10         7.5040   -1.0930    4.2090 ca        1 C47     -0.107000
     11 C11         6.7070    0.0460    4.1220 ca        1 C47     -0.124000
     12 C12         5.4170   -0.0310    3.5610 ca        1 C47      0.033600
     13 N13         4.5770    1.1180    3.4720 n         1 C47     -0.357000
     14 C14         3.5020    1.1290    2.5010 c3        1 C47      0.098000
     15 C15         4.5940    2.1010    4.4540 c         1 C47      0.666100
     16 O16         5.3670    2.0690    5.4310 o         1 C47     -0.577100
     17 C17         3.6320    3.2900    4.3610 c3        1 C47     -0.161400
     18 C18         4.3440    4.5970    4.0120 c3        1 C47     -0.046000
     19 C19         5.1250    4.4310    2.7110 c3        1 C47     -0.103600
     20 C20         5.3100    5.0010    5.1160 c3        1 C47     -0.103600
     21 C21         3.3150    5.7130    3.7770 c3        1 C47     -0.114400
     22 C22         2.3670    5.9720    4.9550 c3        1 C47      0.090500
     23 N23         1.0910    5.1880    4.8080 n4        1 C47     -0.839600
     24 C24         2.0660    7.4920    5.0910 c3        1 C47      0.110100
     25 O25         1.1000    7.8790    4.1300 oh        1 C47     -0.610800
     26 C26         1.5030    7.8310    6.4720 c3        1 C47     -0.087400
     27 C27         1.2310    9.3250    6.6490 c3        1 C47     -0.128700
     28 C28         0.2470    9.5500    7.7800 c3        1 C47     -0.130100
     29 C29         2.5340   10.0720    6.8640 c         1 C47      0.534100
     30 O30         3.6510    9.6790    6.5620 o         1 C47     -0.414100
     31 N31         2.4270   11.4370    7.4970 n4        1 C47     -0.670800
     32 C32         3.6590   12.2860    7.3810 c3        1 C47      0.100800
     33 C33         3.7940   12.9650    6.0240 c3        1 C47     -0.102400
     34 C34         5.0000   13.8860    6.0240 c3        1 C47     -0.082400
     35 C35         6.3100   13.1420    6.0180 c3        1 C47     -0.106100
     36 H1C1        0.4660   -0.2410   -1.2320 h1        1 C47      0.062367
     37 H1C2       -0.2040   -1.2910    0.1120 h1        1 C47      0.062367
     38 H1C3        0.7230   -2.0720   -1.2850 h1        1 C47      0.062367
     39 H5          4.1900   -0.0280    0.7700 hc        1 C47      0.110700
     40 H6C1        3.6040   -2.2560    1.6890 hc        1 C47      0.076200
     41 H6C2        2.8350   -1.5040    3.1470 hc        1 C47      0.076200
     42 H141        3.6230    2.0440    1.8490 h1        1 C47      0.043700
     43 H142        2.5130    1.2060    3.0450 h1        1 C47      0.043700
     44 H8          5.4240   -3.3670    2.7550 ha        1 C47      0.148000
     45 H9          7.6780   -3.2180    3.8130 ha        1 C47      0.152000
     46 H10         8.5060   -1.0160    4.6600 ha        1 C47      0.148000
     47 H11         7.0970    0.9990    4.5130 ha        1 C47      0.154000
     48 H171        3.1800    3.3710    5.3880 hc        1 C47      0.043700
     49 H172        2.8100    3.1200    3.6200 hc        1 C47      0.043700
     50 H191        5.6340    5.3870    2.4390 hc        1 C47      0.059200
     51 H192        4.4470    4.1330    1.8760 hc        1 C47      0.059200
     52 H193        5.9070    3.6410    2.8360 hc        1 C47      0.059200
     53 H201        4.7950    5.0830    6.1020 hc        1 C47      0.059200
     54 H202        5.7930    5.9770    4.8720 hc        1 C47      0.059200
     55 H203        6.1110    4.2230    5.2210 hc        1 C47      0.059200
     56 H211        2.7350    5.4900    2.8400 hc        1 C47      0.080700
     57 H212        3.8920    6.6570    3.5780 hc        1 C47      0.080700
     58 H22         2.8600    5.6200    5.9130 hx        1 C47      0.129700
     59 H231        1.3060    4.2220    4.5270 hn        1 C47      0.467800
     60 H232        0.5050    5.6300    4.0850 hn        1 C47      0.467800
     61 H24         3.0400    8.0430    4.9440 h1        1 C47      0.101700
     62 H25         1.5630    8.0860    3.3050 ho        1 C47      0.445000
     63 H261        0.5270    7.2950    6.6210 hc        1 C47      0.081200
     64 H262        2.2250    7.4760    7.2530 hc        1 C47      0.081200
     65 H27         0.7870    9.7200    5.6830 hc        1 C47      0.131700
     66 H281        0.6970    9.2910    8.7690 hc        1 C47      0.074700
     67 H282       -0.6510    8.8960    7.6310 hc        1 C47      0.074700
     68 H283       -0.1250   10.6030    7.8010 hc        1 C47      0.074700
     69 H31         1.6370   11.9330    7.0640 hn        1 C47      0.466800
     70 H321        3.5950   13.0670    8.1950 hx        1 C47      0.122700
     71 H322        4.5580   11.6300    7.5740 hx        1 C47      0.122700
     72 H331        3.9140   12.1930    5.2180 hc        1 C47      0.061700
     73 H332        2.8760   13.5700    5.7970 hc        1 C47      0.061700
     74 H341        4.9550   14.5740    6.9100 hc        1 C47      0.073200
     75 H342        4.9380   14.5310    5.1040 hc        1 C47      0.073200
     76 H351        6.4510   12.5590    6.9600 hc        1 C47      0.049367
     77 H352        6.3670   12.4380    5.1520 hc        1 C47      0.049367
     78 H353        7.1560   13.8680    5.9320 hc        1 C47      0.049367
     79 H233        0.5760    5.1800    5.6910 hn        1 C47      0.467800
     80 H312        2.2110   11.2980    8.4930 hn        1 C47      0.466800
@<TRIPOS>BOND
     1    1    2 1   
     2    1   36 1   
     3    1   37 1   
     4    1   38 1   
     5    2    3 1   
     6    3    4 2   
     7    3    5 1   
     8    5    6 1   
     9    5   14 1   
    10    5   39 1   
    11    6    7 1   
    12    6   40 1   
    13    6   41 1   
    14    7    8 ar  
    15    7   12 ar  
    16    8    9 ar  
    17    8   44 1   
    18    9   10 ar  
    19    9   45 1   
    20   10   11 ar  
    21   10   46 1   
    22   11   12 ar  
    23   11   47 1   
    24   12   13 1   
    25   13   14 1   
    26   13   15 1   
    27   14   42 1   
    28   14   43 1   
    29   15   16 2   
    30   15   17 1   
    31   17   18 1   
    32   17   48 1   
    33   17   49 1   
    34   18   19 1   
    35   18   20 1   
    36   18   21 1   
    37   19   50 1   
    38   19   51 1   
    39   19   52 1   
    40   20   53 1   
    41   20   54 1   
    42   20   55 1   
    43   21   22 1   
    44   21   56 1   
    45   21   57 1   
    46   22   23 1   
    47   22   24 1   
    48   22   58 1   
    49   23   59 1   
    50   23   60 1   
    51   23   79 1   
    52   24   25 1   
    53   24   26 1   
    54   24   61 1   
    55   25   62 1   
    56   26   27 1   
    57   26   63 1   
    58   26   64 1   
    59   27   28 1   
    60   27   29 1   
    61   27   65 1   
    62   28   66 1   
    63   28   67 1   
    64   28   68 1   
    65   29   30 2   
    66   29   31 1   
    67   31   32 1   
    68   31   69 1   
    69   31   80 1   
    70   32   33 1   
    71   32   70 1   
    72   32   71 1   
    73   33   34 1   
    74   33   72 1   
    75   33   73 1   
    76   34   35 1   
    77   34   74 1   
    78   34   75 1   
    79   35   76 1   
    80   35   77 1   
    81   35   78 1   
@<TRIPOS>SUBSTRUCTURE
     1 C47         1 TEMP              0 ****  ****    0 ROOT
