@<TRIPOS>MOLECULE
C47
   78    77     1     0     0
SMALL
bcc


@<TRIPOS>ATOM
      1 C1         -5.5230   -6.0990   -0.6560 c3        1 C47     -0.065000
      2 O2         -4.1120   -6.1390   -0.9100 os        1 C47     -0.273000
      3 C3         -3.3280   -5.4560    0.0610 c2        1 C47      0.304000
      4 O4         -3.8370   -4.6190    0.7660 o         1 C47     -0.354000
      5 C5         -1.7410   -5.8350    0.2480 c3        1 C47     -0.123000
      6 C6         -1.5750   -6.8680    1.2720 c3        1 C47     -0.108000
      7 C7         -0.1380   -7.0080    1.9170 c2        1 C47     -0.112000
      8 C8          0.2170   -8.1150    2.6840 c1        1 C47     -0.112000
      9 C9          1.5730   -8.2660    3.1470 c1        1 C47     -0.128500
     10 C10         2.5570   -7.2790    2.8210 c1        1 C47     -0.128500
     11 C11         2.1970   -6.1420    2.0340 c1        1 C47     -0.128000
     12 C12         0.8780   -5.9910    1.5790 c2        1 C47      0.072000
     13 N13         0.4320   -4.7610    0.7730 n         1 C47     -0.289000
     14 C14        -0.9290   -4.5950    0.5340 c3        1 C47     -0.022000
     15 C15         1.3440   -3.6410    0.5880 c2        1 C47      0.312000
     16 O16         2.5220   -3.7840    0.7940 o         1 C47     -0.338000
     17 C17         0.7890   -2.2410    0.0740 c3        1 C47     -0.169000
     18 C18         1.9450   -1.4200   -0.5520 c3        1 C47     -0.034000
     19 C19         2.7280   -2.3130   -1.5630 c3        1 C47     -0.216500
     20 C20         2.9230   -0.9330    0.5800 c3        1 C47     -0.216500
     21 C21         1.3560   -0.1700   -1.3040 c3        1 C47     -0.195000
     22 C22         1.6490    1.1080   -0.4850 c3        1 C47     -0.061000
     23 N23         0.5760    1.3580    0.3890 n3        1 C47     -0.344000
     24 C24         1.8250    2.2790   -1.4190 c3        1 C47      0.032000
     25 O25         0.8680    2.2190   -2.4290 oh        1 C47     -0.333000
     26 C26         1.6630    3.6060   -0.6220 c3        1 C47     -0.177000
     27 C27         1.0130    4.6250   -1.4810 c3        1 C47     -0.127000
     28 C28        -0.4760    4.4110   -1.4710 c3        1 C47     -0.210000
     29 C29         1.3350    6.0630   -0.9340 c2        1 C47      0.303000
     30 O30         2.3070    6.2420   -0.2100 o         1 C47     -0.378000
     31 N31         0.4290    7.1580   -1.2130 n         1 C47     -0.378000
     32 C32         0.0660    8.0830   -0.1680 c3        1 C47     -0.030000
     33 C33        -1.2100    8.8430   -0.5820 c3        1 C47     -0.180000
     34 C34        -2.3560    8.4770    0.3610 c3        1 C47     -0.160000
     35 C35        -3.4540    9.5700    0.2800 c3        1 C47     -0.212000
     36 H1C1       -5.9820   -6.6340   -1.3150 h1        1 C47      0.093000
     37 H1C2       -5.8370   -5.1780   -0.7100 h1        1 C47      0.093000
     38 H1C3       -5.7070   -6.4570    0.2450 h1        1 C47      0.093000
     39 H5         -1.5310   -6.1850   -0.6280 hc        1 C47      0.135000
     40 H6C1       -2.2100   -6.6630    2.0070 hc        1 C47      0.105000
     41 H6C2       -1.7910   -7.7140    0.8630 hc        1 C47      0.105000
     42 H141       -1.0280   -3.9830   -0.2380 h1        1 C47      0.109000
     43 H142       -1.3150   -4.1620    1.3090 h1        1 C47      0.109000
     44 H8         -0.4490   -8.7840    2.9080 ha        1 C47      0.132000
     45 H9          1.8220   -9.0440    3.6870 ha        1 C47      0.134500
     46 H10         3.5000   -7.3860    3.1450 ha        1 C47      0.134500
     47 H11         2.8810   -5.4590    1.8080 ha        1 C47      0.158000
     48 H171        0.1060   -2.3900   -0.5880 hc        1 C47      0.104000
     49 H172        0.4140   -1.7510    0.8180 hc        1 C47      0.104000
     50 H191        3.3370   -1.7430   -2.1060 hc        1 C47      0.084500
     51 H192        2.0730   -2.7860   -2.1760 hc        1 C47      0.084500
     52 H193        3.2640   -2.9900   -1.0630 hc        1 C47      0.084500
     53 H201        2.4050   -0.4790    1.2940 hc        1 C47      0.084500
     54 H202        3.3850   -1.6870    0.9490 hc        1 C47      0.084500
     55 H203        3.5820   -0.2970    0.1960 hc        1 C47      0.084500
     56 H211        0.3850   -0.2760   -1.4050 hc        1 C47      0.095000
     57 H212        1.7680   -0.0950   -2.1840 hc        1 C47      0.095000
     58 H22         2.4870    0.9780    0.0460 h1        1 C47      0.112000
     59 H231        0.8740    1.3320    1.2480 hn        1 C47      0.143500
     60 H232       -0.0840    0.7000    0.2680 hn        1 C47      0.143500
     61 H24         2.7100    2.2450   -1.8120 h1        1 C47      0.126000
     62 H25         1.2810    2.1040   -3.2320 ho        1 C47      0.199000
     63 H261        1.1100    3.4450    0.1640 hc        1 C47      0.109000
     64 H262        2.5620    3.9350   -0.3370 hc        1 C47      0.109000
     65 H27         1.3480    4.5430   -2.3920 hc        1 C47      0.114000
     66 H281       -0.8270    4.6020   -0.5780 hc        1 C47      0.081333
     67 H282       -0.8870    4.9980   -2.1060 hc        1 C47      0.081333
     68 H283       -0.6790    3.4650   -1.7120 hc        1 C47      0.081333
     69 H31         0.1030    7.2700   -2.0430 hn        1 C47      0.219000
     70 H321       -0.0990    7.5940    0.6550 h1        1 C47      0.099000
     71 H322        0.8030    8.7280   -0.0270 h1        1 C47      0.099000
     72 H331       -1.0460    9.8020   -0.5350 hc        1 C47      0.084500
     73 H332       -1.4570    8.5910   -1.5260 hc        1 C47      0.084500
     74 H341       -2.7290    7.6250    0.1010 hc        1 C47      0.083000
     75 H342       -2.0080    8.4170    1.3060 hc        1 C47      0.083000
     76 H351       -3.0350   10.4580    0.3240 hc        1 C47      0.072667
     77 H352       -4.0700    9.4660    1.0230 hc        1 C47      0.072667
     78 H353       -3.9370    9.4800   -0.5570 hc        1 C47      0.072667
@<TRIPOS>BOND
     1    1    2 1   
     2    1   36 1   
     3    1   37 1   
     4    1   38 1   
     5    2    3 1   
     6    3    4 1   
     7    3    5 1   
     8    5    6 1   
     9    5   14 1   
    10    5   39 1   
    11    6    7 1   
    12    6   40 1   
    13    6   41 1   
    14    7    8 1   
    15    7   12 1   
    16    8   44 1   
    17    9   10 1   
    18    9   45 1   
    19   10   46 1   
    20   11   12 1   
    21   11   47 1   
    22   12   13 1   
    23   13   14 1   
    24   13   15 1   
    25   14   42 1   
    26   14   43 1   
    27   15   16 1   
    28   15   17 1   
    29   17   18 1   
    30   17   48 1   
    31   17   49 1   
    32   18   19 1   
    33   18   20 1   
    34   18   21 1   
    35   19   50 1   
    36   19   51 1   
    37   19   52 1   
    38   20   53 1   
    39   20   54 1   
    40   20   55 1   
    41   21   22 1   
    42   21   56 1   
    43   21   57 1   
    44   22   23 1   
    45   22   24 1   
    46   22   58 1   
    47   23   59 1   
    48   23   60 1   
    49   24   25 1   
    50   24   26 1   
    51   24   61 1   
    52   25   62 1   
    53   26   27 1   
    54   26   63 1   
    55   26   64 1   
    56   27   28 1   
    57   27   29 1   
    58   27   65 1   
    59   28   66 1   
    60   28   67 1   
    61   28   68 1   
    62   29   30 1   
    63   29   31 1   
    64   31   32 1   
    65   31   69 1   
    66   32   33 1   
    67   32   70 1   
    68   32   71 1   
    69   33   34 1   
    70   33   72 1   
    71   33   73 1   
    72   34   35 1   
    73   34   74 1   
    74   34   75 1   
    75   35   76 1   
    76   35   77 1   
    77   35   78 1   
@<TRIPOS>SUBSTRUCTURE
     1 C47         1 TEMP              0 ****  ****    0 ROOT
