@<TRIPOS>MOLECULE
C47
   80    81     1     0     0
SMALL
bcc


@<TRIPOS>ATOM
      1 C1          0.6060   -1.1970   -0.5840 c3        1 C47      0.123700
      2 O2          1.8700   -1.1310    0.0880 os        1 C47     -0.413900
      3 C3          2.0510   -0.1090    0.9630 c         1 C47      0.638100
      4 O4          1.1390    0.7100    1.1330 o         1 C47     -0.578000
      5 C5          3.4090   -0.1110    1.6150 c3        1 C47     -0.117700
      6 C6          3.6430   -1.3810    2.4190 c3        1 C47     -0.028100
      7 C7          4.9680   -1.2820    3.0850 ca        1 C47     -0.109300
      8 C8          5.7840   -2.4090    3.1870 ca        1 C47     -0.100000
      9 C9          7.0480   -2.3220    3.7670 ca        1 C47     -0.120000
     10 C10         7.5080   -1.0930    4.2330 ca        1 C47     -0.107000
     11 C11         6.7110    0.0460    4.1410 ca        1 C47     -0.124000
     12 C12         5.4190   -0.0340    3.5840 ca        1 C47      0.033600
     13 N13         4.5800    1.1150    3.4910 n         1 C47     -0.357000
     14 C14         3.5030    1.1210    2.5220 c3        1 C47      0.098000
     15 C15         4.5990    2.1040    4.4680 c         1 C47      0.666100
     16 O16         5.3750    2.0760    5.4430 o         1 C47     -0.577100
     17 C17         3.6380    3.2930    4.3700 c3        1 C47     -0.161400
     18 C18         4.3520    4.5980    4.0160 c3        1 C47     -0.046000
     19 C19         5.1380    4.4240    2.7190 c3        1 C47     -0.103600
     20 C20         5.3140    5.0080    5.1210 c3        1 C47     -0.103600
     21 C21         3.3230    5.7120    3.7700 c3        1 C47     -0.114400
     22 C22         2.3690    5.9770    4.9430 c3        1 C47      0.090500
     23 N23         1.0950    5.1920    4.7930 n4        1 C47     -0.839600
     24 C24         2.0680    7.4980    5.0710 c3        1 C47      0.110100
     25 O25         1.1070    7.8800    4.1020 oh        1 C47     -0.610800
     26 C26         1.4970    7.8430    6.4470 c3        1 C47     -0.087400
     27 C27         1.2260    9.3380    6.6150 c3        1 C47     -0.128700
     28 C28         0.2350    9.5690    7.7380 c3        1 C47     -0.130100
     29 C29         2.5280   10.0840    6.8350 c         1 C47      0.534100
     30 O30         3.6470    9.6890    6.5420 o         1 C47     -0.414100
     31 N31         2.4190   11.4520    7.4630 n4        1 C47     -0.670800
     32 C32         3.6540   12.2960    7.3580 c3        1 C47      0.100800
     33 C33         3.8080   12.9700    6.0000 c3        1 C47     -0.102400
     34 C34         5.0170   13.8880    6.0110 c3        1 C47     -0.082400
     35 C35         6.3240   13.1390    6.0230 c3        1 C47     -0.106100
     36 H1C1        0.7060   -2.1040   -1.2300 h1        1 C47      0.062367
     37 H1C2        0.4520   -0.2730   -1.1900 h1        1 C47      0.062367
     38 H1C3       -0.2150   -1.3120    0.1650 h1        1 C47      0.062367
     39 H5          4.1830   -0.0490    0.7970 hc        1 C47      0.110700
     40 H6C1        2.8350   -1.5070    3.1890 hc        1 C47      0.076200
     41 H6C2        3.5990   -2.2690    1.7340 hc        1 C47      0.076200
     42 H141        2.5150    1.2030    3.0690 h1        1 C47      0.043700
     43 H142        3.6230    2.0310    1.8640 h1        1 C47      0.043700
     44 H8          5.4220   -3.3750    2.7990 ha        1 C47      0.148000
     45 H9          7.6800   -3.2200    3.8490 ha        1 C47      0.152000
     46 H10         8.5110   -1.0140    4.6800 ha        1 C47      0.148000
     47 H11         7.1030    1.0010    4.5260 ha        1 C47      0.154000
     48 H171        3.1850    3.3780    5.3950 hc        1 C47      0.043700
     49 H172        2.8170    3.1210    3.6290 hc        1 C47      0.043700
     50 H191        4.4630    4.1180    1.8840 hc        1 C47      0.059200
     51 H192        5.6450    5.3800    2.4420 hc        1 C47      0.059200
     52 H193        5.9210    3.6370    2.8530 hc        1 C47      0.059200
     53 H201        4.7930    5.0990    6.1040 hc        1 C47      0.059200
     54 H202        6.1120    4.2300    5.2360 hc        1 C47      0.059200
     55 H203        5.8000    5.9810    4.8710 hc        1 C47      0.059200
     56 H211        3.9010    6.6560    3.5700 hc        1 C47      0.080700
     57 H212        2.7480    5.4850    2.8320 hc        1 C47      0.080700
     58 H22         2.8580    5.6300    5.9050 hx        1 C47      0.129700
     59 H231        0.5130    5.6290    4.0650 hn        1 C47      0.467800
     60 H232        1.3110    4.2250    4.5190 hn        1 C47      0.467800
     61 H24         3.0420    8.0480    4.9260 h1        1 C47      0.101700
     62 H25         1.5740    8.0830    3.2790 ho        1 C47      0.445000
     63 H261        0.5200    7.3090    6.5920 hc        1 C47      0.081200
     64 H262        2.2150    7.4910    7.2340 hc        1 C47      0.081200
     65 H27         0.7890    9.7290    5.6440 hc        1 C47      0.131700
     66 H281        0.6770    9.3130    8.7320 hc        1 C47      0.074700
     67 H282       -0.1360   10.6230    7.7530 hc        1 C47      0.074700
     68 H283       -0.6640    8.9160    7.5860 hc        1 C47      0.074700
     69 H31         2.1910   11.3170    8.4570 hn        1 C47      0.466800
     70 H321        3.5840   13.0800    8.1690 hx        1 C47      0.122700
     71 H322        4.5490   11.6380    7.5640 hx        1 C47      0.122700
     72 H331        3.9340   12.1950    5.1990 hc        1 C47      0.061700
     73 H332        2.8940   13.5770    5.7610 hc        1 C47      0.061700
     74 H341        4.9670   14.5290    5.0880 hc        1 C47      0.073200
     75 H342        4.9630   14.5790    6.8940 hc        1 C47      0.073200
     76 H351        6.3880   12.4320    5.1620 hc        1 C47      0.049367
     77 H352        6.4520   12.5600    6.9690 hc        1 C47      0.049367
     78 H353        7.1730   13.8630    5.9440 hc        1 C47      0.049367
     79 H233        0.5750    5.1890    5.6740 hn        1 C47      0.467800
     80 H312        1.6350   11.9490    7.0200 hn        1 C47      0.466800
@<TRIPOS>BOND
     1    1    2 1   
     2    1   36 1   
     3    1   37 1   
     4    1   38 1   
     5    2    3 1   
     6    3    4 2   
     7    3    5 1   
     8    5    6 1   
     9    5   14 1   
    10    5   39 1   
    11    6    7 1   
    12    6   40 1   
    13    6   41 1   
    14    7    8 ar  
    15    7   12 ar  
    16    8    9 ar  
    17    8   44 1   
    18    9   10 ar  
    19    9   45 1   
    20   10   11 ar  
    21   10   46 1   
    22   11   12 ar  
    23   11   47 1   
    24   12   13 1   
    25   13   14 1   
    26   13   15 1   
    27   14   42 1   
    28   14   43 1   
    29   15   16 2   
    30   15   17 1   
    31   17   18 1   
    32   17   48 1   
    33   17   49 1   
    34   18   19 1   
    35   18   20 1   
    36   18   21 1   
    37   19   50 1   
    38   19   51 1   
    39   19   52 1   
    40   20   53 1   
    41   20   54 1   
    42   20   55 1   
    43   21   22 1   
    44   21   56 1   
    45   21   57 1   
    46   22   23 1   
    47   22   24 1   
    48   22   58 1   
    49   23   59 1   
    50   23   60 1   
    51   23   79 1   
    52   24   25 1   
    53   24   26 1   
    54   24   61 1   
    55   25   62 1   
    56   26   27 1   
    57   26   63 1   
    58   26   64 1   
    59   27   28 1   
    60   27   29 1   
    61   27   65 1   
    62   28   66 1   
    63   28   67 1   
    64   28   68 1   
    65   29   30 2   
    66   29   31 1   
    67   31   32 1   
    68   31   69 1   
    69   31   80 1   
    70   32   33 1   
    71   32   70 1   
    72   32   71 1   
    73   33   34 1   
    74   33   72 1   
    75   33   73 1   
    76   34   35 1   
    77   34   74 1   
    78   34   75 1   
    79   35   76 1   
    80   35   77 1   
    81   35   78 1   
@<TRIPOS>SUBSTRUCTURE
     1 C47         1 TEMP              0 ****  ****    0 ROOT
