@<TRIPOS>MOLECULE
C47
   78    79     1     0     0
SMALL
bcc


@<TRIPOS>ATOM
      1 C1         16.3370   44.4110   71.2700 c3        1 C47      0.124700
      2 O2         15.7390   45.6880   71.5060 os        1 C47     -0.434900
      3 C3         14.3730   45.7370   71.4950 c         1 C47      0.632100
      4 O4         13.7520   44.6960   71.2720 o         1 C47     -0.541000
      5 C5         13.8390   47.1190   71.7520 c3        1 C47     -0.118700
      6 C6         14.1510   47.5690   73.1720 c3        1 C47     -0.025100
      7 C7         13.5800   48.9270   73.3680 ca        1 C47     -0.126300
      8 C8         14.2770   49.8740   74.1180 ca        1 C47     -0.105000
      9 C9         13.7820   51.1650   74.2720 ca        1 C47     -0.148000
     10 C10        12.5860   51.5170   73.6510 ca        1 C47     -0.111000
     11 C11        11.8750   50.5910   72.8950 ca        1 C47     -0.132000
     12 C12        12.3440   49.2650   72.7570 ca        1 C47      0.069600
     13 N13        11.6280   48.3010   72.0050 n         1 C47     -0.383000
     14 C14        12.3230   47.1260   71.5190 c3        1 C47      0.097000
     15 C15        10.2240   48.3200   71.9310 c         1 C47      0.670100
     16 O16         9.5690   49.1870   72.5380 o         1 C47     -0.583100
     17 C17         9.4880   47.2710   71.1100 c3        1 C47     -0.147400
     18 C18         8.9580   47.8210   69.7840 c3        1 C47     -0.038000
     19 C19        10.0930   48.4520   68.9840 c3        1 C47     -0.096600
     20 C20         7.8930   48.8800   70.0340 c3        1 C47     -0.096600
     21 C21         8.3830   46.6780   68.9400 c3        1 C47     -0.116400
     22 C22         7.2850   45.8370   69.6210 c3        1 C47      0.129500
     23 N23         7.7480   44.6450   70.3060 n3        1 C47     -0.905800
     24 C24         6.1970   45.5000   68.5630 c3        1 C47      0.134100
     25 O25         6.6970   44.5870   67.5920 oh        1 C47     -0.609800
     26 C26         4.9760   44.8530   69.2060 c3        1 C47     -0.058400
     27 C27         3.8360   44.6840   68.2140 c3        1 C47     -0.135700
     28 C28         2.7560   43.8000   68.8040 c3        1 C47     -0.090100
     29 C29         3.2410   46.0380   67.8260 c         1 C47      0.657100
     30 O30         3.5000   47.0840   68.4550 o         1 C47     -0.618100
     31 N31         2.3690   46.0490   66.7540 n         1 C47     -0.571900
     32 C32         1.7960   47.2540   66.2250 c3        1 C47      0.086000
     33 C33         2.2510   47.5970   64.8040 c3        1 C47     -0.102400
     34 C34         1.5640   48.8500   64.3020 c3        1 C47     -0.076400
     35 C35         2.1430   50.1090   64.8960 c3        1 C47     -0.095100
     36 H1C1       17.4330   44.6190   71.3310 h1        1 C47      0.053700
     37 H1C2       16.0110   43.6870   72.0550 h1        1 C47      0.053700
     38 H1C3       16.0450   44.0370   70.2590 h1        1 C47      0.053700
     39 H5         14.3420   47.8210   71.0280 hc        1 C47      0.098700
     40 H6C1       13.6990   46.8530   73.9110 hc        1 C47      0.067700
     41 H6C2       15.2610   47.5690   73.3320 hc        1 C47      0.067700
     42 H141       12.1420   47.0410   70.4070 h1        1 C47      0.059200
     43 H142       11.8960   46.2050   72.0180 h1        1 C47      0.059200
     44 H8         15.2310   49.5900   74.5900 ha        1 C47      0.132000
     45 H9         14.3330   51.9010   74.8750 ha        1 C47      0.134000
     46 H10        12.1920   52.5400   73.7540 ha        1 C47      0.135000
     47 H11        10.9310   50.9030   72.4200 ha        1 C47      0.162000
     48 H171       10.1150   46.3680   70.9030 hc        1 C47      0.073200
     49 H172        8.6160   46.9470   71.7440 hc        1 C47      0.073200
     50 H191        9.7060   48.8390   68.0110 hc        1 C47      0.044033
     51 H192       10.5390   49.3060   69.5500 hc        1 C47      0.044033
     52 H193       10.8930   47.7020   68.7740 hc        1 C47      0.044033
     53 H201        8.3350   49.7430   70.5910 hc        1 C47      0.044033
     54 H202        7.4830   49.2480   69.0630 hc        1 C47      0.044033
     55 H203        7.0540   48.4710   70.6450 hc        1 C47      0.044033
     56 H211        7.9610   47.1420   68.0080 hc        1 C47      0.043200
     57 H212        9.2260   46.0100   68.6170 hc        1 C47      0.043200
     58 H22         6.7810   46.4760   70.4070 h1        1 C47      0.080700
     59 H231        7.8490   43.8860   69.6590 hn        1 C47      0.351800
     60 H232        8.6270   44.8130   70.7540 hn        1 C47      0.351800
     61 H24         5.8850   46.4600   68.0590 h1        1 C47      0.056700
     62 H25         7.4450   45.0200   67.1640 ho        1 C47      0.398000
     63 H261        5.2540   43.8440   69.6090 hc        1 C47      0.072700
     64 H262        4.6450   45.5010   70.0590 hc        1 C47      0.072700
     65 H27         4.2550   44.1950   67.2870 hc        1 C47      0.077700
     66 H281        1.9410   43.6170   68.0630 hc        1 C47      0.043033
     67 H282        3.1920   42.8150   69.0990 hc        1 C47      0.043033
     68 H283        2.3130   44.2770   69.7110 hc        1 C47      0.043033
     69 H31         2.2590   45.2210   66.2210 hn        1 C47      0.305500
     70 H321        0.6730   47.1340   66.2220 h1        1 C47      0.061200
     71 H322        2.0530   48.1110   66.9130 h1        1 C47      0.061200
     72 H331        3.3620   47.7420   64.7830 hc        1 C47      0.042200
     73 H332        2.0100   46.7460   64.1150 hc        1 C47      0.042200
     74 H341        1.6660   48.8910   63.1840 hc        1 C47      0.039700
     75 H342        0.4660   48.7960   64.5300 hc        1 C47      0.039700
     76 H351        3.2320   50.1910   64.6630 hc        1 C47      0.036033
     77 H352        1.6250   51.0060   64.4780 hc        1 C47      0.036033
     78 H353        2.0210   50.1190   66.0060 hc        1 C47      0.036033
@<TRIPOS>BOND
     1    1    2 1   
     2    1   36 1   
     3    1   37 1   
     4    1   38 1   
     5    2    3 1   
     6    3    4 2   
     7    3    5 1   
     8    5    6 1   
     9    5   14 1   
    10    5   39 1   
    11    6    7 1   
    12    6   40 1   
    13    6   41 1   
    14    7    8 ar  
    15    7   12 ar  
    16    8    9 ar  
    17    8   44 1   
    18    9   10 ar  
    19    9   45 1   
    20   10   11 ar  
    21   10   46 1   
    22   11   12 ar  
    23   11   47 1   
    24   12   13 1   
    25   13   14 1   
    26   13   15 1   
    27   14   42 1   
    28   14   43 1   
    29   15   16 2   
    30   15   17 1   
    31   17   18 1   
    32   17   48 1   
    33   17   49 1   
    34   18   19 1   
    35   18   20 1   
    36   18   21 1   
    37   19   50 1   
    38   19   51 1   
    39   19   52 1   
    40   20   53 1   
    41   20   54 1   
    42   20   55 1   
    43   21   22 1   
    44   21   56 1   
    45   21   57 1   
    46   22   23 1   
    47   22   24 1   
    48   22   58 1   
    49   23   59 1   
    50   23   60 1   
    51   24   25 1   
    52   24   26 1   
    53   24   61 1   
    54   25   62 1   
    55   26   27 1   
    56   26   63 1   
    57   26   64 1   
    58   27   28 1   
    59   27   29 1   
    60   27   65 1   
    61   28   66 1   
    62   28   67 1   
    63   28   68 1   
    64   29   30 2   
    65   29   31 1   
    66   31   32 1   
    67   31   69 1   
    68   32   33 1   
    69   32   70 1   
    70   32   71 1   
    71   33   34 1   
    72   33   72 1   
    73   33   73 1   
    74   34   35 1   
    75   34   74 1   
    76   34   75 1   
    77   35   76 1   
    78   35   77 1   
    79   35   78 1   
@<TRIPOS>SUBSTRUCTURE
     1 C47         1 TEMP              0 ****  ****    0 ROOT
