@<TRIPOS>MOLECULE
C47
   80    81     1     0     0
SMALL
bcc


@<TRIPOS>ATOM
      1 C1          0.5880   -1.1820   -0.5940 c3        1 C47      0.123700
      2 O2          1.8550   -1.1170    0.0720 os        1 C47     -0.413900
      3 C3          2.0380   -0.0990    0.9520 c         1 C47      0.638100
      4 O4          1.1260    0.7180    1.1300 o         1 C47     -0.578000
      5 C5          3.3990   -0.1020    1.5970 c3        1 C47     -0.117700
      6 C6          3.6380   -1.3750    2.3950 c3        1 C47     -0.028100
      7 C7          4.9660   -1.2780    3.0550 ca        1 C47     -0.109300
      8 C8          5.7840   -2.4040    3.1480 ca        1 C47     -0.100000
      9 C9          7.0500   -2.3180    3.7230 ca        1 C47     -0.120000
     10 C10         7.5110   -1.0910    4.1920 ca        1 C47     -0.107000
     11 C11         6.7130    0.0480    4.1090 ca        1 C47     -0.124000
     12 C12         5.4180   -0.0310    3.5580 ca        1 C47      0.033600
     13 N13         4.5770    1.1170    3.4730 n         1 C47     -0.357000
     14 C14         3.4950    1.1260    2.5100 c3        1 C47      0.098000
     15 C15         4.6010    2.1030    4.4530 c         1 C47      0.666100
     16 O16         5.3810    2.0720    5.4240 o         1 C47     -0.577100
     17 C17         3.6380    3.2910    4.3650 c3        1 C47     -0.161400
     18 C18         4.3470    4.5970    4.0100 c3        1 C47     -0.046000
     19 C19         5.1230    4.4300    2.7060 c3        1 C47     -0.103600
     20 C20         5.3180    5.0050    5.1090 c3        1 C47     -0.103600
     21 C21         3.3160    5.7120    3.7770 c3        1 C47     -0.114400
     22 C22         2.3720    5.9730    4.9580 c3        1 C47      0.090500
     23 N23         1.0970    5.1870    4.8180 nz        1 C47     -0.839600
     24 C24         2.0710    7.4930    5.0930 c3        1 C47      0.110100
     25 O25         1.1000    7.8760    4.1350 oh        1 C47     -0.610800
     26 C26         1.5120    7.8340    6.4750 c3        1 C47     -0.087400
     27 C27         1.2400    9.3280    6.6500 c3        1 C47     -0.128700
     28 C28         0.2600    9.5540    7.7840 c3        1 C47     -0.130100
     29 C29         2.5430   10.0760    6.8590 c         1 C47      0.534100
     30 O30         3.6590    9.6830    6.5540 o         1 C47     -0.414100
     31 N31         2.4370   11.4420    7.4900 ny        1 C47     -0.670800
     32 C32         3.6690   12.2900    7.3710 c3        1 C47      0.100800
     33 C33         3.8030   12.9660    6.0130 c3        1 C47     -0.102400
     34 C34         5.0100   13.8880    6.0100 c3        1 C47     -0.082400
     35 C35         6.3190   13.1440    6.0050 c3        1 C47     -0.106100
     36 H1C1       -0.2290   -1.3010    0.1580 h1        1 C47      0.062367
     37 H1C2        0.4290   -0.2550   -1.1950 h1        1 C47      0.062367
     38 H1C3        0.6860   -2.0860   -1.2450 h1        1 C47      0.062367
     39 H5          4.1690   -0.0350    0.7770 hc        1 C47      0.110700
     40 H6C1        2.8340   -1.5060    3.1680 hc        1 C47      0.076200
     41 H6C2        3.5920   -2.2610    1.7060 hc        1 C47      0.076200
     42 H141        3.6110    2.0390    1.8550 h1        1 C47      0.043700
     43 H142        2.5100    1.2040    3.0620 h1        1 C47      0.043700
     44 H8          5.4210   -3.3690    2.7590 ha        1 C47      0.148000
     45 H9          7.6840   -3.2160    3.7990 ha        1 C47      0.152000
     46 H10         8.5170   -1.0120    4.6340 ha        1 C47      0.148000
     47 H11         7.1050    1.0020    4.4950 ha        1 C47      0.154000
     48 H171        3.1920    3.3730    5.3940 hc        1 C47      0.043700
     49 H172        2.8110    3.1200    3.6290 hc        1 C47      0.043700
     50 H191        5.6280    5.3860    2.4290 hc        1 C47      0.059200
     51 H192        5.9070    3.6420    2.8300 hc        1 C47      0.059200
     52 H193        4.4420    4.1280    1.8750 hc        1 C47      0.059200
     53 H201        6.1190    4.2280    5.2130 hc        1 C47      0.059200
     54 H202        5.8000    5.9800    4.8600 hc        1 C47      0.059200
     55 H203        4.8060    5.0900    6.0970 hc        1 C47      0.059200
     56 H211        3.8910    6.6570    3.5740 hc        1 C47      0.080700
     57 H212        2.7330    5.4870    2.8430 hc        1 C47      0.080700
     58 H22         2.8700    5.6230    5.9150 hx        1 C47      0.129700
     59 H231        0.5850    5.1810    5.7030 hn        1 C47      0.467800
     60 H232        0.5080    5.6260    4.0970 hn        1 C47      0.467800
     61 H24         3.0430    8.0440    4.9410 h1        1 C47      0.101700
     62 H25         1.5600    8.0830    3.3080 ho        1 C47      0.445000
     63 H261        0.5380    7.2970    6.6290 hc        1 C47      0.081200
     64 H262        2.2370    7.4800    7.2550 hc        1 C47      0.081200
     65 H27         0.7930    9.7200    5.6850 hc        1 C47      0.131700
     66 H281       -0.1130   10.6070    7.8050 hc        1 C47      0.074700
     67 H282       -0.6390    8.9000    7.6390 hc        1 C47      0.074700
     68 H283        0.7120    9.2970    8.7720 hc        1 C47      0.074700
     69 H31         2.2220   11.3050    8.4870 hn        1 C47      0.466800
     70 H321        3.6060   13.0730    8.1840 hx        1 C47      0.122700
     71 H322        4.5680   11.6340    7.5660 hx        1 C47      0.122700
     72 H331        2.8850   13.5710    5.7860 hc        1 C47      0.061700
     73 H332        3.9230   12.1930    5.2090 hc        1 C47      0.061700
     74 H341        4.9640   14.5780    6.8940 hc        1 C47      0.073200
     75 H342        4.9470   14.5310    5.0890 hc        1 C47      0.073200
     76 H351        6.3750   12.4380    5.1420 hc        1 C47      0.049367
     77 H352        7.1650   13.8700    5.9170 hc        1 C47      0.049367
     78 H353        6.4610   12.5630    6.9490 hc        1 C47      0.049367
     79 H233        1.3120    4.2210    4.5390 hn        1 C47      0.467800
     80 H312        1.6470   11.9370    7.0580 hn        1 C47      0.466800
@<TRIPOS>BOND
     1    1    2 1   
     2    1   36 1   
     3    1   37 1   
     4    1   38 1   
     5    2    3 1   
     6    3    4 2   
     7    3    5 1   
     8    5    6 1   
     9    5   14 1   
    10    5   39 1   
    11    6    7 1   
    12    6   40 1   
    13    6   41 1   
    14    7    8 ar  
    15    7   12 ar  
    16    8    9 ar  
    17    8   44 1   
    18    9   10 ar  
    19    9   45 1   
    20   10   11 ar  
    21   10   46 1   
    22   11   12 ar  
    23   11   47 1   
    24   12   13 1   
    25   13   14 1   
    26   13   15 1   
    27   14   42 1   
    28   14   43 1   
    29   15   16 2   
    30   15   17 1   
    31   17   18 1   
    32   17   48 1   
    33   17   49 1   
    34   18   19 1   
    35   18   20 1   
    36   18   21 1   
    37   19   50 1   
    38   19   51 1   
    39   19   52 1   
    40   20   53 1   
    41   20   54 1   
    42   20   55 1   
    43   21   22 1   
    44   21   56 1   
    45   21   57 1   
    46   22   23 1   
    47   22   24 1   
    48   22   58 1   
    49   23   59 1   
    50   23   60 1   
    51   23   79 1   
    52   24   25 1   
    53   24   26 1   
    54   24   61 1   
    55   25   62 1   
    56   26   27 1   
    57   26   63 1   
    58   26   64 1   
    59   27   28 1   
    60   27   29 1   
    61   27   65 1   
    62   28   66 1   
    63   28   67 1   
    64   28   68 1   
    65   29   30 2   
    66   29   31 1   
    67   31   32 1   
    68   31   69 1   
    69   31   80 1   
    70   32   33 1   
    71   32   70 1   
    72   32   71 1   
    73   33   34 1   
    74   33   72 1   
    75   33   73 1   
    76   34   35 1   
    77   34   74 1   
    78   34   75 1   
    79   35   76 1   
    80   35   77 1   
    81   35   78 1   
@<TRIPOS>SUBSTRUCTURE
     1 C47         1 TEMP              0 ****  ****    0 ROOT
