@<TRIPOS>MOLECULE
C48
   59    60     1     0     0
SMALL
bcc


@<TRIPOS>ATOM
      1 O1          1.4890    2.8060    0.3860 o         1 C48     -0.370100
      2 O2         -0.2710    0.6700    1.4850 o         1 C48     -0.372100
      3 O3          2.3010   -0.3440    3.6530 o         1 C48     -0.368100
      4 N5         -0.0010   -0.2440    4.1160 n4        1 C48     -0.674800
      5 N8          1.0020   -0.6970   -4.2980 nb        1 C48     -0.720000
      6 C9          2.0340    1.7640    0.0510 c         1 C48      0.541100
      7 C10         2.0780    0.5010    0.8790 c3        1 C48     -0.245400
      8 C11         0.8830    0.4120    1.7880 c         1 C48      0.534100
      9 C12         1.1960   -0.0850    3.2120 c         1 C48      0.437100
     10 C13         0.3010   -0.5610    5.5570 c3        1 C48      0.048500
     11 C14        -0.7490    0.0870    6.4970 c3        1 C48     -0.038100
     12 C15        -1.0120    1.5030    6.1390 ca        1 C48     -0.220300
     13 C16        -2.1650    1.8370    5.4100 ca        1 C48     -0.126000
     14 C17        -2.4760    3.1730    5.1690 ca        1 C48     -0.104000
     15 C18        -1.6450    4.1860    5.6580 ca        1 C48     -0.063000
     16 C19        -0.4970    3.8570    6.3820 ca        1 C48     -0.104000
     17 C20        -0.1810    2.5210    6.6250 ca        1 C48     -0.126000
     18 C21         0.3330   -2.0770    5.7980 c         1 C48      0.513100
     19 C22         1.8500   -3.5050    7.1060 c3        1 C48      0.078600
     20 C23        -0.4800   -3.1970    7.8240 c3        1 C48      0.078600
     21 C24         1.9420    1.0400   -2.3260 c3        1 C48      0.120800
     22 C25         2.6690    1.0150   -3.6670 c3        1 C48     -0.142700
     23 C26         1.8440    0.2930   -4.6980 ca        1 C48      0.351600
     24 C27         2.0170    0.6540   -6.0460 ca        1 C48     -0.206300
     25 C28         1.2970   -0.0450   -7.0240 ca        1 C48     -0.068000
     26 C29         0.4350   -1.0640   -6.6290 ca        1 C48     -0.199300
     27 C30         0.3200   -1.3500   -5.2520 ca        1 C48      0.413200
     28 HN5        -0.5390    0.6570    4.1010 hn        1 C48      0.506300
     29 HN7         3.6620    1.3020   -1.1730 hn        1 C48      0.479300
     30 H101        3.0410    0.5020    1.4710 hc        1 C48      0.157200
     31 H102        2.0780   -0.4260    0.2300 hc        1 C48      0.157200
     32 H13         1.3240   -0.1240    5.7910 hx        1 C48      0.157700
     33 H141       -0.3400    0.0390    7.5440 hc        1 C48      0.095700
     34 H142       -1.7040   -0.5070    6.4640 hc        1 C48      0.095700
     35 H16        -2.8650    1.0520    5.0810 ha        1 C48      0.140000
     36 H17        -3.3960    3.4340    4.6180 ha        1 C48      0.179500
     37 H18        -1.9090    5.2450    5.4900 ha        1 C48      0.185000
     38 H19         0.1470    4.6570    6.7870 ha        1 C48      0.179500
     39 H20         0.7040    2.2760    7.2320 ha        1 C48      0.140000
     40 H221        2.0830   -3.8610    8.1490 hx        1 C48      0.129700
     41 H222        2.7470   -2.9860    6.6750 hx        1 C48      0.129700
     42 H223        1.5670   -4.3870    6.4660 hx        1 C48      0.129700
     43 H231       -0.1780   -3.5530    8.8500 hx        1 C48      0.129700
     44 H232       -1.3130   -2.4490    7.9140 hx        1 C48      0.129700
     45 H233       -0.8120   -4.0790    7.2080 hx        1 C48      0.129700
     46 H241        1.7600   -0.0110   -1.9590 hx        1 C48      0.121200
     47 H242        0.9550    1.5780   -2.4320 hx        1 C48      0.121200
     48 H251        2.8630    2.0610   -4.0290 hc        1 C48      0.081700
     49 H252        3.6560    0.4850   -3.5730 hc        1 C48      0.081700
     50 H27         2.7060    1.4610   -6.3330 ha        1 C48      0.158000
     51 H28         1.4170    0.2130   -8.0900 ha        1 C48      0.176000
     52 H29        -0.1470   -1.6390   -7.3650 ha        1 C48      0.179000
     53 H30        -0.3550   -2.1510   -4.8970 h4        1 C48      0.039100
     54 N6          0.7020   -2.5480    7.1720 n4        1 C48     -0.565200
     55 O4          0.0630   -2.9080    4.9400 o         1 C48     -0.395100
     56 N7          2.7430    1.7530   -1.2650 n4        1 C48     -0.671800
     57 H52        -0.6100   -0.9770    3.7130 hn        1 C48      0.506300
     58 H61         0.9840   -1.7380    7.7430 hn        1 C48      0.467800
     59 H72         2.8930    2.7310   -1.5710 hn        1 C48      0.479300
@<TRIPOS>BOND
     1    1    6 2   
     2    2    8 2   
     3    3    9 2   
     4    4    9 1   
     5    4   10 1   
     6    4   28 1   
     7    4   57 1   
     8    5   23 ar  
     9    5   27 ar  
    10    6    7 1   
    11    6   56 1   
    12    7    8 1   
    13    7   30 1   
    14    7   31 1   
    15    8    9 1   
    16   10   11 1   
    17   10   18 1   
    18   10   32 1   
    19   11   12 1   
    20   11   33 1   
    21   11   34 1   
    22   12   13 ar  
    23   12   17 ar  
    24   13   14 ar  
    25   13   35 1   
    26   14   15 ar  
    27   14   36 1   
    28   15   16 ar  
    29   15   37 1   
    30   16   17 ar  
    31   16   38 1   
    32   17   39 1   
    33   18   54 1   
    34   18   55 2   
    35   19   40 1   
    36   19   41 1   
    37   19   42 1   
    38   19   54 1   
    39   20   43 1   
    40   20   44 1   
    41   20   45 1   
    42   20   54 1   
    43   21   22 1   
    44   21   46 1   
    45   21   47 1   
    46   21   56 1   
    47   22   23 1   
    48   22   48 1   
    49   22   49 1   
    50   23   24 ar  
    51   24   25 ar  
    52   24   50 1   
    53   25   26 ar  
    54   25   51 1   
    55   26   27 ar  
    56   26   52 1   
    57   27   53 1   
    58   29   56 1   
    59   54   58 1   
    60   56   59 1   
@<TRIPOS>SUBSTRUCTURE
     1 C48         1 TEMP              0 ****  ****    0 ROOT
