@<TRIPOS>MOLECULE
C48
   56    57     1     0     0
SMALL
bcc


@<TRIPOS>ATOM
      1 O1         -1.2940    2.1170   -2.1350 o         1 C48     -0.598100
      2 O2          1.9620    0.2780   -0.1610 o         1 C48     -0.517100
      3 O3          0.6990    2.4990    2.1840 o         1 C48     -0.568100
      4 N5          0.9660    0.2300    2.5030 n         1 C48     -0.544900
      5 N8         -0.0450   -1.3570   -6.4870 nb        1 C48     -0.670000
      6 C9         -0.1810    1.6410   -1.8380 c         1 C48      0.664100
      7 C10         0.5810    2.2030   -0.6470 c3        1 C48     -0.260400
      8 C11         1.2200    1.1800    0.2350 c         1 C48      0.521100
      9 C12         0.9350    1.3650    1.7280 c         1 C48      0.572100
     10 C13         0.6490    0.2340    3.9040 c3        1 C48      0.041700
     11 C14        -0.3160   -0.8860    4.3330 c3        1 C48     -0.048100
     12 C15        -1.6470   -0.7590    3.6830 ca        1 C48     -0.092300
     13 C16        -2.0810   -1.7200    2.7620 ca        1 C48     -0.124000
     14 C17        -3.3360   -1.6040    2.1650 ca        1 C48     -0.125500
     15 C18        -4.1660   -0.5310    2.4830 ca        1 C48     -0.124000
     16 C19        -3.7400    0.4280    3.4030 ca        1 C48     -0.125500
     17 C20        -2.4880    0.3140    4.0030 ca        1 C48     -0.124000
     18 C21         1.8760    0.1780    4.8470 c         1 C48      0.643100
     19 C22         3.0210   -1.6320    3.5750 c3        1 C48      0.078300
     20 C23         4.0870   -0.6140    5.5120 c3        1 C48      0.078300
     21 C24        -0.2060    0.0730   -3.7430 c3        1 C48      0.094000
     22 C25         0.4070    0.5920   -5.0500 c3        1 C48     -0.153700
     23 C26        -0.2730   -0.0440   -6.2270 ca        1 C48      0.406600
     24 C27        -1.1230    0.7480   -7.0310 ca        1 C48     -0.238300
     25 C28        -1.7500    0.1660   -8.1330 ca        1 C48     -0.091000
     26 C29        -1.5200   -1.1820   -8.4090 ca        1 C48     -0.248300
     27 C30        -0.6600   -1.8960   -7.5540 ca        1 C48      0.397200
     28 HN5         1.1570   -0.6420    2.0660 hn        1 C48      0.325500
     29 HN7         1.3040    0.3020   -2.3130 hn        1 C48      0.327500
     30 H101       -0.1360    2.8360   -0.0520 hc        1 C48      0.119200
     31 H102        1.3890    2.8840   -1.0350 hc        1 C48      0.119200
     32 H13         0.1550    1.2330    4.1400 h1        1 C48      0.124700
     33 H141        0.1270   -1.8930    4.1160 hc        1 C48      0.066200
     34 H142       -0.4360   -0.8040    5.4490 hc        1 C48      0.066200
     35 H16        -1.4330   -2.5720    2.5100 ha        1 C48      0.133000
     36 H17        -3.6690   -2.3630    1.4410 ha        1 C48      0.135000
     37 H18        -5.1540   -0.4380    2.0090 ha        1 C48      0.135000
     38 H19        -4.3930    1.2760    3.6560 ha        1 C48      0.135000
     39 H20        -2.1550    1.0710    4.7300 ha        1 C48      0.133000
     40 H221        3.7690   -2.4290    3.8390 h1        1 C48      0.044200
     41 H222        2.0330   -2.1370    3.4050 h1        1 C48      0.044200
     42 H223        3.3590   -1.1420    2.6210 h1        1 C48      0.044200
     43 H231        3.9790    0.2320    6.2420 h1        1 C48      0.044200
     44 H232        4.1910   -1.5760    6.0830 h1        1 C48      0.044200
     45 H233        5.0150   -0.4540    4.9010 h1        1 C48      0.044200
     46 H241       -0.0870   -1.0480   -3.7050 h1        1 C48      0.071700
     47 H242       -1.3080    0.3170   -3.7370 h1        1 C48      0.071700
     48 H251        0.2890    1.7060   -5.1120 hc        1 C48      0.060700
     49 H252        1.5060    0.3640   -5.0770 hc        1 C48      0.060700
     50 H27        -1.2870    1.8060   -6.7850 ha        1 C48      0.147000
     51 H28        -2.4160    0.7630   -8.7730 ha        1 C48      0.139000
     52 H29        -1.9920   -1.6790   -9.2650 ha        1 C48      0.144000
     53 H30        -0.4490   -2.9660   -7.7320 h4        1 C48      0.021100
     54 N6          2.9380   -0.6840    4.6450 n         1 C48     -0.473800
     55 O4          1.8610    0.9320    5.8410 o         1 C48     -0.601100
     56 N7          0.3950    0.6210   -2.5590 n         1 C48     -0.569900
@<TRIPOS>BOND
     1    1    6 2   
     2    2    8 2   
     3    3    9 2   
     4    4    9 1   
     5    4   10 1   
     6    4   28 1   
     7    5   23 ar  
     8    5   27 ar  
     9    6    7 1   
    10    6   56 1   
    11    7    8 1   
    12    7   30 1   
    13    7   31 1   
    14    8    9 1   
    15   10   11 1   
    16   10   18 1   
    17   10   32 1   
    18   11   12 1   
    19   11   33 1   
    20   11   34 1   
    21   12   13 ar  
    22   12   17 ar  
    23   13   14 ar  
    24   13   35 1   
    25   14   15 ar  
    26   14   36 1   
    27   15   16 ar  
    28   15   37 1   
    29   16   17 ar  
    30   16   38 1   
    31   17   39 1   
    32   18   54 1   
    33   18   55 2   
    34   19   40 1   
    35   19   41 1   
    36   19   42 1   
    37   19   54 1   
    38   20   43 1   
    39   20   44 1   
    40   20   45 1   
    41   20   54 1   
    42   21   22 1   
    43   21   46 1   
    44   21   47 1   
    45   21   56 1   
    46   22   23 1   
    47   22   48 1   
    48   22   49 1   
    49   23   24 ar  
    50   24   25 ar  
    51   24   50 1   
    52   25   26 ar  
    53   25   51 1   
    54   26   27 ar  
    55   26   52 1   
    56   27   53 1   
    57   29   56 1   
@<TRIPOS>SUBSTRUCTURE
     1 C48         1 TEMP              0 ****  ****    0 ROOT
