@<TRIPOS>MOLECULE
C48
   56    53     1     0     0
SMALL
bcc


@<TRIPOS>ATOM
      1 O1         -2.1570   -0.3130   -2.8370 o         1 C48     -0.358000
      2 O2         -1.1510    0.5690   -0.4430 o         1 C48     -0.278000
      3 O3         -1.8200   -1.9170    1.4930 o         1 C48     -0.318000
      4 O4          0.9940   -2.1770    4.9340 o         1 C48     -0.352000
      5 N5          0.2370   -0.9950    1.9890 n         1 C48     -0.353000
      6 N6          2.5060   -0.7630    3.9520 n         1 C48     -0.340000
      7 N7         -0.1140   -0.6340   -3.8980 n         1 C48     -0.378000
      8 N8          1.8770    1.3660   -7.0000 n1        1 C48     -0.144000
      9 C9         -1.0410   -0.7930   -2.7750 c2        1 C48      0.307000
     10 C10        -0.5780   -1.4940   -1.4880 c3        1 C48     -0.239000
     11 C11        -0.8970   -0.6140   -0.2840 c2        1 C48      0.228000
     12 C12        -0.8890   -1.2110    1.1220 c2        1 C48      0.262000
     13 C13         0.0270   -0.6920    3.3640 c3        1 C48      0.028000
     14 C14        -1.2900   -1.3340    3.8330 c3        1 C48     -0.120000
     15 C15        -1.8790   -0.5160    4.9300 c2        1 C48     -0.088000
     16 C16        -1.9780   -1.0420    6.2120 c2        1 C48     -0.113000
     17 C17        -2.6080   -0.3160    7.2120 c1        1 C48     -0.133000
     18 C18        -3.1390    0.9400    6.9300 c1        1 C48     -0.128000
     19 C19        -3.0390    1.4620    5.6510 c1        1 C48     -0.128000
     20 C20        -2.4080    0.7330    4.6500 c1        1 C48     -0.129000
     21 C21         1.1770   -1.2380    4.1850 c2        1 C48      0.280000
     22 C22         3.5530   -1.6970    3.5820 c3        1 C48     -0.078500
     23 C23         2.8300    0.6390    4.1890 c3        1 C48     -0.078500
     24 C24        -0.3070    0.4670   -4.8640 c3        1 C48     -0.022000
     25 C25        -0.0930   -0.0630   -6.3040 c3        1 C48     -0.139000
     26 C26         0.5490    1.0430   -7.1690 c2        1 C48     -0.016000
     27 C27        -0.2020    1.6710   -8.1700 c2        1 C48     -0.173000
     28 C28         0.3800    2.5990   -8.9730 c1        1 C48     -0.091000
     29 C29         1.6980    2.9190   -8.8040 c1        1 C48     -0.128000
     30 C30         2.4540    2.2860   -7.7970 c1        1 C48     -0.128000
     31 HN5         1.0710   -1.1250    1.6810 hn        1 C48      0.237000
     32 HN7         0.6030   -1.2390   -4.0090 hn        1 C48      0.241000
     33 H101        0.3890   -1.6510   -1.5310 hc        1 C48      0.157000
     34 H102       -1.0460   -2.3550   -1.3970 hc        1 C48      0.157000
     35 H13        -0.0240    0.2800    3.4800 h1        1 C48      0.114000
     36 H141       -1.9230   -1.3750    3.0780 hc        1 C48      0.125500
     37 H142       -1.1120   -2.2490    4.1630 hc        1 C48      0.125500
     38 H16        -1.6020   -1.9270    6.4100 ha        1 C48      0.158000
     39 H17        -2.6770   -0.6810    8.1020 ha        1 C48      0.133000
     40 H18        -3.5720    1.4400    7.6170 ha        1 C48      0.140750
     41 H19        -3.4130    2.3460    5.4510 ha        1 C48      0.140750
     42 H20        -2.3380    1.0990    3.7550 ha        1 C48      0.129000
     43 H221        3.1920   -2.6200    3.5910 h1        1 C48      0.083667
     44 H222        3.8770   -1.4840    2.6880 h1        1 C48      0.083667
     45 H223        4.2890   -1.6290    4.2200 h1        1 C48      0.083667
     46 H231        3.3580    0.9840    3.4370 h1        1 C48      0.083667
     47 H232        1.9980    1.1590    4.2730 h1        1 C48      0.083667
     48 H233        3.3500    0.7180    5.0160 h1        1 C48      0.083667
     49 H241       -1.2220    0.8220   -4.7770 h1        1 C48      0.111500
     50 H242        0.3510    1.1950   -4.6760 h1        1 C48      0.111500
     51 H251       -0.9440   -0.3140   -6.6860 hc        1 C48      0.100000
     52 H252        0.5060   -0.8570   -6.2800 hc        1 C48      0.100000
     53 H27        -1.1360    1.4450   -8.2890 ha        1 C48      0.147000
     54 H28        -0.1510    3.0450   -9.6830 ha        1 C48      0.140000
     55 H29         2.1120    3.5790   -9.3770 ha        1 C48      0.140750
     56 H30         3.3710    2.5090   -7.6800 ha        1 C48      0.140750
@<TRIPOS>BOND
     1    1    9 1   
     2    2   11 1   
     3    3   12 1   
     4    4   21 1   
     5    5   12 1   
     6    5   13 1   
     7    5   31 1   
     8    6   21 1   
     9    6   22 1   
    10    6   23 1   
    11    7    9 1   
    12    7   24 1   
    13    7   32 1   
    14    8   26 1   
    15    9   10 1   
    16   10   11 1   
    17   10   33 1   
    18   10   34 1   
    19   11   12 1   
    20   13   14 1   
    21   13   21 1   
    22   13   35 1   
    23   14   15 1   
    24   14   36 1   
    25   14   37 1   
    26   15   16 1   
    27   15   20 1   
    28   16   17 1   
    29   16   38 1   
    30   17   39 1   
    31   18   19 1   
    32   18   40 1   
    33   19   41 1   
    34   20   42 1   
    35   22   43 1   
    36   22   44 1   
    37   22   45 1   
    38   23   46 1   
    39   23   47 1   
    40   23   48 1   
    41   24   25 1   
    42   24   49 1   
    43   24   50 1   
    44   25   26 1   
    45   25   51 1   
    46   25   52 1   
    47   26   27 1   
    48   27   28 1   
    49   27   53 1   
    50   28   54 1   
    51   29   30 1   
    52   29   55 1   
    53   30   56 1   
@<TRIPOS>SUBSTRUCTURE
     1 C48         1 TEMP              0 ****  ****    0 ROOT
