@<TRIPOS>MOLECULE
C49
   36    37     1     0     0
SMALL
bcc


@<TRIPOS>ATOM
      1 P           5.8540   -1.0680   -1.5930 p5        1 C49      1.330900
      2 O1P         6.9910   -0.1050   -1.7380 o         1 C49     -0.929833
      3 O2P         6.0620   -2.4830   -2.0520 o         1 C49     -0.929833
      4 O3P         5.0020   -0.9390   -0.3440 o         1 C49     -0.929833
      5 O5'         4.6790   -0.4880   -2.7460 os        1 C49     -0.556200
      6 C5'         3.5610   -1.2700   -2.8310 c3        1 C49      0.238400
      7 C4'         2.3580   -0.5710   -2.1500 c3        1 C49      0.063100
      8 O4'         1.1500   -1.0180   -2.8400 os        1 C49     -0.427600
      9 C3'         2.1810   -0.9340   -0.6620 c3        1 C49      0.164100
     10 O3'         2.5410    0.1330    0.1810 oh        1 C49     -0.670800
     11 C2'         0.6750   -1.2010   -0.4900 c3        1 C49     -0.123400
     12 C1'         0.1280   -1.3220   -1.9230 c3        1 C49      0.300500
     13 N1         -1.0650   -0.4450   -2.1930 n         1 C49     -0.420400
     14 C2         -0.8170    0.8800   -2.6680 c         1 C49      0.797500
     15 O2          0.2040    1.5240   -2.3950 o         1 C49     -0.523500
     16 N3         -1.8010    1.5260   -3.4610 n         1 C49     -0.498400
     17 C4         -3.0500    0.9430   -3.6980 c2        1 C49      0.461900
     18 N4         -3.7740    1.2780   -4.7210 n2        1 C49     -0.828100
     19 C5         -3.4870   -0.0400   -2.5670 c3        1 C49      0.043000
     20 C6         -2.3210   -0.9850   -2.1620 c         1 C49      0.389400
     21 CM5        -3.8750    0.7910   -1.3360 c3        1 C49     -0.115100
     22 F          -4.5870   -0.7670   -3.0080 f         1 C49     -0.209300
     23 SG         -2.6760   -2.4490   -1.6640 s         1 C49     -0.448400
     24 H5'1        3.2770   -1.4150   -3.9170 h1        1 C49      0.001200
     25 H5'2        3.7270   -2.2800   -2.3610 h1        1 C49      0.001200
     26 H4'         2.4190    0.5400   -2.2830 h1        1 C49      0.079700
     27 H3'         2.7910   -1.8440   -0.4030 h1        1 C49      0.100700
     28 HA          3.5280    0.1200    0.2100 ho        1 C49      0.503000
     29 H2'1        0.4930   -2.1560    0.0560 hc        1 C49      0.054700
     30 H2'2        0.2060   -0.3660    0.0860 hc        1 C49      0.054700
     31 H1'        -0.2310   -2.3720   -2.1600 h2        1 C49      0.090700
     32 H3         -1.4650    2.2390   -4.0740 hn        1 C49      0.349500
     33 HM51       -4.6700    1.5220   -1.6130 hc        1 C49      0.062367
     34 HM52       -4.2680    0.1110   -0.5410 hc        1 C49      0.062367
     35 HM53       -2.9870    1.3400   -0.9440 hc        1 C49      0.062367
     36 HN1        -4.6640    0.8260   -4.7520 hn        1 C49      0.401400
@<TRIPOS>BOND
     1    1    2 1   
     2    1    3 1   
     3    1    4 1   
     4    1    5 1   
     5    5    6 1   
     6    6    7 1   
     7    6   24 1   
     8    6   25 1   
     9    7    8 1   
    10    7    9 1   
    11    7   26 1   
    12    8   12 1   
    13    9   10 1   
    14    9   11 1   
    15    9   27 1   
    16   10   28 1   
    17   11   12 1   
    18   11   29 1   
    19   11   30 1   
    20   12   13 1   
    21   12   31 1   
    22   13   14 1   
    23   13   20 1   
    24   14   15 2   
    25   14   16 1   
    26   16   17 1   
    27   16   32 1   
    28   17   18 2   
    29   17   19 1   
    30   18   36 1   
    31   19   20 1   
    32   19   21 1   
    33   19   22 1   
    34   20   23 2   
    35   21   33 1   
    36   21   34 1   
    37   21   35 1   
@<TRIPOS>SUBSTRUCTURE
     1 C49         1 TEMP              0 ****  ****    0 ROOT
