@<TRIPOS>MOLECULE
C4A
   74    72     1     0     0
SMALL
bcc


@<TRIPOS>ATOM
      1 N1       -722.9690   89.6200 -257.1410 nz        1 C4A     -0.070000
      2 C2       -721.4740   89.5770 -257.1210 c3        1 C4A     -0.130000
      3 C4        145.0920  -16.3590   51.9260 c3        1 C4A     -0.260000
      4 C5        143.9180  -15.9530   51.1410 c2        1 C4A      0.042000
      5 C6        143.6070  -16.3710   49.8910 c2        1 C4A     -0.254000
      6 C3       -720.9260   88.9890 -255.8390 c3        1 C4A     -0.260000
      7 O9        143.1660  -19.2960   48.9150 o         1 C4A     -0.212000
      8 N7        144.4610  -17.2970   49.1380 ny        1 C4A     -0.016000
      9 O10       145.0380  -19.2770   50.2510 os        1 C4A     -0.252000
     10 C11       143.7720  -20.8830   51.5870 c3        1 C4A     -0.264000
     11 C12       144.8700  -20.6950   50.5810 c3        1 C4A      0.005000
     12 C15       141.2340  -15.4950   49.9200 c2        1 C4A     -0.169000
     13 N16       140.7890  -16.1090   51.0520 n2        1 C4A      0.030000
     14 O17       139.6670  -15.5380   51.3830 os        1 C4A     -0.048000
     15 C18       139.3730  -14.5050   50.4280 c2        1 C4A      0.023000
     16 C19       138.1330  -13.7380   50.6600 c3        1 C4A     -0.128000
     17 C20       137.5290  -13.1870   49.4200 c2        1 C4A      0.202000
     18 C21       123.4370   -8.2650   53.2200 c2        1 C4A     -0.149000
     19 C22       124.5150   -8.4150   52.5160 c1        1 C4A     -0.104000
     20 C23       125.5770   -8.6000   51.7790 c2        1 C4A     -0.183000
     21 C24       135.2920  -11.8730   49.3990 c1        1 C4A      0.166000
     22 C25       136.3880  -12.5190   49.4340 c1        1 C4A     -0.546000
     23 C26       126.8270   -7.8110   51.8800 c2        1 C4A      0.374000
     24 O27       127.7720   -8.0010   51.0670 o         1 C4A     -0.494000
     25 N28       126.9620   -6.8740   52.8620 nt        1 C4A     -0.404000
     26 C29       132.1830   -9.7710   47.6610 ca        1 C4A     -0.206000
     27 C30       128.9180   -8.0770   48.1820 c2        1 C4A      0.105000
     28 C31       130.0810   -8.7680   48.3980 ca        1 C4A     -0.191000
     29 C32       131.0270   -9.0720   47.3490 ca        1 C4A      0.061000
     30 C33       132.4520  -10.1880   48.9730 ca        1 C4A      0.067000
     31 C34       130.7630   -8.6700   45.9410 c3        1 C4A     -0.261000
     32 C35       129.9590   -9.5480   45.1170 c1        1 C4A      0.004000
     33 C36       131.5430   -9.9040   50.0060 ca        1 C4A     -0.201000
     34 C37       130.3830   -9.2120   49.7370 ca        1 C4A      0.041000
     35 N38       140.3390  -14.4640   49.5130 n2        1 C4A     -0.096000
     36 C13       142.4230  -15.8690   49.1260 c2        1 C4A      0.361000
     37 HN11     -721.1420   88.9610 -258.0070 hx        1 C4A      0.154000
     38 HN12     -721.2190   89.5930 -254.9450 hc        1 C4A      0.126000
     39 H21A     -723.3500   88.6730 -257.0430 hn        1 C4A      0.257333
     40 H22A     -723.3150   90.1910 -256.3620 hn        1 C4A      0.257333
     41 H41       144.8730  -16.2740   53.0240 hc        1 C4A      0.135667
     42 H42      -721.1030   90.6350 -257.2560 hx        1 C4A      0.154000
     43 H51       145.9510  -15.6700   51.7030 hc        1 C4A      0.135667
     44 H52       145.4150  -17.4120   51.7230 hc        1 C4A      0.135667
     45 H6        143.2500  -15.2110   51.6270 ha        1 C4A      0.188000
     46 H31      -721.2580   87.9320 -255.6900 hc        1 C4A      0.126000
     47 H32      -719.8070   88.9940 -255.9080 hc        1 C4A      0.126000
     48 HN7       145.4490  -17.1270   49.3740 hn        1 C4A      0.283500
     49 H111      142.7800  -20.6100   51.1490 hc        1 C4A      0.113667
     50 H112      144.6840  -21.2620   49.6330 h1        1 C4A      0.140000
     51 H121      143.9500  -20.2640   52.4990 hc        1 C4A      0.113667
     52 H122      143.7410  -21.9610   51.8890 hc        1 C4A      0.113667
     53 H123      145.8900  -20.9250   51.0000 h1        1 C4A      0.140000
     54 H191      138.3680  -12.8880   51.3700 hc        1 C4A      0.174000
     55 H192      138.0750  -13.3520   48.4680 ha        1 C4A      0.165000
     56 H21       137.3870  -14.4020   51.1890 hc        1 C4A      0.174000
     57 H22       123.2720   -8.8050   54.1670 ha        1 C4A      0.161500
     58 H24       125.6080   -9.3850   51.0030 ha        1 C4A      0.168000
     59 H25       122.6200   -7.5930   52.9100 ha        1 C4A      0.161500
     60 H28       131.7670  -10.2390   51.0330 ha        1 C4A      0.179000
     61 H29       126.2330   -6.7030   53.5090 hn        1 C4A      0.238000
     62 H301      128.2130   -7.8560   49.0120 ha        1 C4A      0.181000
     63 H302      128.6250   -7.7100   47.1830 ha        1 C4A      0.181000
     64 H331      132.9170  -10.0030   46.8700 ha        1 C4A      0.171000
     65 H332      133.3930  -10.7460   49.1930 ha        1 C4A      0.215000
     66 H34       131.7430   -8.5810   45.3650 hc        1 C4A      0.182500
     67 H35       130.3140   -7.6330   45.8920 hc        1 C4A      0.182500
     68 H36       129.6850  -10.5360   45.5140 ha        1 C4A      0.061000
     69 H37       129.6540   -8.9790   50.5420 ha        1 C4A      0.210000
     70 C8        144.1260  -18.7390   49.4220 c2        1 C4A      0.339000
     71 O14       142.4530  -15.7960   47.8990 o         1 C4A     -0.208000
     72 H13      -723.2980   90.0240 -258.0230 hn        1 C4A      0.257333
     73 H72       144.3090  -17.1290   48.1260 hn        1 C4A      0.283500
     74 H282      127.7940   -6.3410   52.9300 hn        1 C4A      0.238000
@<TRIPOS>BOND
     1    1    2 1   
     2    1   39 1   
     3    1   40 1   
     4    1   72 1   
     5    2    6 1   
     6    2   37 1   
     7    2   42 1   
     8    3    4 1   
     9    3   41 1   
    10    3   43 1   
    11    3   44 1   
    12    4    5 1   
    13    4   45 1   
    14    5    8 1   
    15    5   36 1   
    16    6   38 1   
    17    6   46 1   
    18    6   47 1   
    19    7   70 1   
    20    8   48 1   
    21    8   70 1   
    22    8   73 1   
    23    9   11 1   
    24    9   70 1   
    25   10   11 1   
    26   10   49 1   
    27   10   51 1   
    28   10   52 1   
    29   11   50 1   
    30   11   53 1   
    31   12   13 1   
    32   12   35 1   
    33   12   36 1   
    34   13   14 1   
    35   14   15 1   
    36   15   16 1   
    37   15   35 1   
    38   16   17 1   
    39   16   54 1   
    40   16   56 1   
    41   17   22 1   
    42   17   55 1   
    43   18   19 1   
    44   18   57 1   
    45   18   59 1   
    46   19   20 1   
    47   20   23 1   
    48   20   58 1   
    49   21   22 1   
    50   23   24 1   
    51   23   25 1   
    52   25   61 1   
    53   25   74 1   
    54   26   29 1   
    55   26   30 1   
    56   26   64 1   
    57   27   28 1   
    58   27   62 1   
    59   27   63 1   
    60   28   29 1   
    61   28   34 1   
    62   29   31 1   
    63   30   33 1   
    64   30   65 1   
    65   31   32 1   
    66   31   66 1   
    67   31   67 1   
    68   32   68 1   
    69   33   34 1   
    70   33   60 1   
    71   34   69 1   
    72   36   71 1   
@<TRIPOS>SUBSTRUCTURE
     1 C4A         1 TEMP              0 ****  ****    0 ROOT
