@<TRIPOS>MOLECULE
C4A
   71    67     1     0     0
SMALL
bcc


@<TRIPOS>ATOM
      1 N1         -8.2000   -6.8620    0.4250 n3        1 C4A     -0.337000
      2 C2         -7.3460   -6.1390   -0.5240 c3        1 C4A     -0.086000
      3 C4         -4.9290   -5.4160   -1.0520 c3        1 C4A     -0.152000
      4 C5         -3.4560   -5.5410   -0.5860 c3        1 C4A     -0.160000
      5 C6         -2.6430   -4.5060   -1.2630 c3        1 C4A     -0.004000
      6 C3         -5.8600   -6.2980   -0.1010 c3        1 C4A     -0.202000
      7 C8         -1.6670   -4.1580   -3.5750 c1        1 C4A      0.386000
      8 O9         -2.1090   -2.9160   -3.6100 o         1 C4A     -0.392000
      9 N7         -2.0600   -5.0570   -2.4530 n2        1 C4A     -0.332000
     10 O10        -0.9730   -4.6310   -4.5830 os        1 C4A     -0.280000
     11 C11        -0.5090   -3.6060   -5.4910 c3        1 C4A      0.000000
     12 C12         0.5660   -4.1930   -6.4210 c3        1 C4A     -0.221000
     13 O14        -0.5600   -4.7340   -0.0600 o         1 C4A     -0.236000
     14 C15        -1.5710   -2.6530    0.3210 c1        1 C4A     -0.156000
     15 N16        -1.8960   -1.5280   -0.2980 n2        1 C4A      0.001000
     16 O17        -1.7610   -0.5130    0.5840 os        1 C4A     -0.076000
     17 C18        -1.3560   -1.0290    1.7330 c1        1 C4A      0.024000
     18 C19        -1.0810   -0.2430    3.0640 c2        1 C4A     -0.057000
     19 C20        -0.4180    1.0910    2.7490 c2        1 C4A     -0.073000
     20 C21         0.9530    1.1370    2.4120 c2        1 C4A     -0.116000
     21 C22         1.5640    2.3530    2.1600 c1        1 C4A     -0.104000
     22 C23         0.8150    3.5520    2.2390 c1        1 C4A     -0.109000
     23 C24        -0.5340    3.5040    2.5710 c1        1 C4A     -0.079000
     24 C25        -1.1540    2.2630    2.8280 c1        1 C4A     -0.123000
     25 C26         1.4770    4.8950    1.9460 c2        1 C4A      0.347000
     26 O27         0.7870    5.9800    2.0250 o         1 C4A     -0.362000
     27 N28         2.9270    4.9550    1.5210 n         1 C4A     -0.377000
     28 C29         3.5260    6.2440    1.2130 c3        1 C4A      0.024000
     29 C30         4.3360    6.7210    2.3950 c3        1 C4A     -0.138000
     30 C31         5.7910    6.9030    1.9210 c2        1 C4A     -0.082000
     31 C32         5.8290    6.6410    0.5300 c2        1 C4A     -0.082000
     32 C33         4.4150    6.1230    0.0860 c3        1 C4A     -0.138000
     33 C34         6.9730    6.8530   -0.1720 c1        1 C4A     -0.116000
     34 C35         8.1250    7.3340    0.4770 c1        1 C4A     -0.130000
     35 C36         8.0950    7.5990    1.8670 c1        1 C4A     -0.130000
     36 C37         6.9470    7.3870    2.5790 c1        1 C4A     -0.116000
     37 N38        -1.2380   -2.3540    1.5700 n2        1 C4A     -0.119000
     38 C13        -1.4980   -4.0130   -0.3010 c1        1 C4A      0.283000
     39 HN11       -8.0800   -6.5100    1.2820 hn        1 C4A      0.140000
     40 HN12       -7.9970   -7.6410    0.4260 hn        1 C4A      0.140000
     41 H21A       -7.5960   -5.1560   -0.5230 h1        1 C4A      0.093000
     42 H22A       -7.4730   -6.5090   -1.4300 h1        1 C4A      0.093000
     43 H41        -5.2240   -4.4210   -1.0020 hc        1 C4A      0.093000
     44 H42        -5.0090   -5.7360   -1.9830 hc        1 C4A      0.093000
     45 H51        -3.1240   -6.4040   -0.8090 hc        1 C4A      0.099500
     46 H52        -3.4110   -5.4160    0.3620 hc        1 C4A      0.099500
     47 H6         -3.1940   -3.7800   -1.4920 h1        1 C4A      0.157000
     48 H31        -5.7520   -6.0050    0.8140 hc        1 C4A      0.079000
     49 H32        -5.5950   -7.2600   -0.1760 hc        1 C4A      0.079000
     50 HN7        -1.8770   -5.8650   -2.4880 hn        1 C4A      0.244000
     51 H111       -0.1030   -2.8090   -4.9450 h1        1 C4A      0.095000
     52 H112       -1.2640   -3.2820   -6.0300 h1        1 C4A      0.095000
     53 H121        0.9370   -3.5000   -6.9480 hc        1 C4A      0.089000
     54 H122        1.2820   -4.6170   -5.8750 hc        1 C4A      0.089000
     55 H123        0.1560   -4.8740   -7.0170 hc        1 C4A      0.089000
     56 H191       -1.9840   -0.0710    3.5580 ha        1 C4A      0.129500
     57 H192       -0.4600   -0.7970    3.6660 ha        1 C4A      0.129500
     58 H21         1.4080    0.4140    2.3660 ha        1 C4A      0.153000
     59 H22         2.5830    2.3850    1.9070 ha        1 C4A      0.140000
     60 H24        -1.1190    4.4410    2.6290 ha        1 C4A      0.161000
     61 H25        -2.1340    2.2280    3.0700 ha        1 C4A      0.141000
     62 H28         3.3970    4.1650    1.3400 hn        1 C4A      0.226000
     63 H29         2.8150    6.8980    1.0060 h1        1 C4A      0.135000
     64 H301        3.9940    7.5550    2.6930 hc        1 C4A      0.101750
     65 H302        4.3080    6.0290    3.1080 hc        1 C4A      0.101750
     66 H331        4.4910    5.0940   -0.1960 hc        1 C4A      0.101750
     67 H332        4.0770    6.6950   -0.6550 hc        1 C4A      0.101750
     68 H34         6.9970    6.6580   -1.1960 ha        1 C4A      0.134000
     69 H35         8.8940    7.4730   -0.0010 ha        1 C4A      0.131000
     70 H36         8.8240    7.9010    2.2780 ha        1 C4A      0.131000
     71 H37         6.9270    7.5700    3.5350 ha        1 C4A      0.134000
@<TRIPOS>BOND
     1    1    2 1   
     2    1   39 1   
     3    1   40 1   
     4    2    6 1   
     5    2   41 1   
     6    2   42 1   
     7    3    4 1   
     8    3    6 1   
     9    3   43 1   
    10    3   44 1   
    11    4    5 1   
    12    4   45 1   
    13    4   46 1   
    14    5    9 1   
    15    5   38 1   
    16    5   47 1   
    17    6   48 1   
    18    6   49 1   
    19    7    8 1   
    20    7   10 1   
    21    9   50 1   
    22   10   11 1   
    23   11   12 1   
    24   11   51 1   
    25   11   52 1   
    26   12   53 1   
    27   12   54 1   
    28   12   55 1   
    29   13   38 1   
    30   14   15 1   
    31   14   37 1   
    32   15   16 1   
    33   16   17 1   
    34   17   37 1   
    35   18   19 1   
    36   18   56 1   
    37   18   57 1   
    38   19   20 1   
    39   19   24 1   
    40   20   21 1   
    41   20   58 1   
    42   21   59 1   
    43   22   23 1   
    44   22   25 1   
    45   23   60 1   
    46   24   61 1   
    47   25   26 1   
    48   25   27 1   
    49   27   28 1   
    50   27   62 1   
    51   28   29 1   
    52   28   32 1   
    53   28   63 1   
    54   29   30 1   
    55   29   64 1   
    56   29   65 1   
    57   30   31 1   
    58   30   36 1   
    59   31   32 1   
    60   31   33 1   
    61   32   66 1   
    62   32   67 1   
    63   33   68 1   
    64   34   35 1   
    65   34   69 1   
    66   35   70 1   
    67   36   71 1   
@<TRIPOS>SUBSTRUCTURE
     1 C4A         1 TEMP              0 ****  ****    0 ROOT
