@<TRIPOS>MOLECULE
C4A
   71    74     1     0     0
SMALL
bcc


@<TRIPOS>ATOM
      1 N1          9.5310   -0.1230   -2.7560 n3        1 C4A     -0.916800
      2 C2          8.2030    0.2710   -2.3490 c3        1 C4A      0.159800
      3 C4          6.3320    0.0290   -0.7200 c3        1 C4A     -0.077400
      4 C5          5.8300   -0.6940    0.5110 c3        1 C4A     -0.081400
      5 C6          4.3870   -0.2860    0.8600 c3        1 C4A      0.023700
      6 C3          7.7040   -0.4770   -1.1140 c3        1 C4A     -0.084400
      7 O9          2.3730    1.6240    0.0340 o         1 C4A     -0.585000
      8 N7          4.2950    1.0870    1.2990 n         1 C4A     -0.521900
      9 O10         3.0910    3.0090    1.6730 os        1 C4A     -0.440900
     10 C11         2.0460    3.9060    1.2450 c3        1 C4A      0.151400
     11 C12         2.1310    5.1020    2.1610 c3        1 C4A     -0.103100
     12 C15         3.1030   -2.4170    1.4010 cc        1 C4A      0.459500
     13 N16         3.4880   -3.2890    0.4330 nd        1 C4A     -0.337300
     14 O17         2.5090   -4.1440    0.2740 os        1 C4A     -0.134100
     15 C18         1.4490   -3.8000    1.1730 cd        1 C4A      0.511700
     16 C19         0.2420   -4.6580    1.1420 c3        1 C4A     -0.065400
     17 C20        -0.9570   -3.9090    0.6680 ca        1 C4A     -0.082300
     18 C21        -1.5540   -4.2430   -0.5520 ca        1 C4A     -0.118500
     19 C22        -2.6890   -3.5620   -0.9860 ca        1 C4A     -0.091500
     20 C23        -3.2280   -2.5320   -0.2070 ca        1 C4A     -0.129600
     21 C24        -2.6380   -2.2020    1.0170 ca        1 C4A     -0.091500
     22 C25        -1.5080   -2.8910    1.4530 ca        1 C4A     -0.118500
     23 C26        -4.4480   -1.8340   -0.7100 c         1 C4A      0.672700
     24 O27        -5.3620   -2.4590   -1.2860 o         1 C4A     -0.602100
     25 N28        -4.5130   -0.4690   -0.5170 n         1 C4A     -0.565900
     26 C29        -5.6090    0.3360   -0.9880 c3        1 C4A      0.100700
     27 C30        -6.3140    1.1360    0.1510 c3        1 C4A     -0.052100
     28 C31        -6.3510    2.5470   -0.3190 ca        1 C4A     -0.088800
     29 C32        -5.7150    2.6890   -1.5720 ca        1 C4A     -0.088800
     30 C33        -5.1890    1.3870   -2.0630 c3        1 C4A     -0.052100
     31 C34        -5.6380    3.9290   -2.1880 ca        1 C4A     -0.116500
     32 C35        -6.2050    5.0370   -1.5450 ca        1 C4A     -0.130000
     33 C36        -6.8330    4.8970   -0.3090 ca        1 C4A     -0.130000
     34 C37        -6.9110    3.6460    0.3150 ca        1 C4A     -0.116500
     35 N38         1.8020   -2.7330    1.8870 nc        1 C4A     -0.647000
     36 C13         3.8900   -1.2700    1.9280 c         1 C4A      0.483600
     37 HN11        9.5990   -1.1160   -2.8540 hn        1 C4A      0.348800
     38 HN12        9.7710    0.3110   -3.6250 hn        1 C4A      0.348800
     39 H21A        7.4390    0.1320   -3.1720 h1        1 C4A      0.025700
     40 H22A        8.2380    1.3740   -2.1160 h1        1 C4A      0.025700
     41 H41         5.6130   -0.1250   -1.5680 hc        1 C4A      0.051700
     42 H42         6.3820    1.1320   -0.5220 hc        1 C4A      0.051700
     43 H51         6.5090   -0.4890    1.3800 hc        1 C4A      0.062200
     44 H52         5.8400   -1.8010    0.3250 hc        1 C4A      0.062200
     45 H6          3.7410   -0.3990   -0.0650 h1        1 C4A      0.114700
     46 H31         8.4210   -0.3310   -0.2640 hc        1 C4A      0.048200
     47 H32         7.6540   -1.5780   -1.3250 hc        1 C4A      0.048200
     48 HN7         4.7620    1.3240    2.1470 hn        1 C4A      0.332500
     49 H111        1.0620    3.3760    1.3310 h1        1 C4A      0.054700
     50 H112        2.2250    4.1810    0.1730 h1        1 C4A      0.054700
     51 H121        1.3360    5.8320    1.8760 hc        1 C4A      0.050367
     52 H122        1.9820    4.7940    3.2240 hc        1 C4A      0.050367
     53 H123        3.1290    5.5940    2.0750 hc        1 C4A      0.050367
     54 H191        0.4500   -5.5390    0.4740 hc        1 C4A      0.091200
     55 H192        0.0580   -5.0470    2.1830 hc        1 C4A      0.091200
     56 H21        -1.1310   -5.0480   -1.1740 ha        1 C4A      0.147000
     57 H22        -3.1750   -3.8320   -1.9370 ha        1 C4A      0.150000
     58 H24        -3.0660   -1.4110    1.6530 ha        1 C4A      0.150000
     59 H25        -1.0420   -2.6270    2.4160 ha        1 C4A      0.147000
     60 H28        -3.7400    0.0030   -0.1140 hn        1 C4A      0.314500
     61 H29        -6.3690   -0.3600   -1.4530 h1        1 C4A      0.094700
     62 H301       -7.3460    0.7340    0.3070 hc        1 C4A      0.062950
     63 H302       -5.7700    1.0600    1.1260 hc        1 C4A      0.062950
     64 H331       -4.0790    1.4360   -2.2010 hc        1 C4A      0.062950
     65 H332       -5.6410    1.1140   -3.0500 hc        1 C4A      0.062950
     66 H34        -5.1450    4.0450   -3.1630 ha        1 C4A      0.134000
     67 H35        -6.1520    6.0260   -2.0230 ha        1 C4A      0.131000
     68 H36        -7.2740    5.7760    0.1830 ha        1 C4A      0.131000
     69 H37        -7.4090    3.5410    1.2890 ha        1 C4A      0.134000
     70 C8          3.1960    1.8470    0.9390 c         1 C4A      0.734100
     71 O14         4.1110   -1.1390    3.1280 o         1 C4A     -0.473100
@<TRIPOS>BOND
     1    1    2 1   
     2    1   37 1   
     3    1   38 1   
     4    2    6 1   
     5    2   39 1   
     6    2   40 1   
     7    3    4 1   
     8    3    6 1   
     9    3   41 1   
    10    3   42 1   
    11    4    5 1   
    12    4   43 1   
    13    4   44 1   
    14    5    8 1   
    15    5   36 1   
    16    5   45 1   
    17    6   46 1   
    18    6   47 1   
    19    7   70 2   
    20    8   48 1   
    21    8   70 1   
    22    9   10 1   
    23    9   70 1   
    24   10   11 1   
    25   10   49 1   
    26   10   50 1   
    27   11   51 1   
    28   11   52 1   
    29   11   53 1   
    30   12   13 2   
    31   12   35 1   
    32   12   36 1   
    33   13   14 1   
    34   14   15 1   
    35   15   16 1   
    36   15   35 2   
    37   16   17 1   
    38   16   54 1   
    39   16   55 1   
    40   17   18 ar  
    41   17   22 ar  
    42   18   19 ar  
    43   18   56 1   
    44   19   20 ar  
    45   19   57 1   
    46   20   21 ar  
    47   20   23 1   
    48   21   22 ar  
    49   21   58 1   
    50   22   59 1   
    51   23   24 2   
    52   23   25 1   
    53   25   26 1   
    54   25   60 1   
    55   26   27 1   
    56   26   30 1   
    57   26   61 1   
    58   27   28 1   
    59   27   62 1   
    60   27   63 1   
    61   28   29 ar  
    62   28   34 ar  
    63   29   30 1   
    64   29   31 ar  
    65   30   64 1   
    66   30   65 1   
    67   31   32 ar  
    68   31   66 1   
    69   32   33 ar  
    70   32   67 1   
    71   33   34 ar  
    72   33   68 1   
    73   34   69 1   
    74   36   71 2   
@<TRIPOS>SUBSTRUCTURE
     1 C4A         1 TEMP              0 ****  ****    0 ROOT
