@<TRIPOS>MOLECULE
C4B
   33    34     1     0     0
SMALL
bcc


@<TRIPOS>ATOM
      1 C1'         0.3220   -0.0020   -0.0160 c3        1 C4B      0.284500
      2 C2'         1.8510    0.2320    0.1110 c3        1 C4B      0.092100
      3 O2'         2.5850   -0.7850   -0.5320 oh        1 C4B     -0.598800
      4 C3'         2.1920    0.1490    1.6100 c3        1 C4B      0.104100
      5 O3'         3.5590    0.4400    1.8300 oh        1 C4B     -0.602800
      6 C4'         1.3880    1.2160    2.3740 c3        1 C4B      0.120100
      7 O4'         1.5410    1.0430    3.7720 oh        1 C4B     -0.592800
      8 C5'        -0.1110    1.0690    2.0670 c3        1 C4B      0.107100
      9 O5'        -0.3350    1.0960    0.6530 os        1 C4B     -0.450600
     10 C6'        -0.8980    2.2570    2.6310 c3        1 C4B      0.139400
     11 O6'        -2.2880    2.0340    2.5540 oh        1 C4B     -0.590800
     12 N1         -0.2180   -0.0720   -1.3670 n         1 C4B     -0.474400
     13 C2         -1.5300   -0.6260   -1.4860 c         1 C4B      0.826000
     14 O2         -2.0300   -1.3190   -0.5820 o         1 C4B     -0.612000
     15 N3         -2.2460   -0.4060   -2.6750 n         1 C4B     -0.589500
     16 C4         -1.7440    0.3690   -3.7340 c         1 C4B      0.821500
     17 O4         -2.4120    0.5760   -4.7630 o         1 C4B     -0.600500
     18 N5         -0.4510    0.9000   -3.5810 n         1 C4B     -0.589500
     19 C6          0.3320    0.6850   -2.4330 c         1 C4B      0.826000
     20 O6          1.5040    1.1150   -2.4160 o         1 C4B     -0.612000
     21 H1'         0.0430   -0.9780    0.4920 h2        1 C4B      0.104700
     22 H2'         2.1280    1.2500   -0.2810 h1        1 C4B      0.094700
     23 HO2'        2.6770   -0.5240   -1.4600 ho        1 C4B      0.432000
     24 H3'         1.9580   -0.8790    2.0060 h1        1 C4B      0.066700
     25 HO3'        4.0650   -0.1730    1.2790 ho        1 C4B      0.429000
     26 H4'         1.7500    2.2390    2.0740 h1        1 C4B      0.064700
     27 HO4'        2.4920    1.0530    3.9450 ho        1 C4B      0.427000
     28 H5'        -0.5030    0.1050    2.4940 h1        1 C4B      0.080700
     29 H6'        -0.6180    3.1960    2.0840 h1        1 C4B      0.066200
     30 H6'A       -0.6690    2.3560    3.7260 h1        1 C4B      0.066200
     31 HO6'       -2.5040    1.8980    1.6220 ho        1 C4B      0.409000
     32 HN3        -3.1540   -0.8100   -2.7650 hn        1 C4B      0.377000
     33 HN5        -0.0570    1.4250   -4.3330 hn        1 C4B      0.377000
@<TRIPOS>BOND
     1    1    2 1   
     2    1    9 1   
     3    1   12 1   
     4    1   21 1   
     5    2    3 1   
     6    2    4 1   
     7    2   22 1   
     8    3   23 1   
     9    4    5 1   
    10    4    6 1   
    11    4   24 1   
    12    5   25 1   
    13    6    7 1   
    14    6    8 1   
    15    6   26 1   
    16    7   27 1   
    17    8    9 1   
    18    8   10 1   
    19    8   28 1   
    20   10   11 1   
    21   10   29 1   
    22   10   30 1   
    23   11   31 1   
    24   12   13 1   
    25   12   19 1   
    26   13   14 2   
    27   13   15 1   
    28   15   16 1   
    29   15   32 1   
    30   16   17 2   
    31   16   18 1   
    32   18   19 1   
    33   18   33 1   
    34   19   20 2   
@<TRIPOS>SUBSTRUCTURE
     1 C4B         1 TEMP              0 ****  ****    0 ROOT
