@<TRIPOS>MOLECULE
C4B
   33    34     1     0     0
SMALL
bcc


@<TRIPOS>ATOM
      1 C1'         0.2350   -0.2710    0.4460 c3        1 C4B      0.324500
      2 C2'         0.8460   -1.5140   -0.2620 c3        1 C4B      0.114100
      3 O2'         0.1800   -2.6520    0.2530 oh        1 C4B     -0.591800
      4 C3'         2.3420   -1.5690    0.0920 c3        1 C4B      0.070100
      5 O3'         2.8810   -2.6670   -0.6270 oh        1 C4B     -0.600800
      6 C4'         3.0200   -0.2570   -0.3340 c3        1 C4B      0.082100
      7 O4'         4.3690   -0.2510    0.1020 oh        1 C4B     -0.591800
      8 C5'         2.3070    0.9190    0.3490 c3        1 C4B      0.110100
      9 O5'         0.9220    0.9140   -0.0030 os        1 C4B     -0.437600
     10 C6'         2.8510    2.2600   -0.1530 c3        1 C4B      0.139400
     11 O6'         2.3240    3.3350    0.5900 oh        1 C4B     -0.590800
     12 N1         -1.1770   -0.0610    0.1710 n         1 C4B     -0.477400
     13 C2         -2.0400    0.1980    1.2710 c         1 C4B      0.832000
     14 O2         -1.6410    0.1620    2.4500 o         1 C4B     -0.605500
     15 N3         -3.3900    0.4850    0.9990 n         1 C4B     -0.590000
     16 C4         -3.9020    0.5750   -0.3060 c         1 C4B      0.821500
     17 O4         -5.1030    0.8320   -0.5140 o         1 C4B     -0.608500
     18 N5         -3.0020    0.3700   -1.3640 n         1 C4B     -0.590000
     19 C6         -1.6410    0.0630   -1.1640 c         1 C4B      0.832000
     20 O6         -0.9060   -0.1050   -2.1540 o         1 C4B     -0.605500
     21 H1'         0.3640   -0.3830    1.5680 h2        1 C4B      0.109700
     22 H2'         0.7190   -1.4500   -1.3780 h1        1 C4B      0.098700
     23 HO2'        0.5970   -3.4180   -0.1650 ho        1 C4B      0.427000
     24 H3'         2.4740   -1.7290    1.1980 h1        1 C4B      0.066700
     25 HO3'        3.7420   -2.8570   -0.2350 ho        1 C4B      0.412000
     26 H4'         2.9610   -0.1460   -1.4520 h1        1 C4B      0.071700
     27 HO4'        4.8660   -0.7730   -0.5390 ho        1 C4B      0.410000
     28 H5'         2.4170    0.8470    1.4660 h1        1 C4B      0.075700
     29 H6'         3.9610    2.2890    0.0210 h1        1 C4B      0.065700
     30 H6'A        2.6200    2.3830   -1.2440 h1        1 C4B      0.065700
     31 HO6'        1.3650    3.3210    0.4700 ho        1 C4B      0.411000
     32 HN3        -4.0080    0.6280    1.7690 hn        1 C4B      0.375000
     33 HN5        -3.3410    0.4310   -2.3000 hn        1 C4B      0.375000
@<TRIPOS>BOND
     1    1    2 1   
     2    1    9 1   
     3    1   12 1   
     4    1   21 1   
     5    2    3 1   
     6    2    4 1   
     7    2   22 1   
     8    3   23 1   
     9    4    5 1   
    10    4    6 1   
    11    4   24 1   
    12    5   25 1   
    13    6    7 1   
    14    6    8 1   
    15    6   26 1   
    16    7   27 1   
    17    8    9 1   
    18    8   10 1   
    19    8   28 1   
    20   10   11 1   
    21   10   29 1   
    22   10   30 1   
    23   11   31 1   
    24   12   13 1   
    25   12   19 1   
    26   13   14 2   
    27   13   15 1   
    28   15   16 1   
    29   15   32 1   
    30   16   17 2   
    31   16   18 1   
    32   18   19 1   
    33   18   33 1   
    34   19   20 2   
@<TRIPOS>SUBSTRUCTURE
     1 C4B         1 TEMP              0 ****  ****    0 ROOT
