@<TRIPOS>MOLECULE
C4B
   33    34     1     0     0
SMALL
bcc


@<TRIPOS>ATOM
      1 C1'        -0.2470   -0.6240   -0.1730 c3        1 C4B      0.322500
      2 C2'         1.2670   -0.6440   -0.1510 c3        1 C4B      0.115100
      3 O2'         1.7280   -1.8590   -0.8140 oh        1 C4B     -0.592800
      4 C3'         1.8060   -0.6190    1.2110 c3        1 C4B      0.074100
      5 O3'         3.2600   -0.4530    1.1390 oh        1 C4B     -0.600800
      6 C4'         1.2330    0.4930    2.0240 c3        1 C4B      0.075100
      7 O4'         1.6690    0.3450    3.3930 oh        1 C4B     -0.586800
      8 C5'        -0.2910    0.5110    1.9920 c3        1 C4B      0.078100
      9 O5'        -0.8150    0.4840    0.6500 os        1 C4B     -0.430600
     10 C6'        -0.7920    1.7950    2.6990 c3        1 C4B      0.136400
     11 O6'        -2.2120    1.6800    2.9610 oh        1 C4B     -0.591800
     12 N1         -0.6890   -0.4710   -1.5220 n         1 C4B     -0.476400
     13 C2         -0.7520    0.8340   -2.1060 c         1 C4B      0.832500
     14 O2         -0.3720    1.7970   -1.4800 o         1 C4B     -0.606000
     15 N3         -1.2310    0.9940   -3.4300 n         1 C4B     -0.590000
     16 C4         -1.7460   -0.1240   -4.1390 c         1 C4B      0.821500
     17 O4         -2.3070    0.0390   -5.2010 o         1 C4B     -0.608500
     18 N5         -1.6860   -1.4230   -3.5600 n         1 C4B     -0.590000
     19 C6         -1.2010   -1.5870   -2.2300 c         1 C4B      0.832500
     20 O6         -1.3030   -2.6670   -1.6740 o         1 C4B     -0.606000
     21 H1'        -0.5770   -1.4710    0.1710 h2        1 C4B      0.106700
     22 H2'         1.6000    0.1260   -0.6340 h1        1 C4B      0.099700
     23 HO2'        2.3570   -1.6630   -1.3700 ho        1 C4B      0.430000
     24 H3'         1.6090   -1.4460    1.6360 h1        1 C4B      0.051700
     25 HO3'        3.6670   -1.1190    1.6200 ho        1 C4B      0.427000
     26 H4'         1.5700    1.3550    1.6690 h1        1 C4B      0.111700
     27 HO4'        1.7980   -0.5400    3.5770 ho        1 C4B      0.406000
     28 H5'        -0.6290   -0.2720    2.4790 h1        1 C4B      0.059700
     29 H6'        -0.6230    2.5980    2.1040 h1        1 C4B      0.068700
     30 H6'A       -0.3150    1.9100    3.5420 h1        1 C4B      0.068700
     31 HO6'       -2.4700    2.3440    3.4780 ho        1 C4B      0.412000
     32 HN3        -1.2720    1.8610   -3.8170 hn        1 C4B      0.375000
     33 HN5        -2.0360   -2.1830   -4.0430 hn        1 C4B      0.375000
@<TRIPOS>BOND
     1    1    2 1   
     2    1    9 1   
     3    1   12 1   
     4    1   21 1   
     5    2    3 1   
     6    2    4 1   
     7    2   22 1   
     8    3   23 1   
     9    4    5 1   
    10    4    6 1   
    11    4   24 1   
    12    5   25 1   
    13    6    7 1   
    14    6    8 1   
    15    6   26 1   
    16    7   27 1   
    17    8    9 1   
    18    8   10 1   
    19    8   28 1   
    20   10   11 1   
    21   10   29 1   
    22   10   30 1   
    23   11   31 1   
    24   12   13 1   
    25   12   19 1   
    26   13   14 2   
    27   13   15 1   
    28   15   16 1   
    29   15   32 1   
    30   16   17 2   
    31   16   18 1   
    32   18   19 1   
    33   18   33 1   
    34   19   20 2   
@<TRIPOS>SUBSTRUCTURE
     1 C4B         1 TEMP              0 ****  ****    0 ROOT
