@<TRIPOS>MOLECULE
C4B
   33    34     1     0     0
SMALL
bcc


@<TRIPOS>ATOM
      1 C1'         0.3140   -0.0410   -0.0480 c3        1 C4B      0.276500
      2 C2'         1.8540    0.0710    0.1280 c3        1 C4B      0.078100
      3 O2'         2.5080   -1.0730   -0.3840 oh        1 C4B     -0.595800
      4 C3'         2.1480    0.0890    1.6390 c3        1 C4B      0.108100
      5 O3'         3.5240    0.3220    1.8780 oh        1 C4B     -0.603800
      6 C4'         1.3860    1.2510    2.3000 c3        1 C4B      0.117100
      7 O4'         1.5260    1.1970    3.7070 oh        1 C4B     -0.593800
      8 C5'        -0.1150    1.1260    1.9840 c3        1 C4B      0.149100
      9 O5'        -0.3020    1.1070    0.5650 os        1 C4B     -0.431600
     10 C6'        -0.8790    2.3510    2.4920 c3        1 C4B      0.135400
     11 O6'        -2.2200    1.9410    2.6960 oh        1 C4B     -0.596800
     12 N1         -0.1400   -0.0830   -1.4340 n         1 C4B     -0.473400
     13 C2         -1.2660   -0.9190   -1.7110 c         1 C4B      0.821000
     14 O2         -1.5890   -1.8540   -0.9560 o         1 C4B     -0.602000
     15 N3         -1.9850   -0.7060   -2.8990 n         1 C4B     -0.590500
     16 C4         -1.6960    0.3440   -3.7870 c         1 C4B      0.821500
     17 O4         -2.3750    0.5310   -4.8140 o         1 C4B     -0.605500
     18 N5         -0.6040    1.1690   -3.4690 n         1 C4B     -0.590500
     19 C6          0.1750    0.9950   -2.3110 c         1 C4B      0.821000
     20 O6          1.1500    1.7460   -2.1220 o         1 C4B     -0.602000
     21 H1'        -0.0470   -0.9890    0.4600 h2        1 C4B      0.109700
     22 H2'         2.2460    1.0120   -0.3500 h1        1 C4B      0.100700
     23 HO2'        2.5230   -0.9850   -1.3450 ho        1 C4B      0.419000
     24 H3'         1.8450   -0.8920    2.1010 h1        1 C4B      0.066700
     25 HO3'        4.0070   -0.3680    1.4030 ho        1 C4B      0.428000
     26 H4'         1.7880    2.2290    1.9120 h1        1 C4B      0.065700
     27 HO4'        2.4760    1.1660    3.8860 ho        1 C4B      0.427000
     28 H5'        -0.5370    0.1890    2.4410 h1        1 C4B      0.084700
     29 H6'        -0.8300    3.1810    1.7380 h1        1 C4B      0.049700
     30 H6'A       -0.4250    2.6820    3.4650 h1        1 C4B      0.049700
     31 HO6'       -2.7170    2.7350    2.9250 ho        1 C4B      0.405000
     32 HN3        -2.7550   -1.3080   -3.1020 hn        1 C4B      0.375500
     33 HN5        -0.3730    1.9170   -4.0880 hn        1 C4B      0.375500
@<TRIPOS>BOND
     1    1    2 1   
     2    1    9 1   
     3    1   12 1   
     4    1   21 1   
     5    2    3 1   
     6    2    4 1   
     7    2   22 1   
     8    3   23 1   
     9    4    5 1   
    10    4    6 1   
    11    4   24 1   
    12    5   25 1   
    13    6    7 1   
    14    6    8 1   
    15    6   26 1   
    16    7   27 1   
    17    8    9 1   
    18    8   10 1   
    19    8   28 1   
    20   10   11 1   
    21   10   29 1   
    22   10   30 1   
    23   11   31 1   
    24   12   13 1   
    25   12   19 1   
    26   13   14 2   
    27   13   15 1   
    28   15   16 1   
    29   15   32 1   
    30   16   17 2   
    31   16   18 1   
    32   18   19 1   
    33   18   33 1   
    34   19   20 2   
@<TRIPOS>SUBSTRUCTURE
     1 C4B         1 TEMP              0 ****  ****    0 ROOT
