@<TRIPOS>MOLECULE
C4B
   33    34     1     0     0
SMALL
bcc


@<TRIPOS>ATOM
      1 C1'         0.1620    0.0140   -0.0350 c3        1 C4B      0.324500
      2 C2'         1.7160    0.0720    0.0090 c3        1 C4B      0.114100
      3 O2'         2.1920   -1.0730   -0.6700 oh        1 C4B     -0.591800
      4 C3'         2.1450    0.0330    1.4860 c3        1 C4B      0.070100
      5 O3'         3.5580    0.1620    1.4930 oh        1 C4B     -0.600800
      6 C4'         1.4910    1.1980    2.2440 c3        1 C4B      0.082100
      7 O4'         1.7810    1.0930    3.6280 oh        1 C4B     -0.591800
      8 C5'        -0.0340    1.1060    2.0830 c3        1 C4B      0.110100
      9 O5'        -0.3750    1.1340    0.6950 os        1 C4B     -0.437600
     10 C6'        -0.7280    2.3250    2.6990 c3        1 C4B      0.139400
     11 O6'        -2.1280    2.1660    2.7060 oh        1 C4B     -0.590800
     12 N1         -0.4000    0.0860   -1.3750 n         1 C4B     -0.477400
     13 C2         -1.4010   -0.8590   -1.7300 c         1 C4B      0.832000
     14 O2         -1.7400   -1.7840   -0.9680 o         1 C4B     -0.605500
     15 N3         -2.0070   -0.7380   -2.9940 ns        1 C4B     -0.590000
     16 C4         -1.6980    0.2980   -3.8910 c         1 C4B      0.821500
     17 O4         -2.2510    0.3780   -5.0040 o         1 C4B     -0.608500
     18 N5         -0.7450    1.2430   -3.4760 ns        1 C4B     -0.590000
     19 C6         -0.0890    1.1750   -2.2310 c         1 C4B      0.832000
     20 O6          0.7440    2.0500   -1.9350 o         1 C4B     -0.605500
     21 H1'        -0.1860   -0.9540    0.4430 h2        1 C4B      0.109700
     22 H2'         2.1020    1.0110   -0.4760 h1        1 C4B      0.098700
     23 HO2'        3.1570   -1.0450   -0.5990 ho        1 C4B      0.427000
     24 H3'         1.8450   -0.9470    1.9510 h1        1 C4B      0.066700
     25 HO3'        3.8550   -0.1010    2.3730 ho        1 C4B      0.412000
     26 H4'         1.8630    2.1750    1.8300 h1        1 C4B      0.071700
     27 HO4'        2.6700    1.4500    3.7480 ho        1 C4B      0.410000
     28 H5'        -0.4200    0.1600    2.5510 h1        1 C4B      0.075700
     29 H6'        -0.4280    2.4050    3.7790 h1        1 C4B      0.065700
     30 H6'A       -0.4380    3.2540    2.1400 h1        1 C4B      0.065700
     31 HO6'       -2.4080    2.0770    1.7860 ho        1 C4B      0.411000
     32 HN3        -2.6810   -1.4220   -3.2630 hn        1 C4B      0.375000
     33 HN5        -0.5110    1.9910   -4.0930 hn        1 C4B      0.375000
@<TRIPOS>BOND
     1    1    2 1   
     2    1    9 1   
     3    1   12 1   
     4    1   21 1   
     5    2    3 1   
     6    2    4 1   
     7    2   22 1   
     8    3   23 1   
     9    4    5 1   
    10    4    6 1   
    11    4   24 1   
    12    5   25 1   
    13    6    7 1   
    14    6    8 1   
    15    6   26 1   
    16    7   27 1   
    17    8    9 1   
    18    8   10 1   
    19    8   28 1   
    20   10   11 1   
    21   10   29 1   
    22   10   30 1   
    23   11   31 1   
    24   12   13 1   
    25   12   19 1   
    26   13   14 2   
    27   13   15 1   
    28   15   16 1   
    29   15   32 1   
    30   16   17 2   
    31   16   18 1   
    32   18   19 1   
    33   18   33 1   
    34   19   20 2   
@<TRIPOS>SUBSTRUCTURE
     1 C4B         1 TEMP              0 ****  ****    0 ROOT
