@<TRIPOS>MOLECULE
C4C
   41    42     1     0     0
SMALL
bcc


@<TRIPOS>ATOM
      1 C1         -0.0070   -1.7290   -0.6160 c3        1 C4C      0.089100
      2 N3          1.1800   -0.8460   -0.6970 nx        1 C4C     -0.707400
      3 C2          0.8000    0.5620   -0.4280 c3        1 C4C      0.089100
      4 C3          2.2550   -1.3040    0.2350 c3        1 C4C      0.060800
      5 C4          3.6830   -0.9280   -0.2220 c3        1 C4C      0.198800
      6 N1          4.3220   -1.7300   -1.2250 nh        1 C4C     -0.774300
      7 C12         4.0340   -1.4900   -2.5990 ca        1 C4C      0.628200
      8 C13         5.0660   -1.7110   -3.5590 ca        1 C4C     -0.233300
      9 C14         4.8200   -1.4210   -4.8980 ca        1 C4C     -0.054000
     10 C15         3.5740   -0.9160   -5.2770 ca        1 C4C     -0.240300
     11 C16         2.6090   -0.7210   -4.2780 ca        1 C4C      0.430200
     12 N2          2.8130   -1.0030   -2.9790 nb        1 C4C     -0.813000
     13 C5          4.7190   -3.0780   -0.8630 c3        1 C4C      0.242100
     14 C6          3.6360   -4.1150   -0.7710 ca        1 C4C     -0.153300
     15 C11         2.9680   -4.5460   -1.9220 ca        1 C4C     -0.119500
     16 C10         2.0060   -5.5500   -1.8490 ca        1 C4C     -0.126000
     17 C7          3.3390   -4.7120    0.4590 ca        1 C4C     -0.119500
     18 C8          2.3810   -5.7200    0.5430 ca        1 C4C     -0.126000
     19 C9          1.7100   -6.1350   -0.6130 ca        1 C4C      0.022400
     20 Cl1         0.5400   -7.3550   -0.5160 cl        1 C4C     -0.054400
     21 H11A        0.2800   -2.7670   -0.9340 hx        1 C4C      0.095867
     22 H12        -0.8050   -1.3380   -1.3010 hx        1 C4C      0.095867
     23 H13A       -0.3950   -1.7530    0.4360 hx        1 C4C      0.095867
     24 H21         1.7160    1.2090   -0.4760 hx        1 C4C      0.095867
     25 H22         0.3340    0.6470    0.5900 hx        1 C4C      0.095867
     26 H23         0.0640    0.9000   -1.2040 hx        1 C4C      0.095867
     27 H31         2.0700   -0.8400    1.2440 hx        1 C4C      0.103700
     28 H32         2.1810   -2.4270    0.3400 hx        1 C4C      0.103700
     29 H41         4.3200   -1.0040    0.7110 h1        1 C4C      0.085200
     30 H42         3.7010    0.1470   -0.5630 h1        1 C4C      0.085200
     31 H13         6.0510   -2.0880   -3.2440 ha        1 C4C      0.169000
     32 H14         5.6090   -1.5820   -5.6510 ha        1 C4C      0.166000
     33 H15         3.3500   -0.6720   -6.3250 ha        1 C4C      0.170000
     34 H16         1.6090   -0.3200   -4.5280 h4        1 C4C      0.026100
     35 H51         5.2520   -3.0050    0.1310 h1        1 C4C      0.080200
     36 H52         5.4730   -3.4300   -1.6270 h1        1 C4C      0.080200
     37 H11         3.2180   -4.1000   -2.8980 ha        1 C4C      0.143000
     38 H10         1.4960   -5.8940   -2.7630 ha        1 C4C      0.162000
     39 H7          3.8810   -4.4050    1.3680 ha        1 C4C      0.143000
     40 H8          2.1660   -6.1980    1.5130 ha        1 C4C      0.162000
     41 H311        1.5800   -0.8960   -1.6830 hn        1 C4C      0.509800
@<TRIPOS>BOND
     1    1    2 1   
     2    1   21 1   
     3    1   22 1   
     4    1   23 1   
     5    2    3 1   
     6    2    4 1   
     7    2   41 1   
     8    3   24 1   
     9    3   25 1   
    10    3   26 1   
    11    4    5 1   
    12    4   27 1   
    13    4   28 1   
    14    5    6 1   
    15    5   29 1   
    16    5   30 1   
    17    6    7 1   
    18    6   13 1   
    19    7    8 ar  
    20    7   12 ar  
    21    8    9 ar  
    22    8   31 1   
    23    9   10 ar  
    24    9   32 1   
    25   10   11 ar  
    26   10   33 1   
    27   11   12 ar  
    28   11   34 1   
    29   13   14 1   
    30   13   35 1   
    31   13   36 1   
    32   14   15 ar  
    33   14   17 ar  
    34   15   16 ar  
    35   15   37 1   
    36   16   19 ar  
    37   16   38 1   
    38   17   18 ar  
    39   17   39 1   
    40   18   19 ar  
    41   18   40 1   
    42   19   20 1   
@<TRIPOS>SUBSTRUCTURE
     1 C4C         1 TEMP              0 ****  ****    0 ROOT
