@<TRIPOS>MOLECULE
C4C
   40    35     1     0     0
SMALL
bcc


@<TRIPOS>ATOM
      1 C1         -1.5250    2.8530    2.8380 c3        1 C4C     -0.115500
      2 N3         -1.4700    2.6320    1.3960 n3        1 C4C     -0.271000
      3 C2         -0.6620    3.6760    0.7790 c3        1 C4C     -0.115500
      4 C3         -0.8740    1.3270    1.1290 c3        1 C4C     -0.096000
      5 C4         -1.7880    0.5310    0.2220 c3        1 C4C     -0.005000
      6 N1         -1.0610   -0.5860   -0.3400 n3        1 C4C     -0.288000
      7 C12        -0.8070   -1.7560    0.4690 c2        1 C4C      0.154000
      8 C13         0.4640   -2.2800    0.5320 c1        1 C4C     -0.247000
      9 C14         0.6830   -3.4700    1.1680 c1        1 C4C     -0.133500
     10 C15        -0.3750   -4.1520    1.7500 c1        1 C4C     -0.133500
     11 C16        -1.6450   -3.6320    1.6880 c1        1 C4C     -0.029000
     12 N2         -1.8660   -2.4380    1.0500 n2        1 C4C     -0.203000
     13 C5         -0.7940   -0.6240   -1.7600 c3        1 C4C      0.027000
     14 C6          0.7200   -0.3200   -2.0210 c1        1 C4C     -0.106000
     15 C11         1.5860   -1.3470   -2.3940 c1        1 C4C     -0.133500
     16 C10         2.9100   -1.0610   -2.7000 c1        1 C4C     -0.133500
     17 C7          1.1810    0.9830   -1.9580 c1        1 C4C     -0.111000
     18 C8          2.5080    1.2690   -2.2650 c1        1 C4C     -0.124000
     19 C9          3.3700    0.2500   -2.6360 c1        1 C4C     -0.058000
     20 CL1         4.9620    0.6400   -3.2280 cl        1 C4C     -0.014000
     21 H11A       -2.1240    2.1720    3.2580 h1        1 C4C      0.069667
     22 H12        -1.8620    3.7180    3.0110 h1        1 C4C      0.069667
     23 H13A       -0.6190    2.7710    3.2170 h1        1 C4C      0.069667
     24 H21         0.2240    3.5640    1.0250 h1        1 C4C      0.069667
     25 H22        -0.9780    4.5560    1.0830 h1        1 C4C      0.069667
     26 H23        -0.7390    3.6200   -0.1800 h1        1 C4C      0.069667
     27 H31        -0.0230    1.4460    0.7030 h1        1 C4C      0.086500
     28 H32        -0.7570    0.8640    1.9390 h1        1 C4C      0.086500
     29 H41        -2.1020    1.0870   -0.4790 h1        1 C4C      0.098500
     30 H42        -2.5500    0.1980    0.7400 h1        1 C4C      0.098500
     31 H13         1.2210   -1.7920    0.1160 ha        1 C4C      0.142000
     32 H14         1.5760   -3.8370    1.2110 ha        1 C4C      0.139750
     33 H15        -0.2190   -5.0020    2.2060 ha        1 C4C      0.139750
     34 H16        -2.4060   -4.1260    2.1070 ha        1 C4C      0.155000
     35 H51        -1.3600    0.0670   -2.2280 h1        1 C4C      0.099500
     36 H52        -1.0080   -1.4990   -2.1020 h1        1 C4C      0.099500
     37 H11         1.2460   -2.3080   -2.4420 ha        1 C4C      0.139750
     38 H10         3.5420   -1.8070   -2.9720 ha        1 C4C      0.139750
     39 H7          0.6010    1.6690   -1.7100 ha        1 C4C      0.143000
     40 H8          2.8170    2.1440   -2.2210 ha        1 C4C      0.148000
@<TRIPOS>BOND
     1    1    2 1   
     2    1   21 1   
     3    1   22 1   
     4    1   23 1   
     5    2    3 1   
     6    2    4 1   
     7    3   24 1   
     8    3   25 1   
     9    3   26 1   
    10    4    5 1   
    11    4   27 1   
    12    4   28 1   
    13    5    6 1   
    14    5   29 1   
    15    5   30 1   
    16    6    7 1   
    17    6   13 1   
    18    7    8 1   
    19    7   12 1   
    20    8   31 1   
    21    9   10 1   
    22    9   32 1   
    23   10   33 1   
    24   11   12 1   
    25   11   34 1   
    26   13   14 1   
    27   13   35 1   
    28   13   36 1   
    29   14   17 1   
    30   15   16 1   
    31   15   37 1   
    32   16   38 1   
    33   17   39 1   
    34   18   19 1   
    35   18   40 1   
@<TRIPOS>SUBSTRUCTURE
     1 C4C         1 TEMP              0 ****  ****    0 ROOT
