@<TRIPOS>MOLECULE
C4C
   42    43     1     0     0
SMALL
bcc


@<TRIPOS>ATOM
      1 C1          0.1160   -0.1790    0.8370 c3        1 C4C      0.078100
      2 N3          1.4940   -0.1240    0.2640 n4        1 C4C     -0.674400
      3 C2          2.5020   -0.0210    1.3560 c3        1 C4C      0.078100
      4 C3          1.7350   -1.3160   -0.6090 c3        1 C4C      0.071800
      5 C4          2.9450   -1.1350   -1.5470 c3        1 C4C      0.094800
      6 N1          3.1390   -2.2830   -2.4850 n4        1 C4C     -0.663100
      7 C12         4.0060   -1.8610   -3.6260 ca        1 C4C      0.427200
      8 C13         3.5590   -2.0820   -4.9430 ca        1 C4C     -0.195300
      9 C14         4.4220   -1.7120   -5.9870 ca        1 C4C     -0.063000
     10 C15         5.6600   -1.1530   -5.6880 ca        1 C4C     -0.167300
     11 C16         6.0110   -0.9680   -4.3290 ca        1 C4C      0.440200
     12 N2          5.2140   -1.3070   -3.3080 nb        1 C4C     -0.667000
     13 C5          3.7470   -3.5050   -1.8220 c3        1 C4C      0.179100
     14 C6          2.7450   -4.3050   -1.0680 ca        1 C4C     -0.215300
     15 C11         1.7240   -4.9810   -1.7500 ca        1 C4C     -0.108000
     16 C10         0.8520   -5.8180   -1.0620 ca        1 C4C     -0.117500
     17 C7          2.8990   -4.4940    0.3120 ca        1 C4C     -0.108000
     18 C8          2.0370   -5.3380    1.0050 ca        1 C4C     -0.117500
     19 C9          1.0050   -6.0000    0.3220 ca        1 C4C      0.055400
     20 CL1        -0.0370   -7.0230    1.1560 cl        1 C4C      0.007600
     21 H11A       -0.6400   -0.1600    0.0060 hx        1 C4C      0.118200
     22 H12        -0.0040   -1.1180    1.4420 hx        1 C4C      0.118200
     23 H13A       -0.0370    0.7170    1.5020 hx        1 C4C      0.118200
     24 H21         2.4350   -0.9240    2.0210 hx        1 C4C      0.118200
     25 H22         2.2910    0.9020    1.9650 hx        1 C4C      0.118200
     26 H23         3.5320    0.0540    0.9150 hx        1 C4C      0.118200
     27 H31         1.8940   -2.2190    0.0580 hx        1 C4C      0.127200
     28 H32         0.7970   -1.4880   -1.2170 hx        1 C4C      0.127200
     29 H41         3.8950   -1.0170   -0.9470 hx        1 C4C      0.123700
     30 H42         2.8070   -0.2030   -2.1740 hx        1 C4C      0.123700
     31 H13         2.5810   -2.5320   -5.1740 ha        1 C4C      0.169000
     32 H14         4.1100   -1.8720   -7.0350 ha        1 C4C      0.194000
     33 H15         6.3650   -0.8570   -6.4840 ha        1 C4C      0.200000
     34 H16         6.9880   -0.5250   -4.0430 h4        1 C4C      0.075100
     35 H51         4.1840   -4.1350   -2.6550 hx        1 C4C      0.125700
     36 H52         4.5940   -3.1590   -1.1630 hx        1 C4C      0.125700
     37 H11         1.6250   -4.8880   -2.8440 ha        1 C4C      0.143000
     38 H10         0.0580   -6.3590   -1.6060 ha        1 C4C      0.182500
     39 H7          3.7330   -4.0140    0.8500 ha        1 C4C      0.143000
     40 H8          2.1810   -5.5090    2.0860 ha        1 C4C      0.182500
     41 H311        1.5630    0.7260   -0.3160 hn        1 C4C      0.457800
     42 H111        2.2260   -2.5550   -2.8760 hn        1 C4C      0.451800
@<TRIPOS>BOND
     1    1    2 1   
     2    1   21 1   
     3    1   22 1   
     4    1   23 1   
     5    2    3 1   
     6    2    4 1   
     7    2   41 1   
     8    3   24 1   
     9    3   25 1   
    10    3   26 1   
    11    4    5 1   
    12    4   27 1   
    13    4   28 1   
    14    5    6 1   
    15    5   29 1   
    16    5   30 1   
    17    6    7 1   
    18    6   13 1   
    19    6   42 1   
    20    7    8 ar  
    21    7   12 ar  
    22    8    9 ar  
    23    8   31 1   
    24    9   10 ar  
    25    9   32 1   
    26   10   11 ar  
    27   10   33 1   
    28   11   12 ar  
    29   11   34 1   
    30   13   14 1   
    31   13   35 1   
    32   13   36 1   
    33   14   15 ar  
    34   14   17 ar  
    35   15   16 ar  
    36   15   37 1   
    37   16   19 ar  
    38   16   38 1   
    39   17   18 ar  
    40   17   39 1   
    41   18   19 ar  
    42   18   40 1   
    43   19   20 1   
@<TRIPOS>SUBSTRUCTURE
     1 C4C         1 TEMP              0 ****  ****    0 ROOT
