@<TRIPOS>MOLECULE
C4C
   41    42     1     0     0
SMALL
bcc


@<TRIPOS>ATOM
      1 C1         -0.5720   -0.7980   -0.3940 c3        1 C4C      0.080600
      2 N3          0.8650   -0.5700   -0.0850 n4        1 C4C     -0.673400
      3 C2          1.2200   -1.1890    1.2180 c3        1 C4C      0.080600
      4 C3          1.7220   -1.0890   -1.2040 c3        1 C4C      0.055800
      5 C4          3.1830   -0.5690   -1.1580 c3        1 C4C      0.202800
      6 N1          4.1910   -1.4240   -1.7210 nh        1 C4C     -0.739300
      7 C12         4.1780   -1.6180   -3.1420 ca        1 C4C      0.584200
      8 C13         5.4170   -1.8810   -3.7910 ca        1 C4C     -0.231300
      9 C14         5.4340   -2.0100   -5.1800 ca        1 C4C     -0.069000
     10 C15         4.2460   -1.8740   -5.8970 ca        1 C4C     -0.240300
     11 C16         3.0660   -1.6100   -5.1800 ca        1 C4C      0.419200
     12 N2          3.0100   -1.4890   -3.8440 nb        1 C4C     -0.746000
     13 C5          4.6200   -2.5590   -0.9250 c3        1 C4C      0.228100
     14 C6          3.6110   -3.6260   -0.6100 ca        1 C4C     -0.147300
     15 C11         3.0320   -4.3870   -1.6310 ca        1 C4C     -0.124500
     16 C10         2.1360   -5.4110   -1.3320 ca        1 C4C     -0.128500
     17 C7          3.2930   -3.9120    0.7230 ca        1 C4C     -0.124500
     18 C8          2.4000   -4.9360    1.0340 ca        1 C4C     -0.128500
     19 C9          1.8160   -5.6820    0.0040 ca        1 C4C      0.019400
     20 CL1         0.7240   -6.9210    0.3760 cl        1 C4C     -0.054400
     21 H11A       -0.8350   -0.2770   -1.3540 hx        1 C4C      0.104533
     22 H12        -1.2030   -0.3900    0.4400 hx        1 C4C      0.104533
     23 H13A       -0.7580   -1.9000   -0.5040 hx        1 C4C      0.104533
     24 H21         0.4690   -0.8850    1.9950 hx        1 C4C      0.104533
     25 H22         2.2420   -0.8440    1.5310 hx        1 C4C      0.104533
     26 H23         1.2300   -2.3100    1.1160 hx        1 C4C      0.104533
     27 H31         1.6980   -2.2160   -1.1650 hx        1 C4C      0.120700
     28 H32         1.2430   -0.7560   -2.1700 hx        1 C4C      0.120700
     29 H41         3.2120    0.4080   -1.7220 h1        1 C4C      0.069200
     30 H42         3.4890   -0.3680   -0.0900 h1        1 C4C      0.069200
     31 H13         6.3500   -1.9660   -3.2150 ha        1 C4C      0.160000
     32 H14         6.3830   -2.2110   -5.7010 ha        1 C4C      0.159000
     33 H15         4.2240   -1.9660   -6.9920 ha        1 C4C      0.163000
     34 H16         2.1000   -1.4900   -5.7060 h4        1 C4C      0.030100
     35 H51         5.4830   -3.0490   -1.4660 h1        1 C4C      0.078700
     36 H52         5.0230   -2.1340    0.0410 h1        1 C4C      0.078700
     37 H11         3.2970   -4.1850   -2.6820 ha        1 C4C      0.145500
     38 H10         1.6950   -6.0130   -2.1420 ha        1 C4C      0.161500
     39 H7          3.7740   -3.3490    1.5380 ha        1 C4C      0.145500
     40 H8          2.1750   -5.1720    2.0860 ha        1 C4C      0.161500
     41 H311        1.0220    0.4440   -0.0110 hn        1 C4C      0.444800
@<TRIPOS>BOND
     1    1    2 1   
     2    1   21 1   
     3    1   22 1   
     4    1   23 1   
     5    2    3 1   
     6    2    4 1   
     7    2   41 1   
     8    3   24 1   
     9    3   25 1   
    10    3   26 1   
    11    4    5 1   
    12    4   27 1   
    13    4   28 1   
    14    5    6 1   
    15    5   29 1   
    16    5   30 1   
    17    6    7 1   
    18    6   13 1   
    19    7    8 ar  
    20    7   12 ar  
    21    8    9 ar  
    22    8   31 1   
    23    9   10 ar  
    24    9   32 1   
    25   10   11 ar  
    26   10   33 1   
    27   11   12 ar  
    28   11   34 1   
    29   13   14 1   
    30   13   35 1   
    31   13   36 1   
    32   14   15 ar  
    33   14   17 ar  
    34   15   16 ar  
    35   15   37 1   
    36   16   19 ar  
    37   16   38 1   
    38   17   18 ar  
    39   17   39 1   
    40   18   19 ar  
    41   18   40 1   
    42   19   20 1   
@<TRIPOS>SUBSTRUCTURE
     1 C4C         1 TEMP              0 ****  ****    0 ROOT
