@<TRIPOS>MOLECULE
C4C
   40    41     1     0     0
SMALL
bcc


@<TRIPOS>ATOM
      1 C1          0.9640    3.6670   -1.9450 c3        1 C4C      0.155100
      2 N3          1.1960    3.3210   -0.5590 n3        1 C4C     -0.736600
      3 C2          0.5320    4.2170    0.3600 c3        1 C4C      0.155100
      4 C3          0.9250    1.9160   -0.2920 c3        1 C4C      0.129800
      5 C4          1.5360    1.4390    1.0480 c3        1 C4C      0.199800
      6 N1          1.5420    0.0060    1.2570 nh        1 C4C     -0.756300
      7 C12         2.2260   -0.7950    0.3150 ca        1 C4C      0.650200
      8 C13         3.3270   -0.2490   -0.4200 ca        1 C4C     -0.293300
      9 C14         4.0630   -1.0750   -1.2620 ca        1 C4C     -0.064000
     10 C15         3.7180   -2.4210   -1.3870 ca        1 C4C     -0.293300
     11 C16         2.6200   -2.8810   -0.6440 ca        1 C4C      0.431200
     12 N2          1.8820   -2.1190    0.1750 nb        1 C4C     -0.733000
     13 C5          0.4260   -0.5420    2.0010 c3        1 C4C      0.253100
     14 C6         -0.9160   -0.5720    1.3220 ca        1 C4C     -0.117300
     15 C11        -1.3610   -1.7330    0.6820 ca        1 C4C     -0.105000
     16 C10        -2.6230   -1.7740    0.0900 ca        1 C4C     -0.131500
     17 C7         -1.7530    0.5480    1.3720 ca        1 C4C     -0.105000
     18 C8         -3.0160    0.5190    0.7860 ca        1 C4C     -0.131500
     19 C9         -3.4470   -0.6460    0.1430 ca        1 C4C      0.021400
     20 CL1        -4.9870   -0.6900   -0.5770 cl        1 C4C     -0.097400
     21 H11A       -0.1090    3.5420   -2.2600 h1        1 C4C      0.031867
     22 H12         1.2600    4.7370   -2.1040 h1        1 C4C      0.031867
     23 H13A        1.6040    3.0170   -2.5970 h1        1 C4C      0.031867
     24 H21        -0.5880    4.1090    0.3550 h1        1 C4C      0.031867
     25 H22         0.9050    4.0140    1.3970 h1        1 C4C      0.031867
     26 H23         0.7880    5.2750    0.0910 h1        1 C4C      0.031867
     27 H31        -0.1840    1.6970   -0.2740 h1        1 C4C      0.045200
     28 H32         1.3770    1.3120   -1.1300 h1        1 C4C      0.045200
     29 H41         2.5990    1.8050    1.1310 h1        1 C4C      0.058700
     30 H42         0.9540    1.9040    1.8940 h1        1 C4C      0.058700
     31 H13         3.6030    0.8100   -0.3270 ha        1 C4C      0.151000
     32 H14         4.9140   -0.6630   -1.8250 ha        1 C4C      0.136000
     33 H15         4.2780   -3.0990   -2.0410 ha        1 C4C      0.143000
     34 H16         2.2980   -3.9370   -0.7090 h4        1 C4C      0.017100
     35 H51         0.6920   -1.5890    2.3260 h1        1 C4C      0.067700
     36 H52         0.3310    0.0830    2.9380 h1        1 C4C      0.067700
     37 H11        -0.7130   -2.6230    0.6440 ha        1 C4C      0.145500
     38 H10        -2.9650   -2.6900   -0.4150 ha        1 C4C      0.146500
     39 H7         -1.4130    1.4630    1.8820 ha        1 C4C      0.145500
     40 H8         -3.6680    1.4030    0.8320 ha        1 C4C      0.146500
@<TRIPOS>BOND
     1    1    2 1   
     2    1   21 1   
     3    1   22 1   
     4    1   23 1   
     5    2    3 1   
     6    2    4 1   
     7    3   24 1   
     8    3   25 1   
     9    3   26 1   
    10    4    5 1   
    11    4   27 1   
    12    4   28 1   
    13    5    6 1   
    14    5   29 1   
    15    5   30 1   
    16    6    7 1   
    17    6   13 1   
    18    7    8 ar  
    19    7   12 ar  
    20    8    9 ar  
    21    8   31 1   
    22    9   10 ar  
    23    9   32 1   
    24   10   11 ar  
    25   10   33 1   
    26   11   12 ar  
    27   11   34 1   
    28   13   14 1   
    29   13   35 1   
    30   13   36 1   
    31   14   15 ar  
    32   14   17 ar  
    33   15   16 ar  
    34   15   37 1   
    35   16   19 ar  
    36   16   38 1   
    37   17   18 ar  
    38   17   39 1   
    39   18   19 ar  
    40   18   40 1   
    41   19   20 1   
@<TRIPOS>SUBSTRUCTURE
     1 C4C         1 TEMP              0 ****  ****    0 ROOT
