@<TRIPOS>MOLECULE
C4E
   27    21     1     0     0
SMALL
bcc


@<TRIPOS>ATOM
      1 N10         0.2810   -0.7160   -0.5380 n3        1 C4E     -0.213000
      2 C11         1.6150   -0.8020   -0.0580 c2        1 C4E      0.058000
      3 C12         1.8530   -1.0450    1.2870 c2        1 C4E     -0.168000
      4 C13         3.1540   -1.1790    1.7470 c1        1 C4E     -0.103000
      5 C14         4.2160   -1.0690    0.8650 c1        1 C4E     -0.129000
      6 C15         3.9780   -0.8260   -0.4800 c1        1 C4E     -0.129000
      7 C16         2.6770   -0.6920   -0.9410 c1        1 C4E     -0.186000
      8 C7         -0.5080    0.4290   -0.2430 c2        1 C4E     -0.021000
      9 C6         -0.1070    1.7500   -0.2200 c1        1 C4E     -0.125000
     10 C8         -1.8860    0.4020   -0.2590 c1        1 C4E     -0.136000
     11 C9         -2.7950   -0.6420   -0.2870 c1        1 C4E     -0.129000
     12 C4         -2.3340    1.6980   -0.2450 c1        1 C4E      0.043000
     13 N5         -1.2290    2.5320   -0.2210 n1        1 C4E     -0.194000
     14 N3         -3.6910    1.9610   -0.2590 n1        1 C4E     -0.149000
     15 C2         -4.5860    0.9330   -0.2870 c1        1 C4E     -0.046000
     16 C1         -4.1350   -0.3810   -0.3010 c1        1 C4E     -0.129000
     17 HN10       -0.0720   -1.4000   -1.0300 hn        1 C4E      0.206000
     18 H12         1.1050   -1.1230    1.9090 ha        1 C4E      0.142000
     19 H13         3.3220   -1.3500    2.6940 ha        1 C4E      0.131000
     20 H14         5.1320   -1.1630    1.1890 ha        1 C4E      0.136500
     21 H15         4.7270   -0.7480   -1.1020 ha        1 C4E      0.136500
     22 H16         2.5100   -0.5210   -1.8870 ha        1 C4E      0.130000
     23 H6          0.8140    2.0690   -0.2110 DU        1 C4E      0.220500
     24 H9         -2.4770   -1.5670   -0.2970 ha        1 C4E      0.136500
     25 HN5        -1.2460    3.4450   -0.2080 DU        1 C4E      0.220500
     26 H2         -5.5440    1.1200   -0.2970 ha        1 C4E      0.158000
     27 H1         -4.7760   -1.1170   -0.3210 ha        1 C4E      0.136500
@<TRIPOS>BOND
     1    1    2 1   
     2    1    8 1   
     3    1   17 1   
     4    2    3 1   
     5    2    7 1   
     6    3    4 1   
     7    3   18 1   
     8    4   19 1   
     9    5    6 1   
    10    5   20 1   
    11    6   21 1   
    12    7   22 1   
    13    8    9 1   
    14    8   10 1   
    15    9   13 1   
    16   10   12 1   
    17   11   16 1   
    18   11   24 1   
    19   14   15 1   
    20   15   26 1   
    21   16   27 1   
@<TRIPOS>SUBSTRUCTURE
     1 C4E         1 TEMP              0 ****  ****    0 ROOT
