@<TRIPOS>MOLECULE
C4E
   28    30     1     0     0
SMALL
bcc


@<TRIPOS>ATOM
      1 N10        -0.0720    0.2200   -0.3910 n4        1 C4E     -0.446200
      2 C11         1.3590    0.0380   -0.1040 ca        1 C4E     -0.059400
      3 C12         1.7540   -0.6690    1.0440 ca        1 C4E     -0.101000
      4 C13         3.1130   -0.8640    1.2840 ca        1 C4E     -0.105500
      5 C14         4.0670   -0.3600    0.3990 ca        1 C4E     -0.074000
      6 C15         3.6660    0.3460   -0.7370 ca        1 C4E     -0.105500
      7 C16         2.3130    0.5530   -0.9990 ca        1 C4E     -0.101000
      8 C7         -0.7740    1.0330    0.5650 cc        1 C4E     -0.174200
      9 C6         -0.3530    2.2610    1.1180 cd        1 C4E      0.000900
     10 C8         -2.0760    0.7210    1.1130 ca        1 C4E     -0.190100
     11 C9         -3.0090   -0.3150    0.9820 ca        1 C4E     -0.075000
     12 C4         -2.3970    1.8230    2.0020 ca        1 C4E      0.432800
     13 N5         -1.3210    2.7370    1.9730 na        1 C4E     -0.239100
     14 N3         -3.5530    1.9200    2.7240 nb        1 C4E     -0.628000
     15 C2         -4.4040    0.9040    2.5580 ca        1 C4E      0.436200
     16 C1         -4.1820   -0.2200    1.7120 ca        1 C4E     -0.221300
     17 HN10       -0.5200   -0.7090   -0.4010 hn        1 C4E      0.456800
     18 H12         1.0100   -1.0660    1.7550 ha        1 C4E      0.158500
     19 H13         3.4300   -1.4210    2.1810 ha        1 C4E      0.170500
     20 H14         5.1410   -0.5210    0.5950 ha        1 C4E      0.171000
     21 H15         4.4200    0.7430   -1.4370 ha        1 C4E      0.170500
     22 H16         2.0160    1.1110   -1.9020 ha        1 C4E      0.158500
     23 H6          0.5800    2.8120    0.9490 h4        1 C4E      0.200000
     24 H9         -2.8200   -1.1730    0.3230 ha        1 C4E      0.139000
     25 HN5        -1.2800    3.5830    2.4920 hn        1 C4E      0.343700
     26 H2         -5.3440    0.9800    3.1420 h4        1 C4E      0.054100
     27 H1         -4.9530   -1.0020    1.6500 ha        1 C4E      0.170000
     28 H102       -0.1750    0.6450   -1.3240 hn        1 C4E      0.456800
@<TRIPOS>BOND
     1    1    2 1   
     2    1    8 1   
     3    1   17 1   
     4    1   28 1   
     5    2    3 ar  
     6    2    7 ar  
     7    3    4 ar  
     8    3   18 1   
     9    4    5 ar  
    10    4   19 1   
    11    5    6 ar  
    12    5   20 1   
    13    6    7 ar  
    14    6   21 1   
    15    7   22 1   
    16    8    9 2   
    17    8   10 1   
    18    9   13 1   
    19    9   23 1   
    20   10   11 ar  
    21   10   12 ar  
    22   11   16 ar  
    23   11   24 1   
    24   12   13 1   
    25   12   14 ar  
    26   13   25 1   
    27   14   15 ar  
    28   15   16 ar  
    29   15   26 1   
    30   16   27 1   
@<TRIPOS>SUBSTRUCTURE
     1 C4E         1 TEMP              0 ****  ****    0 ROOT
