@<TRIPOS>MOLECULE
C4E
   27    29     1     0     0
SMALL
bcc


@<TRIPOS>ATOM
      1 N10        -0.7080   -0.9150   -0.0520 nh        1 C4E     -0.581400
      2 C11        -2.0470   -0.4770   -0.0490 ca        1 C4E      0.139600
      3 C12        -2.4390    0.6960   -0.7320 ca        1 C4E     -0.177000
      4 C13        -3.7820    1.0510   -0.7990 ca        1 C4E     -0.101000
      5 C14        -4.7600    0.2600   -0.2000 ca        1 C4E     -0.162000
      6 C15        -4.3860   -0.9020    0.4730 ca        1 C4E     -0.101000
      7 C16        -3.0480   -1.2720    0.5570 ca        1 C4E     -0.177000
      8 C7          0.3400   -0.0140    0.1450 cc        1 C4E      0.072800
      9 C6          0.3020    1.3450    0.4950 cd        1 C4E     -0.152100
     10 C8          1.7420   -0.3660   -0.0250 ca        1 C4E     -0.213100
     11 C9          2.4430   -1.5250   -0.3600 ca        1 C4E     -0.037000
     12 C4          2.5020    0.8490    0.2340 ca        1 C4E      0.434800
     13 N5          1.5970    1.8680    0.5460 na        1 C4E     -0.280100
     14 N3          3.8690    0.9250    0.1720 nb        1 C4E     -0.675000
     15 C2          4.4790   -0.2190   -0.1520 ca        1 C4E      0.419200
     16 C1          3.8260   -1.4500   -0.4240 ca        1 C4E     -0.283300
     17 HN10       -0.5640   -1.7780    0.4340 hn        1 C4E      0.409800
     18 H12        -1.6830    1.3220   -1.2290 ha        1 C4E      0.136000
     19 H13        -4.0710    1.9660   -1.3390 ha        1 C4E      0.131000
     20 H14        -5.8190    0.5490   -0.2590 ha        1 C4E      0.133000
     21 H15        -5.1520   -1.5330    0.9460 ha        1 C4E      0.131000
     22 H16        -2.7770   -2.1940    1.0940 ha        1 C4E      0.136000
     23 H6         -0.5610    1.9800    0.7050 h4        1 C4E      0.179000
     24 H9          1.9070   -2.4610   -0.5720 ha        1 C4E      0.140000
     25 HN5         1.8320    2.8080    0.7300 hn        1 C4E      0.311700
     26 H2          5.5820   -0.1590   -0.2040 h4        1 C4E      0.021100
     27 H1          4.4280   -2.3300   -0.6860 ha        1 C4E      0.142000
@<TRIPOS>BOND
     1    1    2 1   
     2    1    8 1   
     3    1   17 1   
     4    2    3 ar  
     5    2    7 ar  
     6    3    4 ar  
     7    3   18 1   
     8    4    5 ar  
     9    4   19 1   
    10    5    6 ar  
    11    5   20 1   
    12    6    7 ar  
    13    6   21 1   
    14    7   22 1   
    15    8    9 2   
    16    8   10 1   
    17    9   13 1   
    18    9   23 1   
    19   10   11 ar  
    20   10   12 ar  
    21   11   16 ar  
    22   11   24 1   
    23   12   13 1   
    24   12   14 ar  
    25   13   25 1   
    26   14   15 ar  
    27   15   16 ar  
    28   15   26 1   
    29   16   27 1   
@<TRIPOS>SUBSTRUCTURE
     1 C4E         1 TEMP              0 ****  ****    0 ROOT
