@<TRIPOS>MOLECULE
C4F
   32    34     1     0     0
SMALL
bcc


@<TRIPOS>ATOM
      1 C15        -0.0530   -0.4620    0.1690 c3        1 C4F      0.113700
      2 O14         1.3580   -0.6180    0.2600 os        1 C4F     -0.327900
      3 C13         1.9420   -0.2010    1.4410 ca        1 C4F      0.125100
      4 C16         1.2460    0.3820    2.5060 ca        1 C4F     -0.206000
      5 C17         1.9540    0.7670    3.6450 ca        1 C4F     -0.096000
      6 C18         3.3300    0.5780    3.7240 ca        1 C4F     -0.165000
      7 C12         3.3330   -0.3980    1.5100 ca        1 C4F     -0.148000
      8 C11         4.0250   -0.0060    2.6560 ca        1 C4F     -0.045300
      9 C10         5.5070   -0.1800    2.7300 c3        1 C4F      0.035100
     10 C9          5.9380   -1.5800    2.5830 cc        1 C4F     -0.128400
     11 C1          6.3520   -2.2260    1.3600 ca        1 C4F     -0.190100
     12 C8          6.0480   -2.5280    3.6020 cd        1 C4F     -0.092100
     13 N7          6.5160   -3.7420    3.0960 na        1 C4F     -0.286100
     14 C6          6.7100   -3.5950    1.7140 ca        1 C4F      0.421800
     15 N5          7.1550   -4.5320    0.8220 nb        1 C4F     -0.671000
     16 C4          7.2450   -4.1020   -0.4400 ca        1 C4F      0.412200
     17 C3          6.9210   -2.7940   -0.8870 ca        1 C4F     -0.274300
     18 C2          6.4700   -1.8470    0.0210 ca        1 C4F     -0.050000
     19 H15        -0.2960   -0.8740   -0.8430 h1        1 C4F      0.043367
     20 H15A       -0.5690   -1.0480    0.9670 h1        1 C4F      0.043367
     21 H15B       -0.3350    0.6170    0.2320 h1        1 C4F      0.043367
     22 H16         0.1600    0.5380    2.4580 ha        1 C4F      0.136000
     23 H17         1.4140    1.2250    4.4870 ha        1 C4F      0.130000
     24 H18         3.8740    0.8880    4.6280 ha        1 C4F      0.130000
     25 H12         3.8620   -0.8670    0.6670 ha        1 C4F      0.154000
     26 H10         5.8860    0.2240    3.7090 hc        1 C4F      0.056200
     27 H10A        5.9770    0.4350    1.9120 hc        1 C4F      0.056200
     28 H8          5.8260   -2.4240    4.6660 h4        1 C4F      0.170000
     29 HN7         6.6580   -4.5720    3.6070 hn        1 C4F      0.309700
     30 H4          7.6040   -4.8560   -1.1650 h4        1 C4F      0.020100
     31 H3          7.0300   -2.5490   -1.9510 ha        1 C4F      0.141000
     32 H2          6.2080   -0.8270   -0.2960 ha        1 C4F      0.140000
@<TRIPOS>BOND
     1    1    2 1   
     2    1   19 1   
     3    1   20 1   
     4    1   21 1   
     5    2    3 1   
     6    3    4 ar  
     7    3    7 ar  
     8    4    5 ar  
     9    4   22 1   
    10    5    6 ar  
    11    5   23 1   
    12    6    8 ar  
    13    6   24 1   
    14    7    8 ar  
    15    7   25 1   
    16    8    9 1   
    17    9   10 1   
    18    9   26 1   
    19    9   27 1   
    20   10   11 1   
    21   10   12 2   
    22   11   14 ar  
    23   11   18 ar  
    24   12   13 1   
    25   12   28 1   
    26   13   14 1   
    27   13   29 1   
    28   14   15 ar  
    29   15   16 ar  
    30   16   17 ar  
    31   16   30 1   
    32   17   18 ar  
    33   17   31 1   
    34   18   32 1   
@<TRIPOS>SUBSTRUCTURE
     1 C4F         1 TEMP              0 ****  ****    0 ROOT
