@<TRIPOS>MOLECULE
C4F
   32    34     1     0     0
SMALL
bcc


@<TRIPOS>ATOM
      1 C15        -0.0330   -0.4300    0.1360 c3        1 C4F      0.113700
      2 O14         1.3750   -0.6050    0.2380 os        1 C4F     -0.327900
      3 C13         1.9580   -0.1760    1.4150 ca        1 C4F      0.125100
      4 C16         1.2640    0.4340    2.4670 ca        1 C4F     -0.206000
      5 C17         1.9720    0.8280    3.6030 ca        1 C4F     -0.096000
      6 C18         3.3450    0.6210    3.6930 ca        1 C4F     -0.165000
      7 C12         3.3450   -0.3910    1.4960 ca        1 C4F     -0.148000
      8 C11         4.0370    0.0100    2.6390 ca        1 C4F     -0.045300
      9 C10         5.5160   -0.1840    2.7240 c3        1 C4F      0.035100
     10 C9          5.9280   -1.5910    2.5970 cc        1 C4F     -0.128400
     11 C1          6.3400   -2.2580    1.3840 ca        1 C4F     -0.190100
     12 C8          6.0200   -2.5290    3.6280 cd        1 C4F     -0.092100
     13 N7          6.4730   -3.7540    3.1390 na        1 C4F     -0.286100
     14 C6          6.6780   -3.6270    1.7570 ca        1 C4F      0.421800
     15 N5          7.1150   -4.5810    0.8790 nb        1 C4F     -0.671000
     16 C4          7.2190   -4.1670   -0.3880 ca        1 C4F      0.412200
     17 C3          6.9150   -2.8610   -0.8520 ca        1 C4F     -0.274300
     18 C2          6.4720   -1.8970    0.0410 ca        1 C4F     -0.050000
     19 H15        -0.2760   -0.8560   -0.8700 h1        1 C4F      0.043367
     20 H15A       -0.5610   -0.9960    0.9410 h1        1 C4F      0.043367
     21 H15B       -0.3000    0.6530    0.1800 h1        1 C4F      0.043367
     22 H16         0.1810    0.6050    2.4100 ha        1 C4F      0.136000
     23 H17         1.4340    1.3080    4.4340 ha        1 C4F      0.130000
     24 H18         3.8880    0.9390    4.5950 ha        1 C4F      0.130000
     25 H12         3.8720   -0.8820    0.6640 ha        1 C4F      0.154000
     26 H10         5.8940    0.2260    3.7010 hc        1 C4F      0.056200
     27 H10A        5.9990    0.4150    1.9010 hc        1 C4F      0.056200
     28 H8          5.7930   -2.4080    4.6890 h4        1 C4F      0.170000
     29 HN7         6.6010   -4.5800    3.6610 hn        1 C4F      0.309700
     30 H4          7.5710   -4.9350   -1.1010 h4        1 C4F      0.020100
     31 H3          7.0350   -2.6300   -1.9190 ha        1 C4F      0.141000
     32 H2          6.2260   -0.8770   -0.2890 ha        1 C4F      0.140000
@<TRIPOS>BOND
     1    1    2 1   
     2    1   19 1   
     3    1   20 1   
     4    1   21 1   
     5    2    3 1   
     6    3    4 ar  
     7    3    7 ar  
     8    4    5 ar  
     9    4   22 1   
    10    5    6 ar  
    11    5   23 1   
    12    6    8 ar  
    13    6   24 1   
    14    7    8 ar  
    15    7   25 1   
    16    8    9 1   
    17    9   10 1   
    18    9   26 1   
    19    9   27 1   
    20   10   11 1   
    21   10   12 2   
    22   11   14 ar  
    23   11   18 ar  
    24   12   13 1   
    25   12   28 1   
    26   13   14 1   
    27   13   29 1   
    28   14   15 ar  
    29   15   16 ar  
    30   16   17 ar  
    31   16   30 1   
    32   17   18 ar  
    33   17   31 1   
    34   18   32 1   
@<TRIPOS>SUBSTRUCTURE
     1 C4F         1 TEMP              0 ****  ****    0 ROOT
