@<TRIPOS>MOLECULE
C4F
   32    34     1     0     0
SMALL
bcc


@<TRIPOS>ATOM
      1 C15         5.7180    0.4000    1.4740 c3        1 C4F      0.113700
      2 O14         4.5030    1.0050    1.0500 os        1 C4F     -0.329900
      3 C13         3.5670    0.1610    0.4810 ca        1 C4F      0.122100
      4 C16         3.7300   -1.2220    0.3400 ca        1 C4F     -0.205000
      5 C17         2.7070   -1.9650   -0.2490 ca        1 C4F     -0.096000
      6 C18         1.5420   -1.3450   -0.6900 ca        1 C4F     -0.155000
      7 C12         2.3940    0.7990    0.0380 ca        1 C4F     -0.158000
      8 C11         1.3810    0.0410   -0.5460 ca        1 C4F     -0.048300
      9 C10         0.1390    0.7050   -1.0410 c3        1 C4F      0.035100
     10 C9         -1.0190    0.5250   -0.1510 cc        1 C4F     -0.131400
     11 C1         -2.3880    0.3600   -0.5820 ca        1 C4F     -0.193100
     12 C8         -1.0280    0.5150    1.2450 cd        1 C4F     -0.088100
     13 N7         -2.3270    0.3540    1.7280 na        1 C4F     -0.287100
     14 C6         -3.1940    0.2530    0.6300 ca        1 C4F      0.420800
     15 N5         -4.5510    0.0860    0.6420 nb        1 C4F     -0.671000
     16 C4         -5.1170    0.0240   -0.5690 ca        1 C4F      0.411200
     17 C3         -4.4240    0.1160   -1.8040 ca        1 C4F     -0.276300
     18 C2         -3.0470    0.2850   -1.8110 ca        1 C4F     -0.050000
     19 H15         6.3120    1.2600    1.8740 h1        1 C4F      0.043700
     20 H15A        5.5240   -0.3520    2.2780 h1        1 C4F      0.043700
     21 H15B        6.2450   -0.0770    0.6120 h1        1 C4F      0.043700
     22 H16         4.6440   -1.7250    0.6820 ha        1 C4F      0.137000
     23 H17         2.8260   -3.0520   -0.3650 ha        1 C4F      0.132000
     24 H18         0.7400   -1.9400   -1.1510 ha        1 C4F      0.138000
     25 H12         2.2960    1.8870    0.1570 ha        1 C4F      0.149000
     26 H10         0.3290    1.8080   -1.1720 hc        1 C4F      0.057200
     27 H10A       -0.1140    0.2930   -2.0580 hc        1 C4F      0.057200
     28 H8         -0.1870    0.6070    1.9370 h4        1 C4F      0.176000
     29 HN7        -2.5960    0.3030    2.6750 hn        1 C4F      0.309700
     30 H4         -6.2140   -0.1110   -0.5640 h4        1 C4F      0.020100
     31 H3         -4.9890    0.0520   -2.7420 ha        1 C4F      0.141000
     32 H2         -2.4830    0.3600   -2.7520 ha        1 C4F      0.137000
@<TRIPOS>BOND
     1    1    2 1   
     2    1   19 1   
     3    1   20 1   
     4    1   21 1   
     5    2    3 1   
     6    3    4 ar  
     7    3    7 ar  
     8    4    5 ar  
     9    4   22 1   
    10    5    6 ar  
    11    5   23 1   
    12    6    8 ar  
    13    6   24 1   
    14    7    8 ar  
    15    7   25 1   
    16    8    9 1   
    17    9   10 1   
    18    9   26 1   
    19    9   27 1   
    20   10   11 1   
    21   10   12 2   
    22   11   14 ar  
    23   11   18 ar  
    24   12   13 1   
    25   12   28 1   
    26   13   14 1   
    27   13   29 1   
    28   14   15 ar  
    29   15   16 ar  
    30   16   17 ar  
    31   16   30 1   
    32   17   18 ar  
    33   17   31 1   
    34   18   32 1   
@<TRIPOS>SUBSTRUCTURE
     1 C4F         1 TEMP              0 ****  ****    0 ROOT
