@<TRIPOS>MOLECULE
C4F
   32    27     1     0     0
SMALL
bcc


@<TRIPOS>ATOM
      1 C15        -3.7260    3.2110   -1.6850 c3        1 C4F     -0.076000
      2 O14        -3.1560    1.8930   -1.8120 os        1 C4F     -0.211000
      3 C13        -2.6090    1.3810   -0.6030 c2        1 C4F      0.080000
      4 C16        -3.4580    0.8940    0.3830 c2        1 C4F     -0.206000
      5 C17        -2.9360    0.3540    1.5420 c1        1 C4F     -0.096000
      6 C18        -1.5820    0.2970    1.7200 c1        1 C4F     -0.165000
      7 C12        -1.2130    1.3250   -0.4240 c1        1 C4F     -0.148000
      8 C11        -0.7040    0.8000    0.7010 c1        1 C4F     -0.038000
      9 C10         0.8510    0.8030    0.9340 c3        1 C4F     -0.055000
     10 C9          1.4040   -0.6400    0.8030 c2        1 C4F     -0.136000
     11 C1          2.2290   -1.2540   -0.0810 c1        1 C4F     -0.113000
     12 C8          1.2180   -1.4960    1.8840 c1        1 C4F     -0.065000
     13 N7          1.9350   -2.6330    1.6510 n2        1 C4F     -0.200000
     14 C6          2.5630   -2.5010    0.4460 c1        1 C4F      0.030000
     15 N5          3.4510   -3.2980   -0.2040 n1        1 C4F     -0.145000
     16 C4          4.0580   -2.8530   -1.4520 c1        1 C4F     -0.131000
     17 C3          3.7330   -1.6240   -1.9770 c1        1 C4F     -0.131000
     18 C2          2.8290   -0.8090   -1.3200 c1        1 C4F     -0.050000
     19 H15        -3.9280    3.5580   -2.5550 h1        1 C4F      0.082667
     20 H15A       -3.0770    3.8070   -1.2340 h1        1 C4F      0.082667
     21 H15B       -4.4840    3.1690   -1.1980 h1        1 C4F      0.082667
     22 H16        -4.4110    0.9370    0.2600 ha        1 C4F      0.136000
     23 H17        -3.4970    0.0340    2.1870 ha        1 C4F      0.130000
     24 H18        -1.2190   -0.0740    2.5200 ha        1 C4F      0.130000
     25 H12        -0.6340    1.6580   -1.0940 ha        1 C4F      0.154000
     26 H10         1.2410    1.3290    0.3190 hc        1 C4F      0.095500
     27 H10A        1.0560    1.1650    1.8780 hc        1 C4F      0.095500
     28 H8          0.6030   -1.3380    2.6560 DU        1 C4F      0.215000
     29 HN7         1.9850   -3.3660    2.2120 DU        1 C4F      0.215000
     30 H4          4.7290   -3.4580   -1.9410 ha        1 C4F      0.149000
     31 H3          4.1500   -1.3200   -2.8290 ha        1 C4F      0.149000
     32 H2          2.6000    0.0510   -1.6860 ha        1 C4F      0.140000
@<TRIPOS>BOND
     1    1    2 1   
     2    1   19 1   
     3    1   20 1   
     4    1   21 1   
     5    2    3 1   
     6    3    4 1   
     7    3    7 1   
     8    4    5 1   
     9    4   22 1   
    10    5   23 1   
    11    6    8 1   
    12    6   24 1   
    13    7   25 1   
    14    8    9 1   
    15    9   10 1   
    16    9   26 1   
    17    9   27 1   
    18   10   11 1   
    19   10   12 1   
    20   11   18 1   
    21   12   13 1   
    22   13   14 1   
    23   14   15 1   
    24   16   17 1   
    25   16   30 1   
    26   17   31 1   
    27   18   32 1   
@<TRIPOS>SUBSTRUCTURE
     1 C4F         1 TEMP              0 ****  ****    0 ROOT
