@<TRIPOS>MOLECULE
C4H
   56    56     1     0     0
SMALL
bcc


@<TRIPOS>ATOM
      1 C1         -0.1560    0.6120   -0.5320 ca        1 C4H     -0.156000
      2 C2          1.1530    0.3840   -0.9460 ca        1 C4H      0.079000
      3 C3         -1.1490    1.1990   -1.4250 ca        1 C4H      0.291600
      4 N4         -1.0030    1.2130   -2.7850 nh        1 C4H     -0.632000
      5 C5         -0.2590    0.2170   -3.5140 c3        1 C4H      0.174600
      6 C6         -1.8210    2.0920   -3.5920 c3        1 C4H      0.174600
      7 C7         -2.2960    1.7920   -0.8250 ca        1 C4H     -0.253000
      8 C8         -2.5470    1.6370    0.5220 ca        1 C4H      0.039000
      9 C9         -1.6920    0.8960    1.3500 ca        1 C4H     -0.281000
     10 C10        -0.5030    0.3780    0.8540 ca        1 C4H      0.151000
     11 C11         0.4310   -0.3310    1.7100 ca        1 C4H     -0.686500
     12 C12         1.7330   -0.5940    1.1720 ca        1 C4H      0.050000
     13 C13         2.0970   -0.2210   -0.0920 ca        1 C4H     -0.207000
     14 S14         0.1720   -0.7630    3.1510 s4        1 C4H      1.675300
     15 N15        -0.7050   -3.0350    2.7580 n8        1 C4H     -0.985800
     16 C16        -0.8120   -3.6480    4.0700 c3        1 C4H      0.119800
     17 C17        -1.3270   -5.0870    4.0980 c3        1 C4H     -0.107400
     18 C18        -1.3970   -5.5750    5.5320 c3        1 C4H     -0.105400
     19 C19        -1.9170   -7.0080    5.5580 c3        1 C4H      0.104800
     20 N20        -2.0600   -7.5530    6.9410 ny        1 C4H     -0.693800
     21 C21        -2.6760   -8.9560    6.9130 c         1 C4H      0.548100
     22 O22        -3.8890   -8.9730    6.8170 o         1 C4H     -0.386100
     23 C23        -1.6990  -10.0890    7.0170 c3        1 C4H     -0.146400
     24 C24        -2.3490  -11.3990    6.6200 c3        1 C4H     -0.032300
     25 S25        -1.0970  -12.6040    6.3780 sh        1 C4H     -0.286900
     26 O26         1.2170   -1.3030    3.8500 o         1 C4H     -0.459400
     27 O27        -0.9750   -0.4510    3.8160 o         1 C4H     -0.459400
     28 H2          1.5110    0.7040   -1.9420 ha        1 C4H      0.167000
     29 H51        -0.8760   -0.1410   -4.3850 h1        1 C4H      0.068867
     30 H52        -0.0210   -0.6680   -2.8660 h1        1 C4H      0.068867
     31 H53         0.6920    0.6620   -3.9170 h1        1 C4H      0.068867
     32 H61        -1.8520    3.1170   -3.1360 h1        1 C4H      0.068867
     33 H62        -2.8670    1.6910   -3.6820 h1        1 C4H      0.068867
     34 H63        -1.3710    2.1720   -4.6180 h1        1 C4H      0.068867
     35 H7         -3.0200    2.3570   -1.4370 ha        1 C4H      0.170000
     36 H8         -3.4550    2.0870    0.9610 ha        1 C4H      0.166000
     37 H9         -1.9990    0.7770    2.4010 ha        1 C4H      0.169000
     38 H12         2.4750   -1.1010    1.8220 ha        1 C4H      0.168000
     39 H13         3.1250   -0.3860   -0.4550 ha        1 C4H      0.179000
     40 H15        -0.0890   -3.5650    2.1660 hn        1 C4H      0.390300
     41 H161       -1.5000   -3.0010    4.6890 h1        1 C4H      0.088200
     42 H162        0.2140   -3.6150    4.5430 h1        1 C4H      0.088200
     43 H171       -0.6440   -5.7510    3.5030 hc        1 C4H      0.064700
     44 H172       -2.3450   -5.1400    3.6290 hc        1 C4H      0.064700
     45 H181       -2.0770   -4.9030    6.1220 hc        1 C4H      0.074700
     46 H182       -0.3760   -5.5220    5.9970 hc        1 C4H      0.074700
     47 H191       -1.2120   -7.6850    4.9930 hx        1 C4H      0.111700
     48 H192       -2.9350   -7.0580    5.0700 hx        1 C4H      0.111700
     49 H20        -2.6710   -6.9270    7.4820 hn        1 C4H      0.458300
     50 H231       -1.3360  -10.1430    8.0830 hc        1 C4H      0.112700
     51 H232       -0.8070   -9.8970    6.3570 hc        1 C4H      0.112700
     52 H241       -2.8810  -11.2870    5.6390 h1        1 C4H      0.105700
     53 H242       -3.1120  -11.7050    7.3760 h1        1 C4H      0.105700
     54 H25        -1.1750  -13.2630    7.5260 hs        1 C4H      0.225800
     55 H152       -1.6060   -2.9810    2.3160 hn        1 C4H      0.390300
     56 H202       -1.1440   -7.5860    7.3970 hn        1 C4H      0.458300
@<TRIPOS>BOND
     1    1    2 ar  
     2    1    3 ar  
     3    1   10 ar  
     4    2   13 ar  
     5    2   28 1   
     6    3    4 1   
     7    3    7 ar  
     8    4    5 1   
     9    4    6 1   
    10    5   29 1   
    11    5   30 1   
    12    5   31 1   
    13    6   32 1   
    14    6   33 1   
    15    6   34 1   
    16    7    8 ar  
    17    7   35 1   
    18    8    9 ar  
    19    8   36 1   
    20    9   10 ar  
    21    9   37 1   
    22   10   11 ar  
    23   11   12 ar  
    24   11   14 1   
    25   12   13 ar  
    26   12   38 1   
    27   13   39 1   
    28   14   26 1   
    29   14   27 1   
    30   15   16 1   
    31   15   40 1   
    32   15   55 1   
    33   16   17 1   
    34   16   41 1   
    35   16   42 1   
    36   17   18 1   
    37   17   43 1   
    38   17   44 1   
    39   18   19 1   
    40   18   45 1   
    41   18   46 1   
    42   19   20 1   
    43   19   47 1   
    44   19   48 1   
    45   20   21 1   
    46   20   49 1   
    47   20   56 1   
    48   21   22 2   
    49   21   23 1   
    50   23   24 1   
    51   23   50 1   
    52   23   51 1   
    53   24   25 1   
    54   24   52 1   
    55   24   53 1   
    56   25   54 1   
@<TRIPOS>SUBSTRUCTURE
     1 C4H         1 TEMP              0 ****  ****    0 ROOT
