@<TRIPOS>MOLECULE
C4H
   56    56     1     0     0
SMALL
bcc


@<TRIPOS>ATOM
      1 C1         -0.1300    0.6250   -0.5040 ca        1 C4H     -0.156000
      2 C2          1.1980    0.4230   -0.8690 ca        1 C4H      0.079000
      3 C3         -1.1010    1.1900   -1.4350 ca        1 C4H      0.291600
      4 N4         -0.9050    1.2030   -2.7880 nh        1 C4H     -0.632000
      5 C5         -0.1150    0.2210   -3.4870 c3        1 C4H      0.174600
      6 C6         -1.7100    2.0630   -3.6280 c3        1 C4H      0.174600
      7 C7         -2.2810    1.7610   -0.8800 ca        1 C4H     -0.253000
      8 C8         -2.5780    1.6030    0.4570 ca        1 C4H      0.039000
      9 C9         -1.7400    0.8820    1.3190 ca        1 C4H     -0.281000
     10 C10        -0.5230    0.3870    0.8680 ca        1 C4H      0.151000
     11 C11         0.3930   -0.3000    1.7600 ca        1 C4H     -0.686500
     12 C12         1.7190   -0.5380    1.2710 ca        1 C4H      0.050000
     13 C13         2.1220   -0.1600    0.0210 ca        1 C4H     -0.207000
     14 S14         0.0890   -0.7350    3.1920 s4        1 C4H      1.675300
     15 N15        -0.7260   -3.0250    2.7720 n3        1 C4H     -0.985800
     16 C16        -0.8660   -3.6390    4.0810 c3        1 C4H      0.119800
     17 C17        -1.3520   -5.0890    4.0930 c3        1 C4H     -0.107400
     18 C18        -1.4600   -5.5770    5.5250 c3        1 C4H     -0.105400
     19 C19        -1.9520   -7.0210    5.5350 c3        1 C4H      0.104800
     20 N20        -2.1310   -7.5670    6.9130 n4        1 C4H     -0.693800
     21 C21        -2.7180   -8.9820    6.8660 c         1 C4H      0.548100
     22 O22        -3.9280   -9.0230    6.7360 o         1 C4H     -0.386100
     23 C23        -1.7230  -10.0960    6.9970 c3        1 C4H     -0.146400
     24 C24        -2.3350  -11.4170    6.5770 c3        1 C4H     -0.032300
     25 S25        -1.0530  -12.5970    6.3700 sh        1 C4H     -0.286900
     26 O26         1.1180   -1.2530    3.9310 o         1 C4H     -0.459400
     27 O27        -1.0870   -0.4460    3.8140 o         1 C4H     -0.459400
     28 H2          1.5860    0.7480   -1.8520 ha        1 C4H      0.167000
     29 H51        -0.6920   -0.1510   -4.3780 h1        1 C4H      0.068867
     30 H52         0.1170   -0.6570   -2.8280 h1        1 C4H      0.068867
     31 H53         0.8410    0.6840   -3.8560 h1        1 C4H      0.068867
     32 H61        -1.2240    2.1500   -4.6370 h1        1 C4H      0.068867
     33 H62        -2.7440    1.6410   -3.7560 h1        1 C4H      0.068867
     34 H63        -1.7790    3.0900   -3.1760 h1        1 C4H      0.068867
     35 H7         -2.9930    2.3090   -1.5190 ha        1 C4H      0.170000
     36 H8         -3.5110    2.0370    0.8620 ha        1 C4H      0.166000
     37 H9         -2.0820    0.7590    2.3590 ha        1 C4H      0.169000
     38 H12         2.4470   -1.0290    1.9500 ha        1 C4H      0.168000
     39 H13         3.1660   -0.3060   -0.3030 ha        1 C4H      0.179000
     40 H15        -0.0800   -3.5430    2.2020 hn        1 C4H      0.390300
     41 H161       -1.5870   -3.0060    4.6760 h1        1 C4H      0.088200
     42 H162        0.1430   -3.5860    4.5880 h1        1 C4H      0.088200
     43 H171       -2.3520   -5.1620    3.5900 hc        1 C4H      0.064700
     44 H172       -0.6360   -5.7390    3.5230 hc        1 C4H      0.064700
     45 H181       -2.1730   -4.9180    6.0910 hc        1 C4H      0.074700
     46 H182       -0.4570   -5.5030    6.0240 hc        1 C4H      0.074700
     47 H191       -2.9530   -7.0900    5.0140 hx        1 C4H      0.111700
     48 H192       -1.2170   -7.6840    4.9940 hx        1 C4H      0.111700
     49 H20        -2.7710   -6.9530    7.4330 hn        1 C4H      0.458300
     50 H231       -1.3910  -10.1460    8.0730 hc        1 C4H      0.112700
     51 H232       -0.8150   -9.8840    6.3640 hc        1 C4H      0.112700
     52 H241       -2.8410  -11.3120    5.5820 h1        1 C4H      0.105700
     53 H242       -3.1140  -11.7410    7.3100 h1        1 C4H      0.105700
     54 H25        -1.1520  -13.2610    7.5120 hs        1 C4H      0.225800
     55 H152       -1.6130   -2.9900    2.3000 hn        1 C4H      0.390300
     56 H202       -1.2300   -7.5820    7.3990 hn        1 C4H      0.458300
@<TRIPOS>BOND
     1    1    2 ar  
     2    1    3 ar  
     3    1   10 ar  
     4    2   13 ar  
     5    2   28 1   
     6    3    4 1   
     7    3    7 ar  
     8    4    5 1   
     9    4    6 1   
    10    5   29 1   
    11    5   30 1   
    12    5   31 1   
    13    6   32 1   
    14    6   33 1   
    15    6   34 1   
    16    7    8 ar  
    17    7   35 1   
    18    8    9 ar  
    19    8   36 1   
    20    9   10 ar  
    21    9   37 1   
    22   10   11 ar  
    23   11   12 ar  
    24   11   14 1   
    25   12   13 ar  
    26   12   38 1   
    27   13   39 1   
    28   14   26 1   
    29   14   27 1   
    30   15   16 1   
    31   15   40 1   
    32   15   55 1   
    33   16   17 1   
    34   16   41 1   
    35   16   42 1   
    36   17   18 1   
    37   17   43 1   
    38   17   44 1   
    39   18   19 1   
    40   18   45 1   
    41   18   46 1   
    42   19   20 1   
    43   19   47 1   
    44   19   48 1   
    45   20   21 1   
    46   20   49 1   
    47   20   56 1   
    48   21   22 2   
    49   21   23 1   
    50   23   24 1   
    51   23   50 1   
    52   23   51 1   
    53   24   25 1   
    54   24   52 1   
    55   24   53 1   
    56   25   54 1   
@<TRIPOS>SUBSTRUCTURE
     1 C4H         1 TEMP              0 ****  ****    0 ROOT
