@<TRIPOS>MOLECULE
C4H
   54    55     1     0     0
SMALL
bcc


@<TRIPOS>ATOM
      1 C1         -4.5610    0.9820    0.3840 ca        1 C4H     -0.064000
      2 C2         -4.6990    1.1420    1.7890 ca        1 C4H     -0.034000
      3 C3         -5.2750    1.8250   -0.5480 ca        1 C4H      0.144600
      4 N4         -6.1010    2.8700   -0.0370 nh        1 C4H     -0.645000
      5 C5         -5.3750    4.0190    0.4590 c3        1 C4H      0.166100
      6 C6         -7.2350    3.2240   -0.8590 c3        1 C4H      0.166100
      7 C7         -5.1760    1.5580   -1.9080 ca        1 C4H     -0.188000
      8 C8         -4.3910    0.4870   -2.3780 ca        1 C4H     -0.078000
      9 C9         -3.6730   -0.2950   -1.5100 ca        1 C4H     -0.179000
     10 C10        -3.7240   -0.0570   -0.1080 ca        1 C4H      0.073000
     11 C11        -2.9660   -0.8500    0.8070 ca        1 C4H     -0.376500
     12 C12        -3.1250   -0.6420    2.1650 ca        1 C4H      0.007000
     13 C13        -4.0030    0.3400    2.6620 ca        1 C4H     -0.179000
     14 S14        -1.8580   -2.0420    0.3240 sy        1 C4H      1.514200
     15 N15        -0.6850   -1.1720   -0.3680 n3        1 C4H     -0.919100
     16 C16         0.5880   -0.8930    0.2300 c3        1 C4H      0.225800
     17 C17         1.7850   -1.2960   -0.6350 c3        1 C4H     -0.094400
     18 C18         3.0720   -0.9830    0.0960 c3        1 C4H     -0.106400
     19 C19         4.2690   -1.3600   -0.7800 c3        1 C4H      0.086000
     20 N20         5.5490   -1.1570   -0.1620 n         1 C4H     -0.567900
     21 C21         6.3710   -0.0920   -0.4830 c         1 C4H      0.655100
     22 O22         6.0950    0.6820   -1.4210 o         1 C4H     -0.608100
     23 C23         7.6440    0.0550    0.3350 c3        1 C4H     -0.145400
     24 C24         8.4670    1.2110   -0.1710 c3        1 C4H      0.017700
     25 S25         9.8950    1.3210    0.8750 sh        1 C4H     -0.390900
     26 O26        -1.3670   -2.6860    1.4850 o         1 C4H     -0.657300
     27 O27        -2.4420   -2.8830   -0.6440 o         1 C4H     -0.657300
     28 H2         -5.3860    1.9070    2.1880 ha        1 C4H      0.151000
     29 H51        -6.0620    4.6010    1.1290 h1        1 C4H      0.039033
     30 H52        -4.4850    3.6810    1.0510 h1        1 C4H      0.039033
     31 H53        -5.0190    4.6970   -0.3650 h1        1 C4H      0.039033
     32 H61        -7.7500    2.2910   -1.2080 h1        1 C4H      0.039033
     33 H62        -7.9460    3.8170   -0.2250 h1        1 C4H      0.039033
     34 H63        -6.9590    3.8440   -1.7560 h1        1 C4H      0.039033
     35 H7         -5.7150    2.1720   -2.6470 ha        1 C4H      0.138000
     36 H8         -4.3590    0.2890   -3.4610 ha        1 C4H      0.138000
     37 H9         -3.0940   -1.1470   -1.9030 ha        1 C4H      0.154000
     38 H12        -2.5570   -1.2600    2.8870 ha        1 C4H      0.164000
     39 H13        -4.1220    0.4560    3.7490 ha        1 C4H      0.143000
     40 H15        -0.7960   -0.7730   -1.2690 hn        1 C4H      0.446800
     41 H161        0.6660    0.2130    0.4470 h1        1 C4H      0.053700
     42 H162        0.6520   -1.4430    1.2150 h1        1 C4H      0.053700
     43 H171        1.7390   -2.3910   -0.8710 hc        1 C4H      0.050700
     44 H172        1.7580   -0.7410   -1.6090 hc        1 C4H      0.050700
     45 H181        3.1110    0.1090    0.3470 hc        1 C4H      0.047700
     46 H182        3.1050   -1.5520    1.0620 hc        1 C4H      0.047700
     47 H191        4.1870   -2.4520   -1.0520 h1        1 C4H      0.064700
     48 H192        4.2290   -0.7570   -1.7330 h1        1 C4H      0.064700
     49 H20         5.7360   -1.6680    0.6680 hn        1 C4H      0.306500
     50 H231        7.3720    0.2200    1.4120 hc        1 C4H      0.078700
     51 H232        8.2390   -0.8960    0.2710 hc        1 C4H      0.078700
     52 H241        8.7620    1.0420   -1.2350 h1        1 C4H      0.078700
     53 H242        7.8730    2.1560   -0.1350 h1        1 C4H      0.078700
     54 H25        10.4980    2.3420    0.2920 hs        1 C4H      0.210800
@<TRIPOS>BOND
     1    1    2 ar  
     2    1    3 ar  
     3    1   10 ar  
     4    2   13 ar  
     5    2   28 1   
     6    3    4 1   
     7    3    7 ar  
     8    4    5 1   
     9    4    6 1   
    10    5   29 1   
    11    5   30 1   
    12    5   31 1   
    13    6   32 1   
    14    6   33 1   
    15    6   34 1   
    16    7    8 ar  
    17    7   35 1   
    18    8    9 ar  
    19    8   36 1   
    20    9   10 ar  
    21    9   37 1   
    22   10   11 ar  
    23   11   12 ar  
    24   11   14 1   
    25   12   13 ar  
    26   12   38 1   
    27   13   39 1   
    28   14   15 1   
    29   14   26 2   
    30   14   27 2   
    31   15   16 1   
    32   15   40 1   
    33   16   17 1   
    34   16   41 1   
    35   16   42 1   
    36   17   18 1   
    37   17   43 1   
    38   17   44 1   
    39   18   19 1   
    40   18   45 1   
    41   18   46 1   
    42   19   20 1   
    43   19   47 1   
    44   19   48 1   
    45   20   21 1   
    46   20   49 1   
    47   21   22 2   
    48   21   23 1   
    49   23   24 1   
    50   23   50 1   
    51   23   51 1   
    52   24   25 1   
    53   24   52 1   
    54   24   53 1   
    55   25   54 1   
@<TRIPOS>SUBSTRUCTURE
     1 C4H         1 TEMP              0 ****  ****    0 ROOT
