@<TRIPOS>MOLECULE
C4H
   57    57     1     0     0
SMALL
bcc


@<TRIPOS>ATOM
      1 C1         -0.0750    0.4740   -0.8130 ca        1 C4H     -0.060000
      2 C2          1.2230    0.0430   -1.1990 ca        1 C4H      0.004000
      3 C3         -0.8980    1.3150   -1.6460 ca        1 C4H     -0.002400
      4 N4         -0.3800    1.8760   -2.9100 n4        1 C4H     -0.560800
      5 C5         -1.1230    1.3350   -4.0880 c3        1 C4H      0.083600
      6 C6         -0.4270    3.3710   -2.8980 c3        1 C4H      0.083600
      7 C7         -2.1940    1.6310   -1.2710 ca        1 C4H     -0.067000
      8 C8         -2.7100    1.1480   -0.0490 ca        1 C4H     -0.042000
      9 C9         -1.9310    0.3890    0.7890 ca        1 C4H     -0.151000
     10 C10        -0.5920    0.0480    0.4480 ca        1 C4H      0.100000
     11 C11         0.2410   -0.7050    1.3540 ca        1 C4H     -0.554500
     12 C12         1.5220   -1.0770    0.9080 ca        1 C4H      0.068000
     13 C13         1.9990   -0.7270   -0.3570 ca        1 C4H     -0.137000
     14 S14        -0.1030   -1.0600    2.8700 s4        1 C4H      1.647300
     15 N15        -0.8510   -3.2470    2.6400 n3        1 C4H     -1.005800
     16 C16        -0.8730   -3.8520    3.9720 c3        1 C4H      0.109800
     17 C17        -1.3170   -5.3140    4.0240 c3        1 C4H     -0.102400
     18 C18        -1.3120   -5.8070    5.4600 c3        1 C4H     -0.103400
     19 C19        -1.7710   -7.2620    5.4970 c3        1 C4H      0.099800
     20 N20        -1.8380   -7.8300    6.8730 n4        1 C4H     -0.695800
     21 C21        -2.4690   -9.2390    6.8900 c         1 C4H      0.554100
     22 O22        -3.4370   -9.3740    6.1670 o         1 C4H     -0.388100
     23 C23        -1.7930  -10.2180    7.8040 c3        1 C4H     -0.146400
     24 C24        -2.3500  -11.6140    7.6030 c3        1 C4H     -0.035300
     25 S25        -1.2450  -12.7620    8.3360 sh        1 C4H     -0.275900
     26 O26         0.9580   -1.4480    3.6270 o         1 C4H     -0.417400
     27 O27        -1.2820   -0.6450    3.3970 o         1 C4H     -0.417400
     28 H2          1.6560    0.2910   -2.1840 ha        1 C4H      0.159000
     29 H51        -2.2010    1.6450   -4.0320 hx        1 C4H      0.117200
     30 H52        -0.6640    1.7500   -5.0270 hx        1 C4H      0.117200
     31 H53        -1.0530    0.2140   -4.0910 hx        1 C4H      0.117200
     32 H61         0.0720    3.7530   -3.8330 hx        1 C4H      0.117200
     33 H62         0.1150    3.7550   -1.9930 hx        1 C4H      0.117200
     34 H63        -1.4930    3.7220   -2.8780 hx        1 C4H      0.117200
     35 H7         -2.8530    2.2630   -1.8970 ha        1 C4H      0.186000
     36 H8         -3.7520    1.4030    0.2270 ha        1 C4H      0.201000
     37 H9         -2.3840    0.0580    1.7410 ha        1 C4H      0.189000
     38 H12         2.2000   -1.6470    1.5800 ha        1 C4H      0.194000
     39 H13         3.0090   -1.0590   -0.6710 ha        1 C4H      0.205000
     40 H15        -0.2520   -3.7800    2.0290 hn        1 C4H      0.405300
     41 H161       -1.5690   -3.2350    4.6140 h1        1 C4H      0.095700
     42 H162        0.1700   -3.7680    4.4020 h1        1 C4H      0.095700
     43 H171       -0.6270   -5.9470    3.4050 hc        1 C4H      0.071700
     44 H172       -2.3500   -5.4170    3.5940 hc        1 C4H      0.071700
     45 H181       -0.2770   -5.7130    5.8860 hc        1 C4H      0.075700
     46 H182       -1.9960   -5.1670    6.0790 hc        1 C4H      0.075700
     47 H191       -2.8030   -7.3510    5.0420 hx        1 C4H      0.118200
     48 H192       -1.0650   -7.9060    4.8970 hx        1 C4H      0.118200
     49 H20        -0.8990   -7.8750    7.2780 hn        1 C4H      0.456800
     50 H231       -1.9510   -9.8860    8.8680 hc        1 C4H      0.116700
     51 H232       -0.6840  -10.2290    7.6030 hc        1 C4H      0.116700
     52 H241       -2.3990  -11.8600    6.5100 h1        1 C4H      0.106200
     53 H242       -3.3900  -11.6880    8.0040 h1        1 C4H      0.106200
     54 H25        -1.8990  -13.0450    9.4540 hs        1 C4H      0.228800
     55 H41         0.6080    1.6090   -3.0160 hn        1 C4H      0.452800
     56 H152       -1.7800   -3.2480    2.2480 hn        1 C4H      0.405300
     57 H202       -2.4110   -7.2160    7.4640 hn        1 C4H      0.456800
@<TRIPOS>BOND
     1    1    2 ar  
     2    1    3 ar  
     3    1   10 ar  
     4    2   13 ar  
     5    2   28 1   
     6    3    4 1   
     7    3    7 ar  
     8    4    5 1   
     9    4    6 1   
    10    4   55 1   
    11    5   29 1   
    12    5   30 1   
    13    5   31 1   
    14    6   32 1   
    15    6   33 1   
    16    6   34 1   
    17    7    8 ar  
    18    7   35 1   
    19    8    9 ar  
    20    8   36 1   
    21    9   10 ar  
    22    9   37 1   
    23   10   11 ar  
    24   11   12 ar  
    25   11   14 1   
    26   12   13 ar  
    27   12   38 1   
    28   13   39 1   
    29   14   26 1   
    30   14   27 1   
    31   15   16 1   
    32   15   40 1   
    33   15   56 1   
    34   16   17 1   
    35   16   41 1   
    36   16   42 1   
    37   17   18 1   
    38   17   43 1   
    39   17   44 1   
    40   18   19 1   
    41   18   45 1   
    42   18   46 1   
    43   19   20 1   
    44   19   47 1   
    45   19   48 1   
    46   20   21 1   
    47   20   49 1   
    48   20   57 1   
    49   21   22 2   
    50   21   23 1   
    51   23   24 1   
    52   23   50 1   
    53   23   51 1   
    54   24   25 1   
    55   24   52 1   
    56   24   53 1   
    57   25   54 1   
@<TRIPOS>SUBSTRUCTURE
     1 C4H         1 TEMP              0 ****  ****    0 ROOT
