@<TRIPOS>MOLECULE
C4H
   54    49     1     0     0
SMALL
bcc


@<TRIPOS>ATOM
      1 C1          0.9190    3.7500   -2.8140 c1        1 C4H     -0.063000
      2 C2         -0.1100    4.0610   -3.7030 c1        1 C4H     -0.034000
      3 C3          2.0680    4.5830   -2.7410 c1        1 C4H      0.061000
      4 N4          2.0640    6.0220   -2.7490 n2        1 C4H     -0.246000
      5 C5          2.1620    6.7210   -3.9800 c3        1 C4H     -0.111500
      6 C6          1.8490    6.7380   -1.5350 c3        1 C4H     -0.111500
      7 C7          3.1130    4.2430   -1.9120 c2        1 C4H     -0.187000
      8 C8          3.0450    3.0920   -1.1500 c1        1 C4H     -0.080000
      9 C9          1.9160    2.2740   -1.2200 c1        1 C4H     -0.177000
     10 C10         0.8520    2.6190   -2.0640 c1        1 C4H      0.074000
     11 C11        -0.2600    1.7570   -2.1860 c1        1 C4H     -0.820000
     12 C12        -1.2760    2.0660   -3.0660 c1        1 C4H     -0.086500
     13 C13        -1.2040    3.2150   -3.8240 c1        1 C4H     -0.086500
     14 S14        -0.8390    0.9610   -0.6950 s4        1 C4H      2.067800
     15 N15        -0.4710   -0.6540   -0.7260 n2        1 C4H     -0.893000
     16 C16        -1.5080   -1.6440   -0.4340 c3        1 C4H     -0.011000
     17 C17        -1.3430   -2.1630    1.0280 c3        1 C4H     -0.177000
     18 C18        -0.3530   -3.3350    1.0390 c3        1 C4H     -0.182000
     19 C19        -1.0730   -4.6350    1.5670 c3        1 C4H     -0.029000
     20 N20        -0.4630   -5.0420    2.8230 n         1 C4H     -0.381000
     21 C21        -0.7840   -6.3220    3.4040 c2        1 C4H      0.302000
     22 O22        -1.0910   -7.2420    2.6980 o         1 C4H     -0.372000
     23 C23        -0.6830   -6.5190    4.8930 c3        1 C4H     -0.173000
     24 C24        -1.9730   -7.0070    5.4040 c3        1 C4H     -0.243000
     25 S25        -1.9760   -6.9550    7.2200 sh        1 C4H     -0.035000
     26 O26        -0.2990    1.5930    0.4740 o         1 C4H     -0.545400
     27 O27        -2.2750    1.1780   -0.5010 o         1 C4H     -0.545400
     28 H2         -0.0610    4.8540   -4.2270 ha        1 C4H      0.151000
     29 H51         1.2690    6.8120   -4.3740 h1        1 C4H      0.078500
     30 H52         2.5330    7.5890   -3.8270 h1        1 C4H      0.078500
     31 H53         2.7290    6.2320   -4.5800 h1        1 C4H      0.078500
     32 H61         1.3390    7.5810   -1.7280 h1        1 C4H      0.078500
     33 H62         1.3430    6.1870   -0.9240 h1        1 C4H      0.078500
     34 H63         2.7250    6.9680   -1.1240 h1        1 C4H      0.078500
     35 H7          3.9470    4.8480   -1.8600 ha        1 C4H      0.138000
     36 H8          3.8050    2.8450   -0.5470 ha        1 C4H      0.137000
     37 H9          1.8680    1.4660   -0.6850 ha        1 C4H      0.152000
     38 H12        -2.0500    1.4690   -3.1530 ha        1 C4H      0.153500
     39 H13        -1.9030    3.4280   -4.4300 ha        1 C4H      0.153500
     40 H15         0.3830   -0.9320   -0.9710 hn        1 C4H      0.240000
     41 H161       -2.4120   -1.2220   -0.5410 h1        1 C4H      0.093500
     42 H162       -1.4200   -2.4170   -1.0740 h1        1 C4H      0.093500
     43 H171       -0.9870   -1.4110    1.6210 hc        1 C4H      0.097000
     44 H172       -2.2420   -2.4750    1.3800 hc        1 C4H      0.097000
     45 H181       -0.0100   -3.4980    0.0970 hc        1 C4H      0.084000
     46 H182        0.4030   -3.1190    1.6280 hc        1 C4H      0.084000
     47 H191       -0.9760   -5.3420    0.9180 h1        1 C4H      0.101500
     48 H192       -2.0320   -4.4470    1.7090 h1        1 C4H      0.101500
     49 H20         0.0860   -4.4640    3.2680 hn        1 C4H      0.222000
     50 H231       -0.4670   -5.6850    5.3120 hc        1 C4H      0.118500
     51 H232        0.0020   -7.1590    5.0860 hc        1 C4H      0.118500
     52 H241       -2.1130   -7.9350    5.1020 h1        1 C4H      0.118000
     53 H242       -2.6860   -6.4450    5.0650 h1        1 C4H      0.118000
     54 H25        -3.0780   -7.0840    7.6120 hs        1 C4H      0.039000
@<TRIPOS>BOND
     1    1    2 1   
     2    1    3 1   
     3    2   28 1   
     4    3    7 1   
     5    4    5 1   
     6    4    6 1   
     7    5   29 1   
     8    5   30 1   
     9    5   31 1   
    10    6   32 1   
    11    6   33 1   
    12    6   34 1   
    13    7    8 1   
    14    7   35 1   
    15    8   36 1   
    16    9   10 1   
    17    9   37 1   
    18   10   11 1   
    19   11   14 1   
    20   12   13 1   
    21   12   38 1   
    22   13   39 1   
    23   14   26 1   
    24   14   27 1   
    25   15   16 1   
    26   15   40 1   
    27   16   17 1   
    28   16   41 1   
    29   16   42 1   
    30   17   18 1   
    31   17   43 1   
    32   17   44 1   
    33   18   19 1   
    34   18   45 1   
    35   18   46 1   
    36   19   20 1   
    37   19   47 1   
    38   19   48 1   
    39   20   21 1   
    40   20   49 1   
    41   21   22 1   
    42   21   23 1   
    43   23   24 1   
    44   23   50 1   
    45   23   51 1   
    46   24   25 1   
    47   24   52 1   
    48   24   53 1   
    49   25   54 1   
@<TRIPOS>SUBSTRUCTURE
     1 C4H         1 TEMP              0 ****  ****    0 ROOT
