@<TRIPOS>MOLECULE
C4L
   27    25     1     0     0
SMALL
bcc


@<TRIPOS>ATOM
      1 O1         -2.2600   -1.2200   -1.8900 o         1 C4L     -0.800000
      2 C4         -1.0030   -1.2300   -1.9750 c1        1 C4L      0.794000
      3 O2         -0.4480   -1.1100   -3.0980 o         1 C4L     -0.800000
      4 C3         -0.1620   -1.3810   -0.7270 c2        1 C4L      0.132500
      5 C2         -0.4900   -2.6960   -0.0550 c3        1 C4L     -0.171700
      6 C1          0.4870   -3.7550   -0.5140 c3        1 C4L      0.110400
      7 O3          0.1610   -4.9890    0.0870 oh        1 C4L     -0.629800
      8 N1         -0.4400   -0.3110    0.1640 n         1 C4L     -0.480500
      9 C5          0.1900    0.9460   -0.0190 c         1 C4L      0.641100
     10 O4          0.9680    1.1080   -0.9380 o         1 C4L     -0.653100
     11 C6         -0.1000    2.0840    0.9350 c3        1 C4L     -0.156400
     12 C7          0.5300    3.3560    0.4100 c3        1 C4L     -0.084400
     13 C8          0.3370    4.4670    1.4180 c3        1 C4L     -0.089100
     14 H2          0.7850   -1.3660   -0.9690 h4        1 C4L     -0.024200
     15 H3         -0.4250   -2.5910    0.9150 hc        1 C4L      0.033200
     16 H4         -1.4000   -2.9660   -0.2930 hc        1 C4L      0.033200
     17 H5          0.4390   -3.8430   -1.4890 h1        1 C4L      0.066200
     18 H6          1.3960   -3.4960   -0.2550 h1        1 C4L      0.066200
     19 H7          0.7790   -5.5930   -0.1230 ho        1 C4L      0.391000
     20 H8         -1.0270   -0.4320    0.8520 hn        1 C4L      0.323500
     21 H9         -1.0670    2.2070    1.0120 hc        1 C4L      0.053700
     22 H10         0.2730    1.8750    1.8150 hc        1 C4L      0.053700
     23 H11         1.4860    3.2100    0.2640 hc        1 C4L      0.056700
     24 H12         0.1050    3.6050   -0.4350 hc        1 C4L      0.056700
     25 H13        -0.6150    4.5460    1.6400 hc        1 C4L      0.025700
     26 H14         0.8460    4.2630    2.2310 hc        1 C4L      0.025700
     27 H15         0.6550    5.3120    1.0370 hc        1 C4L      0.025700
@<TRIPOS>BOND
     1    1    2 2   
     2    2    3 2   
     3    4    5 1   
     4    4    8 2   
     5    4   14 1   
     6    5    6 1   
     7    5   15 1   
     8    5   16 1   
     9    6    7 1   
    10    6   17 1   
    11    6   18 1   
    12    7   19 1   
    13    8    9 1   
    14    8   20 1   
    15    9   10 2   
    16    9   11 1   
    17   11   12 1   
    18   11   21 1   
    19   11   22 1   
    20   12   13 1   
    21   12   23 1   
    22   12   24 1   
    23   13   25 1   
    24   13   26 1   
    25   13   27 1   
@<TRIPOS>SUBSTRUCTURE
     1 C4L         1 TEMP              0 ****  ****    0 ROOT
