@<TRIPOS>MOLECULE
C4L
   28    27     1     0     0
SMALL
bcc


@<TRIPOS>ATOM
      1 O1         -0.4760   -0.8890    1.5570 o         1 C4L     -0.766300
      2 C4          0.4240   -0.2470    0.9510 c         1 C4L      0.927600
      3 O2          0.4260    0.2340   -0.1940 o         1 C4L     -0.766300
      4 C3          1.7680   -0.0060    1.7880 c3        1 C4L     -0.049500
      5 C2          2.8630   -0.8400    1.1460 c3        1 C4L     -0.128400
      6 C1          4.2110   -0.7130    1.8300 c3        1 C4L      0.105400
      7 O3          4.2500   -1.4700    3.0320 oh        1 C4L     -0.630800
      8 N1          1.5400   -0.3660    3.2310 n4        1 C4L     -0.670800
      9 C5          1.0330    0.8070    4.0120 c         1 C4L      0.560100
     10 O4          1.8760    1.4520    4.6290 o         1 C4L     -0.471100
     11 C6         -0.4480    1.0390    3.9680 c3        1 C4L     -0.168400
     12 C7         -0.7890    2.4570    4.3780 c3        1 C4L     -0.076400
     13 C8         -2.2830    2.6550    4.4010 c3        1 C4L     -0.097100
     14 H2          2.0330    1.0850    1.7390 hx        1 C4L      0.091700
     15 H3          2.9390   -0.4780    0.0830 hc        1 C4L      0.089200
     16 H4          2.5540   -1.9190    1.1090 hc        1 C4L      0.089200
     17 H5          4.4080    0.3440    2.1570 h1        1 C4L      0.061200
     18 H6          5.0310   -1.0400    1.1380 h1        1 C4L      0.061200
     19 H7          4.3330   -2.3990    2.7870 ho        1 C4L      0.411000
     20 H8          2.4050   -0.7280    3.6480 hn        1 C4L      0.467800
     21 H9         -0.9300    0.3030    4.6680 hc        1 C4L      0.121200
     22 H10        -0.8490    0.8180    2.9320 hc        1 C4L      0.121200
     23 H11        -0.3210    3.1770    3.6560 hc        1 C4L      0.056700
     24 H12        -0.3550    2.6730    5.3910 hc        1 C4L      0.056700
     25 H13        -2.7630    1.9700    5.1420 hc        1 C4L      0.045033
     26 H14        -2.7240    2.4500    3.3950 hc        1 C4L      0.045033
     27 H15        -2.5220    3.7080    4.6850 hc        1 C4L      0.045033
     28 H121        0.8020   -1.0990    3.2160 hn        1 C4L      0.467800
@<TRIPOS>BOND
     1    1    2 1   
     2    2    3 1   
     3    2    4 1   
     4    4    5 1   
     5    4    8 1   
     6    4   14 1   
     7    5    6 1   
     8    5   15 1   
     9    5   16 1   
    10    6    7 1   
    11    6   17 1   
    12    6   18 1   
    13    7   19 1   
    14    8    9 1   
    15    8   20 1   
    16    8   28 1   
    17    9   10 2   
    18    9   11 1   
    19   11   12 1   
    20   11   21 1   
    21   11   22 1   
    22   12   13 1   
    23   12   23 1   
    24   12   24 1   
    25   13   25 1   
    26   13   26 1   
    27   13   27 1   
@<TRIPOS>SUBSTRUCTURE
     1 C4L         1 TEMP              0 ****  ****    0 ROOT
