@<TRIPOS>MOLECULE
C4L
   28    27     1     0     0
SMALL
bcc


@<TRIPOS>ATOM
      1 O1         -0.4930   -0.8680    1.5560 o         1 C4L     -0.766300
      2 C4          0.3720   -0.1840    0.9460 c         1 C4L      0.927600
      3 O2          0.3260    0.3400   -0.1790 o         1 C4L     -0.766300
      4 C3          1.7390    0.0510    1.7460 c3        1 C4L     -0.049500
      5 C2          2.8280   -0.7340    1.0350 c3        1 C4L     -0.128400
      6 C1          4.1960   -0.6050    1.6780 c3        1 C4L      0.105400
      7 O3          4.2900   -1.4070    2.8470 oh        1 C4L     -0.630800
      8 N1          1.5680   -0.3670    3.1800 ny        1 C4L     -0.670800
      9 C5          1.0660    0.7640    4.0230 c         1 C4L      0.560100
     10 O4          1.9170    1.4020    4.6350 o         1 C4L     -0.471100
     11 C6         -0.4200    0.9660    4.0380 c3        1 C4L     -0.168400
     12 C7         -0.7750    2.3600    4.5160 c3        1 C4L     -0.076400
     13 C8         -2.2710    2.5240    4.5960 c3        1 C4L     -0.097100
     14 H2          1.9820    1.1490    1.7300 hx        1 C4L      0.091700
     15 H3          2.5390   -1.8170    0.9670 hc        1 C4L      0.089200
     16 H4          2.8600   -0.3300   -0.0150 hc        1 C4L      0.089200
     17 H5          4.9980   -0.8890    0.9460 h1        1 C4L      0.061200
     18 H6          4.3840    0.4420    2.0390 h1        1 C4L      0.061200
     19 H7          4.3830   -2.3240    2.5630 ho        1 C4L      0.411000
     20 H8          2.4540   -0.7280    3.5540 hn        1 C4L      0.467800
     21 H9         -0.8520    0.7770    3.0080 hc        1 C4L      0.121200
     22 H10        -0.8640    0.1930    4.7240 hc        1 C4L      0.121200
     23 H11        -0.3460    3.1170    3.8080 hc        1 C4L      0.056700
     24 H12        -0.3110    2.5450    5.5210 hc        1 C4L      0.056700
     25 H13        -2.5210    3.5600    4.9300 hc        1 C4L      0.045033
     26 H14        -2.7420    2.3500    3.5980 hc        1 C4L      0.045033
     27 H15        -2.7110    1.8020    5.3250 hc        1 C4L      0.045033
     28 H121        0.8440   -1.1140    3.1610 hn        1 C4L      0.467800
@<TRIPOS>BOND
     1    1    2 1   
     2    2    3 1   
     3    2    4 1   
     4    4    5 1   
     5    4    8 1   
     6    4   14 1   
     7    5    6 1   
     8    5   15 1   
     9    5   16 1   
    10    6    7 1   
    11    6   17 1   
    12    6   18 1   
    13    7   19 1   
    14    8    9 1   
    15    8   20 1   
    16    8   28 1   
    17    9   10 2   
    18    9   11 1   
    19   11   12 1   
    20   11   21 1   
    21   11   22 1   
    22   12   13 1   
    23   12   23 1   
    24   12   24 1   
    25   13   25 1   
    26   13   26 1   
    27   13   27 1   
@<TRIPOS>SUBSTRUCTURE
     1 C4L         1 TEMP              0 ****  ****    0 ROOT
