@<TRIPOS>MOLECULE
C4L
   28    27     1     0     0
SMALL
bcc


@<TRIPOS>ATOM
      1 O1         -0.5040   -0.8670    1.5690 o         1 C4L     -0.766300
      2 C4          0.3860   -0.2210    0.9530 c         1 C4L      0.927600
      3 O2          0.3690    0.2730   -0.1860 o         1 C4L     -0.766300
      4 C3          1.7460    0.0050    1.7670 c3        1 C4L     -0.049500
      5 C2          2.8270   -0.8250    1.0950 c3        1 C4L     -0.128400
      6 C1          4.1880   -0.7100    1.7550 c3        1 C4L      0.105400
      7 O3          4.2460   -1.4810    2.9470 oh        1 C4L     -0.630800
      8 N1          1.5440   -0.3690    3.2100 n4        1 C4L     -0.670800
      9 C5          1.0560    0.7960    4.0140 c         1 C4L      0.560100
     10 O4          1.9120    1.4320    4.6200 o         1 C4L     -0.471100
     11 C6         -0.4250    1.0310    4.0010 c3        1 C4L     -0.168400
     12 C7         -0.7560    2.4430    4.4390 c3        1 C4L     -0.076400
     13 C8         -2.2490    2.6430    4.4920 c3        1 C4L     -0.097100
     14 H2          2.0150    1.0960    1.7250 hx        1 C4L      0.091700
     15 H3          2.5140   -1.9010    1.0520 hc        1 C4L      0.089200
     16 H4          2.8840   -0.4500    0.0350 hc        1 C4L      0.089200
     17 H5          4.3950    0.3430    2.0900 h1        1 C4L      0.061200
     18 H6          4.9940   -1.0320    1.0440 h1        1 C4L      0.061200
     19 H7          4.3210   -2.4070    2.6900 ho        1 C4L      0.411000
     20 H8          2.4170   -0.7390    3.6070 hn        1 C4L      0.467800
     21 H9         -0.8460    0.8250    2.9700 hc        1 C4L      0.121200
     22 H10        -0.8960    0.2850    4.7000 hc        1 C4L      0.121200
     23 H11        -0.3000    3.1730    3.7190 hc        1 C4L      0.056700
     24 H12        -0.3030    2.6440    5.4460 hc        1 C4L      0.056700
     25 H13        -2.7160    1.9480    5.2310 hc        1 C4L      0.045033
     26 H14        -2.4810    3.6920    4.7960 hc        1 C4L      0.045033
     27 H15        -2.7090    2.4530    3.4910 hc        1 C4L      0.045033
     28 H121        0.8050   -1.1000    3.2010 hn        1 C4L      0.467800
@<TRIPOS>BOND
     1    1    2 1   
     2    2    3 1   
     3    2    4 1   
     4    4    5 1   
     5    4    8 1   
     6    4   14 1   
     7    5    6 1   
     8    5   15 1   
     9    5   16 1   
    10    6    7 1   
    11    6   17 1   
    12    6   18 1   
    13    7   19 1   
    14    8    9 1   
    15    8   20 1   
    16    8   28 1   
    17    9   10 2   
    18    9   11 1   
    19   11   12 1   
    20   11   21 1   
    21   11   22 1   
    22   12   13 1   
    23   12   23 1   
    24   12   24 1   
    25   13   25 1   
    26   13   26 1   
    27   13   27 1   
@<TRIPOS>SUBSTRUCTURE
     1 C4L         1 TEMP              0 ****  ****    0 ROOT
