@<TRIPOS>MOLECULE
C4L
   27    26     1     0     0
SMALL
bcc


@<TRIPOS>ATOM
      1 O1          0.2940   -2.4130    0.7470 o         1 C4L     -0.829800
      2 C4          1.0980   -1.8250   -0.0300 c         1 C4L      0.913600
      3 O2          2.0430   -2.3760   -0.6510 o         1 C4L     -0.829800
      4 C3          0.9180   -0.2770   -0.2710 c3        1 C4L     -0.049300
      5 C2          2.1620    0.4350    0.2710 c3        1 C4L     -0.072400
      6 C1          2.3160    1.8090   -0.3530 c3        1 C4L      0.121400
      7 O3          3.3540    2.4930    0.3430 oh        1 C4L     -0.617800
      8 N1         -0.3180    0.2080    0.3090 n         1 C4L     -0.514900
      9 C5         -1.1420    1.1110   -0.3040 c         1 C4L      0.640100
     10 O4         -0.7790    1.8390   -1.2600 o         1 C4L     -0.666100
     11 C6         -2.5420    1.2850    0.2750 c3        1 C4L     -0.156400
     12 C7         -3.3910    0.0530    0.0510 c3        1 C4L     -0.085400
     13 C8         -4.8060    0.2720    0.5250 c3        1 C4L     -0.089100
     14 H2          0.8820   -0.1180   -1.3880 h1        1 C4L      0.057700
     15 H3          2.1210    0.5290    1.3860 hc        1 C4L      0.061200
     16 H4          3.0520   -0.1990    0.0150 hc        1 C4L      0.061200
     17 H5          2.5920    1.7180   -1.4380 h1        1 C4L      0.026700
     18 H6          1.3590    2.3940   -0.2770 h1        1 C4L      0.026700
     19 H7          3.4080    3.3680   -0.0540 ho        1 C4L      0.378000
     20 H8         -0.7260   -0.4370    0.9580 hn        1 C4L      0.326500
     21 H9         -2.4740    1.5130    1.3700 hc        1 C4L      0.053700
     22 H10        -3.0110    2.1700   -0.2310 hc        1 C4L      0.053700
     23 H11        -3.3950   -0.2020   -1.0420 hc        1 C4L      0.057200
     24 H12        -2.9460   -0.8240    0.5910 hc        1 C4L      0.057200
     25 H13        -5.4170   -0.6470    0.3560 hc        1 C4L      0.025700
     26 H14        -4.8230    0.5110    1.6160 hc        1 C4L      0.025700
     27 H15        -5.2810    1.1190   -0.0260 hc        1 C4L      0.025700
@<TRIPOS>BOND
     1    1    2 1   
     2    2    3 1   
     3    2    4 1   
     4    4    5 1   
     5    4    8 1   
     6    4   14 1   
     7    5    6 1   
     8    5   15 1   
     9    5   16 1   
    10    6    7 1   
    11    6   17 1   
    12    6   18 1   
    13    7   19 1   
    14    8    9 1   
    15    8   20 1   
    16    9   10 2   
    17    9   11 1   
    18   11   12 1   
    19   11   21 1   
    20   11   22 1   
    21   12   13 1   
    22   12   23 1   
    23   12   24 1   
    24   13   25 1   
    25   13   26 1   
    26   13   27 1   
@<TRIPOS>SUBSTRUCTURE
     1 C4L         1 TEMP              0 ****  ****    0 ROOT
