@<TRIPOS>MOLECULE
C4M
   57    57     1     0     0
SMALL
bcc


@<TRIPOS>ATOM
      1 C1          1.8200   -1.6920   -1.4940 c3        1 C4M      0.097700
      2 O2          2.8420   -1.6460   -0.4830 os        1 C4M     -0.267900
      3 C3          2.5390   -1.1140    0.7160 ca        1 C4M      0.309100
      4 C4          1.2790   -0.5670    1.0420 ca        1 C4M     -0.257000
      5 C5          1.0270   -0.0870    2.3090 ca        1 C4M      0.137700
      6 C6         -0.3170    0.4820    2.5840 c3        1 C4M     -0.116800
      7 C7          2.0250   -0.1500    3.3460 ca        1 C4M     -0.685500
      8 C8          3.3430   -0.5920    2.9400 ca        1 C4M      0.097700
      9 C9          4.4600   -0.5000    3.9160 c3        1 C4M     -0.111800
     10 C10         3.5950   -1.1030    1.6820 ca        1 C4M     -0.124300
     11 C11         4.9280   -1.6340    1.2980 c3        1 C4M     -0.067800
     12 S12         1.6890    0.1440    4.8100 s4        1 C4M      1.680300
     13 O13         2.5710   -0.1450    5.8080 o         1 C4M     -0.456900
     14 O14         0.4220    0.5000    5.1700 o         1 C4M     -0.456900
     15 N15         2.3590    2.5340    4.9910 n8        1 C4M     -0.976800
     16 C16         1.7350    3.1000    6.1720 c3        1 C4M      0.121800
     17 C17         1.9780    4.6100    6.4000 c3        1 C4M      0.101100
     18 O18         1.7140    5.2410    5.1640 oh        1 C4M     -0.577800
     19 C19         0.9940    5.1860    7.4530 c3        1 C4M      0.079500
     20 N20         1.1620    4.5490    8.8010 nz        1 C4M     -0.839600
     21 C21         1.1610    6.7130    7.5540 c3        1 C4M     -0.053100
     22 C22         0.3680    7.2850    8.6730 ca        1 C4M     -0.178300
     23 C23        -0.9580    7.6830    8.4680 ca        1 C4M     -0.135000
     24 C24        -1.6840    8.2640    9.5090 ca        1 C4M     -0.108000
     25 C25        -1.0890    8.4530   10.7570 ca        1 C4M     -0.087000
     26 C26         0.2360    8.0620   10.9640 ca        1 C4M     -0.108000
     27 C27         0.9630    7.4810    9.9280 ca        1 C4M     -0.135000
     28 H1C1        0.9540   -2.2990   -1.1400 h1        1 C4M      0.081700
     29 H1C2        2.3490   -2.1990   -2.3450 h1        1 C4M      0.081700
     30 H1C3        1.5130   -0.6560   -1.7740 h1        1 C4M      0.081700
     31 H4          0.4880   -0.5250    0.2740 ha        1 C4M      0.181000
     32 H6C1       -0.9100    0.5900    1.6400 hc        1 C4M      0.086033
     33 H6C2       -0.2370    1.4950    3.0540 hc        1 C4M      0.086033
     34 H6C3       -0.8990   -0.1820    3.2750 hc        1 C4M      0.086033
     35 H9C1        5.4570   -0.5240    3.4050 hc        1 C4M      0.082033
     36 H9C2        4.4160    0.4530    4.5010 hc        1 C4M      0.082033
     37 H9C3        4.4260   -1.3620    4.6350 hc        1 C4M      0.082033
     38 H111        5.6600   -0.7960    1.1760 hc        1 C4M      0.075700
     39 H112        4.8800   -2.1940    0.3300 hc        1 C4M      0.075700
     40 H113        5.3120   -2.3360    2.0810 hc        1 C4M      0.075700
     41 H15         3.3610    2.5900    5.0600 hn        1 C4M      0.401300
     42 H161        0.6230    2.9230    6.0770 h1        1 C4M      0.081700
     43 H162        2.1210    2.5370    7.0690 h1        1 C4M      0.081700
     44 H17         3.0400    4.7950    6.7260 h1        1 C4M      0.066700
     45 H18         2.1430    6.1100    5.1680 ho        1 C4M      0.446000
     46 H19        -0.0660    4.9640    7.1180 hx        1 C4M      0.128700
     47 H201        0.5790    5.0670    9.4830 hn        1 C4M      0.466133
     48 H202        0.8720    3.5690    8.7730 hn        1 C4M      0.466133
     49 H211        0.8090    7.1470    6.5770 hc        1 C4M      0.092200
     50 H212        2.2480    6.9700    7.6710 hc        1 C4M      0.092200
     51 H23        -1.4260    7.5610    7.4780 ha        1 C4M      0.135500
     52 H24        -2.7240    8.5870    9.3380 ha        1 C4M      0.164500
     53 H25        -1.6590    8.9240   11.5750 ha        1 C4M      0.169000
     54 H26         0.7130    8.2320   11.9440 ha        1 C4M      0.164500
     55 H27         2.0230    7.2290   10.0830 ha        1 C4M      0.135500
     56 H152        2.0680    3.0490    4.1730 hn        1 C4M      0.401300
     57 H203        2.1380    4.6090    9.1040 hn        1 C4M      0.466133
@<TRIPOS>BOND
     1    1    2 1   
     2    1   28 1   
     3    1   29 1   
     4    1   30 1   
     5    2    3 1   
     6    3    4 ar  
     7    3   10 ar  
     8    4    5 ar  
     9    4   31 1   
    10    5    6 1   
    11    5    7 ar  
    12    6   32 1   
    13    6   33 1   
    14    6   34 1   
    15    7    8 ar  
    16    7   12 1   
    17    8    9 1   
    18    8   10 ar  
    19    9   35 1   
    20    9   36 1   
    21    9   37 1   
    22   10   11 1   
    23   11   38 1   
    24   11   39 1   
    25   11   40 1   
    26   12   13 1   
    27   12   14 1   
    28   15   16 1   
    29   15   41 1   
    30   15   56 1   
    31   16   17 1   
    32   16   42 1   
    33   16   43 1   
    34   17   18 1   
    35   17   19 1   
    36   17   44 1   
    37   18   45 1   
    38   19   20 1   
    39   19   21 1   
    40   19   46 1   
    41   20   47 1   
    42   20   48 1   
    43   20   57 1   
    44   21   22 1   
    45   21   49 1   
    46   21   50 1   
    47   22   23 ar  
    48   22   27 ar  
    49   23   24 ar  
    50   23   51 1   
    51   24   25 ar  
    52   24   52 1   
    53   25   26 ar  
    54   25   53 1   
    55   26   27 ar  
    56   26   54 1   
    57   27   55 1   
@<TRIPOS>SUBSTRUCTURE
     1 C4M         1 TEMP              0 ****  ****    0 ROOT
