@<TRIPOS>MOLECULE
C4M
   57    57     1     0     0
SMALL
bcc


@<TRIPOS>ATOM
      1 C1          1.8940   -1.7280   -1.4730 c3        1 C4M      0.097700
      2 O2          2.8990   -1.6820   -0.4450 os        1 C4M     -0.267900
      3 C3          2.5810   -1.1420    0.7450 ca        1 C4M      0.309100
      4 C4          1.3190   -0.5860    1.0490 ca        1 C4M     -0.257000
      5 C5          1.0500   -0.0980    2.3080 ca        1 C4M      0.137700
      6 C6         -0.2950    0.4810    2.5590 c3        1 C4M     -0.116800
      7 C7          2.0310   -0.1600    3.3610 ca        1 C4M     -0.685500
      8 C8          3.3530   -0.6110    2.9790 ca        1 C4M      0.097700
      9 C9          4.4550   -0.5190    3.9720 c3        1 C4M     -0.111800
     10 C10         3.6220   -1.1300    1.7270 ca        1 C4M     -0.124300
     11 C11         4.9570   -1.6710    1.3680 c3        1 C4M     -0.067800
     12 S12         1.6740    0.1440    4.8180 s4        1 C4M      1.681300
     13 O13         2.5380   -0.1430    5.8310 o         1 C4M     -0.456900
     14 O14         0.4030    0.5080    5.1570 o         1 C4M     -0.456900
     15 N15         2.3520    2.5320    4.9950 n3        1 C4M     -0.976800
     16 C16         1.7180    3.1050    6.1670 c3        1 C4M      0.121800
     17 C17         1.9650    4.6150    6.3930 c3        1 C4M      0.101100
     18 O18         1.7160    5.2420    5.1520 oh        1 C4M     -0.577800
     19 C19         0.9720    5.2000    7.4330 c3        1 C4M      0.079500
     20 N20         1.1240    4.5670    8.7850 n4        1 C4M     -0.839600
     21 C21         1.1450    6.7260    7.5290 c3        1 C4M     -0.053100
     22 C22         0.3430    7.3070    8.6380 ca        1 C4M     -0.178300
     23 C23        -0.9790    7.7100    8.4190 ca        1 C4M     -0.135000
     24 C24        -1.7110    8.2970    9.4510 ca        1 C4M     -0.108000
     25 C25        -1.1280    8.4880   10.7040 ca        1 C4M     -0.087000
     26 C26         0.1940    8.0930   10.9250 ca        1 C4M     -0.108000
     27 C27         0.9280    7.5050    9.8980 ca        1 C4M     -0.135000
     28 H1C1        1.0190   -2.3290   -1.1290 h1        1 C4M      0.081700
     29 H1C2        1.5960   -0.6920   -1.7630 h1        1 C4M      0.081700
     30 H1C3        2.4330   -2.2430   -2.3120 h1        1 C4M      0.081700
     31 H4          0.5400   -0.5440    0.2670 ha        1 C4M      0.181000
     32 H6C1       -0.8730    0.5870    1.6050 hc        1 C4M      0.086033
     33 H6C2       -0.2170    1.4960    3.0260 hc        1 C4M      0.086033
     34 H6C3       -0.8920   -0.1770    3.2440 hc        1 C4M      0.086033
     35 H9C1        4.4070    0.4370    4.5500 hc        1 C4M      0.082033
     36 H9C2        4.4050   -1.3770    4.6950 hc        1 C4M      0.082033
     37 H9C3        5.4600   -0.5520    3.4770 hc        1 C4M      0.082033
     38 H111        4.9220   -2.2360    0.4020 hc        1 C4M      0.075700
     39 H112        5.3250   -2.3710    2.1610 hc        1 C4M      0.075700
     40 H113        5.6960   -0.8380    1.2520 hc        1 C4M      0.075700
     41 H15         2.0710    3.0440    4.1720 hn        1 C4M      0.401300
     42 H161        2.0910    2.5450    7.0710 h1        1 C4M      0.081700
     43 H162        0.6060    2.9330    6.0610 h1        1 C4M      0.081700
     44 H17         3.0250    4.7970    6.7280 h1        1 C4M      0.066700
     45 H18         2.1480    6.1090    5.1570 ho        1 C4M      0.446000
     46 H19        -0.0850    4.9810    7.0880 hx        1 C4M      0.128700
     47 H201        0.8310    3.5880    8.7580 hn        1 C4M      0.466133
     48 H202        2.0970    4.6250    9.0970 hn        1 C4M      0.466133
     49 H211        2.2320    6.9790    7.6550 hc        1 C4M      0.092200
     50 H212        0.8040    7.1580    6.5470 hc        1 C4M      0.092200
     51 H23        -1.4380    7.5850    7.4260 ha        1 C4M      0.135500
     52 H24        -2.7490    8.6240    9.2690 ha        1 C4M      0.164500
     53 H25        -1.7040    8.9650   11.5150 ha        1 C4M      0.169000
     54 H26         0.6610    8.2640   11.9090 ha        1 C4M      0.164500
     55 H27         1.9850    7.2480   10.0650 ha        1 C4M      0.135500
     56 H152        3.3540    2.5840    5.0740 hn        1 C4M      0.401300
     57 H203        0.5360    5.0900    9.4590 hn        1 C4M      0.466133
@<TRIPOS>BOND
     1    1    2 1   
     2    1   28 1   
     3    1   29 1   
     4    1   30 1   
     5    2    3 1   
     6    3    4 ar  
     7    3   10 ar  
     8    4    5 ar  
     9    4   31 1   
    10    5    6 1   
    11    5    7 ar  
    12    6   32 1   
    13    6   33 1   
    14    6   34 1   
    15    7    8 ar  
    16    7   12 1   
    17    8    9 1   
    18    8   10 ar  
    19    9   35 1   
    20    9   36 1   
    21    9   37 1   
    22   10   11 1   
    23   11   38 1   
    24   11   39 1   
    25   11   40 1   
    26   12   13 1   
    27   12   14 1   
    28   15   16 1   
    29   15   41 1   
    30   15   56 1   
    31   16   17 1   
    32   16   42 1   
    33   16   43 1   
    34   17   18 1   
    35   17   19 1   
    36   17   44 1   
    37   18   45 1   
    38   19   20 1   
    39   19   21 1   
    40   19   46 1   
    41   20   47 1   
    42   20   48 1   
    43   20   57 1   
    44   21   22 1   
    45   21   49 1   
    46   21   50 1   
    47   22   23 ar  
    48   22   27 ar  
    49   23   24 ar  
    50   23   51 1   
    51   24   25 ar  
    52   24   52 1   
    53   25   26 ar  
    54   25   53 1   
    55   26   27 ar  
    56   26   54 1   
    57   27   55 1   
@<TRIPOS>SUBSTRUCTURE
     1 C4M         1 TEMP              0 ****  ****    0 ROOT
