@<TRIPOS>MOLECULE
C4M
   55    51     1     0     0
SMALL
bcc


@<TRIPOS>ATOM
      1 C1          4.3420   -5.5110   -3.8820 c3        1 C4M     -0.079000
      2 O2          4.3780   -4.1290   -3.5940 os        1 C4M     -0.205000
      3 C3          3.2380   -3.6590   -2.8990 c2        1 C4M      0.151000
      4 C4          2.0430   -3.4700   -3.5780 c1        1 C4M     -0.246000
      5 C5          0.9570   -2.9000   -2.9260 c1        1 C4M      0.085000
      6 C6         -0.3810   -2.8070   -3.6300 c3        1 C4M     -0.211000
      7 C7          1.0680   -2.5200   -1.5950 c1        1 C4M     -0.866000
      8 C8          2.2610   -2.7080   -0.9180 c1        1 C4M      0.081000
      9 C9          2.3560   -2.3680    0.5510 c3        1 C4M     -0.212000
     10 C10         3.3480   -3.2780   -1.5700 c2        1 C4M     -0.131000
     11 C11         4.6690   -3.4330   -0.8440 c3        1 C4M     -0.171000
     12 S12        -0.3510   -1.8050   -0.7420 s4        1 C4M      2.074800
     13 O13        -0.6470   -2.5220    0.4690 o         1 C4M     -0.548400
     14 O14        -1.5630   -2.0060   -1.4890 o         1 C4M     -0.548400
     15 N15        -0.0900   -0.1890   -0.4390 n2        1 C4M     -0.892000
     16 C16        -1.1990    0.6700   -0.0750 c3        1 C4M     -0.046000
     17 C17        -0.6850    1.8480    0.7420 c3        1 C4M     -0.035000
     18 O18        -0.1150    2.7940   -0.1120 oh        1 C4M     -0.319000
     19 C19        -1.8390    2.4810    1.5020 c3        1 C4M     -0.020000
     20 N20        -2.0230    1.8060    2.7300 n3        1 C4M     -0.339000
     21 C21        -1.5290    3.9410    1.7710 c3        1 C4M     -0.115000
     22 C22        -2.6730    4.5660    2.5770 c2        1 C4M     -0.065000
     23 C23        -3.8230    4.9920    1.9320 c2        1 C4M     -0.127000
     24 C24        -4.8500    5.5730    2.6580 c1        1 C4M     -0.133000
     25 C25        -4.7270    5.7270    4.0310 c1        1 C4M     -0.132000
     26 C26        -3.5790    5.3020    4.6760 c1        1 C4M     -0.132000
     27 C27        -2.5500    4.7210    3.9480 c1        1 C4M     -0.107000
     28 H1C1        3.6110   -5.6960   -4.5070 h1        1 C4M      0.090000
     29 H1C2        4.1980   -6.0150   -3.0500 h1        1 C4M      0.090000
     30 H1C3        5.1960   -5.7840   -4.2860 h1        1 C4M      0.090000
     31 H4          1.9770   -3.7050   -4.5270 ha        1 C4M      0.145000
     32 H6C1       -0.2790   -3.0810   -4.5640 hc        1 C4M      0.104333
     33 H6C2       -1.0260   -3.3970   -3.1850 hc        1 C4M      0.104333
     34 H6C3       -0.7050   -1.8820   -3.5940 hc        1 C4M      0.104333
     35 H9C1        2.0920   -3.1460    1.0850 hc        1 C4M      0.103333
     36 H9C2        3.2820   -2.1190    0.7710 hc        1 C4M      0.103333
     37 H9C3        1.7620   -1.6190    0.7510 hc        1 C4M      0.103333
     38 H111        5.3810   -3.6060   -1.4950 hc        1 C4M      0.089667
     39 H112        4.8700   -2.6090   -0.3530 hc        1 C4M      0.089667
     40 H113        4.6110   -4.1820   -0.2170 hc        1 C4M      0.089667
     41 H15         0.7480    0.1630   -0.5300 hn        1 C4M      0.241000
     42 H161       -1.8440    0.1610    0.4560 h1        1 C4M      0.103000
     43 H162       -1.6340    1.0010   -0.8860 h1        1 C4M      0.103000
     44 H17        -0.0110    1.5340    1.3760 h1        1 C4M      0.075000
     45 H18         0.7680    2.7400   -0.0660 ho        1 C4M      0.201000
     46 H19        -2.6570    2.4140    0.9680 h1        1 C4M      0.122000
     47 H201       -1.2640    1.3400    2.9400 hn        1 C4M      0.148500
     48 H202       -2.7260    1.2250    2.6570 hn        1 C4M      0.148500
     49 H211       -0.6970    4.0100    2.2790 hc        1 C4M      0.093500
     50 H212       -1.4320    4.4160    0.9210 hc        1 C4M      0.093500
     51 H23        -3.9100    4.8830    0.9620 ha        1 C4M      0.131000
     52 H24        -5.6610    5.8730    2.2030 ha        1 C4M      0.128000
     53 H25        -5.4520    6.1370    4.5440 ha        1 C4M      0.128500
     54 H26        -3.4920    5.4110    5.6460 ha        1 C4M      0.128500
     55 H27        -1.7380    4.4200    4.4040 ha        1 C4M      0.134000
@<TRIPOS>BOND
     1    1    2 1   
     2    1   28 1   
     3    1   29 1   
     4    1   30 1   
     5    2    3 1   
     6    3    4 1   
     7    3   10 1   
     8    4   31 1   
     9    5    6 1   
    10    5    7 1   
    11    6   32 1   
    12    6   33 1   
    13    6   34 1   
    14    7   12 1   
    15    8    9 1   
    16    8   10 1   
    17    9   35 1   
    18    9   36 1   
    19    9   37 1   
    20   10   11 1   
    21   11   38 1   
    22   11   39 1   
    23   11   40 1   
    24   12   13 1   
    25   12   14 1   
    26   15   16 1   
    27   15   41 1   
    28   16   17 1   
    29   16   42 1   
    30   16   43 1   
    31   17   18 1   
    32   17   19 1   
    33   17   44 1   
    34   18   45 1   
    35   19   20 1   
    36   19   21 1   
    37   19   46 1   
    38   20   47 1   
    39   20   48 1   
    40   21   22 1   
    41   21   49 1   
    42   21   50 1   
    43   22   23 1   
    44   22   27 1   
    45   23   24 1   
    46   23   51 1   
    47   24   52 1   
    48   25   26 1   
    49   25   53 1   
    50   26   54 1   
    51   27   55 1   
@<TRIPOS>SUBSTRUCTURE
     1 C4M         1 TEMP              0 ****  ****    0 ROOT
