@<TRIPOS>MOLECULE
C4M
   57    57     1     0     0
SMALL
bcc


@<TRIPOS>ATOM
      1 C1          1.8160   -1.7350   -1.4560 c3        1 C4M      0.097700
      2 O2          2.8440   -1.6750   -0.4520 os        1 C4M     -0.267900
      3 C3          2.5460   -1.1390    0.7450 ca        1 C4M      0.309100
      4 C4          1.2840   -0.6020    1.0790 ca        1 C4M     -0.257000
      5 C5          1.0370   -0.1170    2.3440 ca        1 C4M      0.137700
      6 C6         -0.3100    0.4420    2.6260 c3        1 C4M     -0.116800
      7 C7          2.0440   -0.1650    3.3740 ca        1 C4M     -0.685500
      8 C8          3.3620   -0.5980    2.9610 ca        1 C4M      0.097700
      9 C9          4.4860   -0.4920    3.9280 c3        1 C4M     -0.111800
     10 C10         3.6100   -1.1140    1.7030 ca        1 C4M     -0.124300
     11 C11         4.9430   -1.6360    1.3130 c3        1 C4M     -0.067800
     12 S12         1.7170    0.1360    4.8390 s4        1 C4M      1.681300
     13 O13         2.6080   -0.1400    5.8310 o         1 C4M     -0.456900
     14 O14         0.4500    0.4850    5.2060 o         1 C4M     -0.456900
     15 N15         2.3690    2.5330    4.9980 n3        1 C4M     -0.976800
     16 C16         1.7400    3.1060    6.1730 c3        1 C4M      0.121800
     17 C17         1.9740    4.6200    6.3870 c3        1 C4M      0.101100
     18 O18         1.7070    5.2370    5.1450 oh        1 C4M     -0.577800
     19 C19         0.9850    5.2000    7.4330 c3        1 C4M      0.079500
     20 N20         1.1540    4.5750    8.7860 n4        1 C4M     -0.839600
     21 C21         1.1460    6.7280    7.5210 c3        1 C4M     -0.053100
     22 C22         0.3480    7.3070    8.6330 ca        1 C4M     -0.178300
     23 C23        -0.9800    7.6960    8.4230 ca        1 C4M     -0.135000
     24 C24        -1.7100    8.2820    9.4580 ca        1 C4M     -0.108000
     25 C25        -1.1180    8.4860   10.7050 ca        1 C4M     -0.087000
     26 C26         0.2100    8.1040   10.9180 ca        1 C4M     -0.108000
     27 C27         0.9410    7.5180    9.8870 ca        1 C4M     -0.135000
     28 H1C1        1.4970   -0.7030   -1.7390 h1        1 C4M      0.081700
     29 H1C2        2.3420   -2.2420   -2.3080 h1        1 C4M      0.081700
     30 H1C3        0.9580   -2.3480   -1.0920 h1        1 C4M      0.081700
     31 H4          0.4860   -0.5710    0.3160 ha        1 C4M      0.181000
     32 H6C1       -0.2360    1.4580    3.0900 hc        1 C4M      0.086033
     33 H6C2       -0.8800   -0.2240    3.3270 hc        1 C4M      0.086033
     34 H6C3       -0.9120    0.5380    1.6870 hc        1 C4M      0.086033
     35 H9C1        5.4800   -0.5120    3.4100 hc        1 C4M      0.082033
     36 H9C2        4.4630   -1.3490    4.6520 hc        1 C4M      0.082033
     37 H9C3        4.4390    0.4640    4.5070 hc        1 C4M      0.082033
     38 H111        5.6680   -0.7930    1.1810 hc        1 C4M      0.075700
     39 H112        5.3380   -2.3310    2.0960 hc        1 C4M      0.075700
     40 H113        4.8930   -2.2010    0.3470 hc        1 C4M      0.075700
     41 H15         3.3720    2.5940    5.0680 hn        1 C4M      0.401300
     42 H161        0.6300    2.9210    6.0780 h1        1 C4M      0.081700
     43 H162        2.1290    2.5540    7.0760 h1        1 C4M      0.081700
     44 H17         3.0350    4.8140    6.7110 h1        1 C4M      0.067700
     45 H18         2.1310    6.1080    5.1400 ho        1 C4M      0.446000
     46 H19        -0.0730    4.9700    7.0980 hx        1 C4M      0.128700
     47 H201        2.1300    4.6420    9.0900 hn        1 C4M      0.466133
     48 H202        0.8690    3.5940    8.7680 hn        1 C4M      0.466133
     49 H211        2.2310    6.9920    7.6370 hc        1 C4M      0.092200
     50 H212        0.7930    7.1520    6.5390 hc        1 C4M      0.092200
     51 H23        -1.4460    7.5620    7.4340 ha        1 C4M      0.135000
     52 H24        -2.7510    8.5980    9.2840 ha        1 C4M      0.164500
     53 H25        -1.6910    8.9620   11.5180 ha        1 C4M      0.169000
     54 H26         0.6840    8.2860   11.8960 ha        1 C4M      0.164500
     55 H27         2.0020    7.2720   10.0460 ha        1 C4M      0.135000
     56 H152        2.0770    3.0380    4.1750 hn        1 C4M      0.401300
     57 H203        0.5690    5.0970    9.4630 hn        1 C4M      0.466133
@<TRIPOS>BOND
     1    1    2 1   
     2    1   28 1   
     3    1   29 1   
     4    1   30 1   
     5    2    3 1   
     6    3    4 ar  
     7    3   10 ar  
     8    4    5 ar  
     9    4   31 1   
    10    5    6 1   
    11    5    7 ar  
    12    6   32 1   
    13    6   33 1   
    14    6   34 1   
    15    7    8 ar  
    16    7   12 1   
    17    8    9 1   
    18    8   10 ar  
    19    9   35 1   
    20    9   36 1   
    21    9   37 1   
    22   10   11 1   
    23   11   38 1   
    24   11   39 1   
    25   11   40 1   
    26   12   13 1   
    27   12   14 1   
    28   15   16 1   
    29   15   41 1   
    30   15   56 1   
    31   16   17 1   
    32   16   42 1   
    33   16   43 1   
    34   17   18 1   
    35   17   19 1   
    36   17   44 1   
    37   18   45 1   
    38   19   20 1   
    39   19   21 1   
    40   19   46 1   
    41   20   47 1   
    42   20   48 1   
    43   20   57 1   
    44   21   22 1   
    45   21   49 1   
    46   21   50 1   
    47   22   23 ar  
    48   22   27 ar  
    49   23   24 ar  
    50   23   51 1   
    51   24   25 ar  
    52   24   52 1   
    53   25   26 ar  
    54   25   53 1   
    55   26   27 ar  
    56   26   54 1   
    57   27   55 1   
@<TRIPOS>SUBSTRUCTURE
     1 C4M         1 TEMP              0 ****  ****    0 ROOT
