@<TRIPOS>MOLECULE
C4M
   55    56     1     0     0
SMALL
bcc


@<TRIPOS>ATOM
      1 C1          5.6550    3.8520   -0.8920 c3        1 C4M      0.111700
      2 O2          5.6170    2.8240    0.0940 os        1 C4M     -0.322900
      3 C3          4.6650    1.8420   -0.0740 ca        1 C4M      0.193100
      4 C4          3.7230    1.8470   -1.1040 ca        1 C4M     -0.247000
      5 C5          2.8020    0.8030   -1.2140 ca        1 C4M      0.081700
      6 C6          1.8290    0.8790   -2.3350 c3        1 C4M     -0.087800
      7 C7          2.8110   -0.2670   -0.2990 ca        1 C4M     -0.412500
      8 C8          3.7300   -0.2200    0.7760 ca        1 C4M      0.073700
      9 C9          3.7170   -1.2790    1.8210 c3        1 C4M     -0.083800
     10 C10         4.6800    0.8040    0.8850 ca        1 C4M     -0.138300
     11 C11         5.6900    0.8190    1.9700 c3        1 C4M     -0.044800
     12 S12         1.7810   -1.5990   -0.5120 sy        1 C4M      1.518200
     13 O13         2.3810   -2.7570    0.0330 o         1 C4M     -0.662300
     14 O14         1.4140   -1.7190   -1.8720 o         1 C4M     -0.662300
     15 N15         0.4880   -1.2110    0.3790 n3        1 C4M     -0.922100
     16 C16        -0.7100   -0.6150   -0.1300 c3        1 C4M      0.201800
     17 C17        -1.9920   -1.1560    0.5360 c3        1 C4M      0.126100
     18 O18        -1.8950   -1.0810    1.9490 oh        1 C4M     -0.596800
     19 C19        -3.2390   -0.3710    0.0530 c3        1 C4M      0.140500
     20 N20        -3.3180   -0.2910   -1.3900 n3        1 C4M     -0.903800
     21 C21        -4.4750   -0.9920    0.7390 c3        1 C4M     -0.081100
     22 C22        -5.7030   -0.1930    0.4840 ca        1 C4M     -0.084300
     23 C23        -6.0760    0.8310    1.3630 ca        1 C4M     -0.131000
     24 C24        -7.2290    1.5770    1.1250 ca        1 C4M     -0.125000
     25 C25        -8.0190    1.3090    0.0070 ca        1 C4M     -0.130000
     26 C26        -7.6540    0.2880   -0.8710 ca        1 C4M     -0.125000
     27 C27        -6.5020   -0.4600   -0.6350 ca        1 C4M     -0.131000
     28 H1C1        5.8460    3.4220   -1.9050 h1        1 C4M      0.048700
     29 H1C2        4.7040    4.4380   -0.8840 h1        1 C4M      0.048700
     30 H1C3        6.5150    4.4890   -0.5640 h1        1 C4M      0.048700
     31 H4          3.6980    2.6670   -1.8370 ha        1 C4M      0.143000
     32 H6C1        2.0760    0.1100   -3.1130 hc        1 C4M      0.065700
     33 H6C2        0.7880    0.6800   -1.9740 hc        1 C4M      0.065700
     34 H6C3        1.8440    1.8880   -2.8160 hc        1 C4M      0.065700
     35 H9C1        4.2490   -2.1910    1.4410 hc        1 C4M      0.063367
     36 H9C2        4.2130   -0.9420    2.7630 hc        1 C4M      0.063367
     37 H9C3        2.6730   -1.5790    2.0860 hc        1 C4M      0.063367
     38 H111        6.1920   -0.1780    2.0520 hc        1 C4M      0.049033
     39 H112        6.4790    1.5880    1.7780 hc        1 C4M      0.049033
     40 H113        5.2060    1.0560    2.9500 hc        1 C4M      0.049033
     41 H15         0.4440   -1.4110    1.3520 hn        1 C4M      0.452800
     42 H161       -0.6800    0.5030    0.0350 h1        1 C4M      0.062200
     43 H162       -0.7700   -0.8040   -1.2420 h1        1 C4M      0.062200
     44 H17        -2.1160   -2.2560    0.3290 h1        1 C4M      0.086700
     45 H18        -1.7790   -0.1510    2.1820 ho        1 C4M      0.400000
     46 H19        -3.1400    0.6930    0.4290 h1        1 C4M      0.059700
     47 H201       -3.3240   -1.2070   -1.7960 hn        1 C4M      0.355800
     48 H202       -4.1570    0.1890   -1.6570 hn        1 C4M      0.355800
     49 H211       -4.6170   -2.0430    0.3730 hc        1 C4M      0.064200
     50 H212       -4.2710   -1.0480    1.8420 hc        1 C4M      0.064200
     51 H23        -5.4580    1.0420    2.2480 ha        1 C4M      0.130000
     52 H24        -7.5160    2.3790    1.8210 ha        1 C4M      0.133000
     53 H25        -8.9290    1.8980   -0.1800 ha        1 C4M      0.133000
     54 H26        -8.2780    0.0710   -1.7510 ha        1 C4M      0.133000
     55 H27        -6.2240   -1.2700   -1.3250 ha        1 C4M      0.130000
@<TRIPOS>BOND
     1    1    2 1   
     2    1   28 1   
     3    1   29 1   
     4    1   30 1   
     5    2    3 1   
     6    3    4 ar  
     7    3   10 ar  
     8    4    5 ar  
     9    4   31 1   
    10    5    6 1   
    11    5    7 ar  
    12    6   32 1   
    13    6   33 1   
    14    6   34 1   
    15    7    8 ar  
    16    7   12 1   
    17    8    9 1   
    18    8   10 ar  
    19    9   35 1   
    20    9   36 1   
    21    9   37 1   
    22   10   11 1   
    23   11   38 1   
    24   11   39 1   
    25   11   40 1   
    26   12   13 2   
    27   12   14 2   
    28   12   15 1   
    29   15   16 1   
    30   15   41 1   
    31   16   17 1   
    32   16   42 1   
    33   16   43 1   
    34   17   18 1   
    35   17   19 1   
    36   17   44 1   
    37   18   45 1   
    38   19   20 1   
    39   19   21 1   
    40   19   46 1   
    41   20   47 1   
    42   20   48 1   
    43   21   22 1   
    44   21   49 1   
    45   21   50 1   
    46   22   23 ar  
    47   22   27 ar  
    48   23   24 ar  
    49   23   51 1   
    50   24   25 ar  
    51   24   52 1   
    52   25   26 ar  
    53   25   53 1   
    54   26   27 ar  
    55   26   54 1   
    56   27   55 1   
@<TRIPOS>SUBSTRUCTURE
     1 C4M         1 TEMP              0 ****  ****    0 ROOT
