@<TRIPOS>MOLECULE
C4P
   63    65     1     0     0
SMALL
bcc


@<TRIPOS>ATOM
      1 N43         0.3390    0.2390   -0.2400 n4        1 C4P     -0.668800
      2 C40         0.3390   -1.3000   -0.3510 c         1 C4P      0.641100
      3 O41         1.3990   -1.8050    0.0660 o         1 C4P     -0.585100
      4 N1         -0.7670   -1.9360   -0.8090 n         1 C4P     -0.376800
      5 C2         -0.6510   -3.3790   -1.0700 c3        1 C4P      0.032000
      6 C3         -2.0010   -4.1030   -0.9660 c3        1 C4P      0.114900
      7 O4         -2.9910   -3.4280   -1.7280 os        1 C4P     -0.365600
      8 C5         -3.2210   -2.1190   -1.2430 c3        1 C4P      0.114900
      9 C6         -1.9440   -1.2560   -1.3300 c3        1 C4P      0.032000
     10 C44         1.7370    0.7550   -0.0480 c3        1 C4P      0.076500
     11 C45         2.2750    0.3030    1.3180 c         1 C4P      0.543100
     12 O46         1.6280    0.4040    2.3540 o         1 C4P     -0.411100
     13 N54         3.6300   -0.2810    1.3530 n4        1 C4P     -0.687800
     14 C55         4.5030    0.2920    2.4430 c3        1 C4P     -0.005500
     15 C56         5.2500    1.5530    2.0000 c         1 C4P      0.575900
     16 O57         5.0190    2.0700    0.9100 o         1 C4P     -0.505100
     17 C58         5.5060   -0.7530    2.9390 c3        1 C4P     -0.078300
     18 S1          4.7350   -2.3490    2.9290 ss        1 C4P     -0.260200
     19 C1          5.9680   -3.4330    2.1920 c3        1 C4P      0.078000
     20 C62         5.2950   -4.7340    2.0330 ca        1 C4P     -0.139300
     21 C67         4.8940   -5.1720    0.7630 ca        1 C4P     -0.101000
     22 C66         4.3050   -6.4250    0.6100 ca        1 C4P     -0.125000
     23 C65         4.1080   -7.2480    1.7210 ca        1 C4P     -0.088000
     24 C64         4.5040   -6.8160    2.9870 ca        1 C4P     -0.125000
     25 C63         5.1000   -5.5660    3.1450 ca        1 C4P     -0.101000
     26 C47         1.7820    2.2980   -0.1070 c3        1 C4P     -0.049100
     27 C48         1.1410    2.7950   -1.3510 ca        1 C4P     -0.184300
     28 C49        -0.2170    3.1500   -1.3440 ca        1 C4P     -0.133000
     29 C51        -0.8070    3.6760   -2.4910 ca        1 C4P     -0.107500
     30 C53        -0.0490    3.8520   -3.6510 ca        1 C4P     -0.081000
     31 C52         1.3020    3.5050   -3.6600 ca        1 C4P     -0.107500
     32 C50         1.8980    2.9800   -2.5130 ca        1 C4P     -0.133000
     33 H43        -0.0430    0.6830   -1.0930 hn        1 C4P      0.483300
     34 H21        -0.2420   -3.5030   -2.1150 h1        1 C4P      0.082700
     35 H22         0.0710   -3.8320   -0.3330 h1        1 C4P      0.082700
     36 H31        -2.3260   -4.2010    0.1030 h1        1 C4P      0.095200
     37 H32        -1.9150   -5.1180   -1.4430 h1        1 C4P      0.095200
     38 H51A       -4.0030   -1.6900   -1.9280 h1        1 C4P      0.095200
     39 H52A       -3.5990   -2.1510   -0.1870 h1        1 C4P      0.095200
     40 H61        -1.7560   -0.9970   -2.4130 h1        1 C4P      0.082700
     41 H62        -2.1470   -0.3140   -0.7490 h1        1 C4P      0.082700
     42 H44         2.3540    0.3340   -0.9000 hx        1 C4P      0.138700
     43 H54         4.0930   -0.1400    0.4490 hn        1 C4P      0.491300
     44 H55         3.8220    0.5770    3.3080 hx        1 C4P      0.154700
     45 H56         5.9780    1.9360    2.7460 h4        1 C4P      0.094200
     46 H581        5.8000   -0.4830    3.9870 h1        1 C4P      0.121700
     47 H582        6.4360   -0.7520    2.3190 h1        1 C4P      0.121700
     48 H11         6.3280   -3.0180    1.2210 h1        1 C4P      0.089700
     49 H12         6.8350   -3.5050    2.8970 h1        1 C4P      0.089700
     50 H67         5.0700   -4.5400   -0.1200 ha        1 C4P      0.136000
     51 H66         4.0120   -6.7760   -0.3920 ha        1 C4P      0.153500
     52 H65         3.6520   -8.2430    1.5950 ha        1 C4P      0.157000
     53 H64         4.3590   -7.4690    3.8630 ha        1 C4P      0.153500
     54 H63         5.4280   -5.2370    4.1440 ha        1 C4P      0.136000
     55 H471        2.8690    2.5990   -0.0750 hc        1 C4P      0.109200
     56 H472        1.2790    2.7300    0.8000 hc        1 C4P      0.109200
     57 H49        -0.8050    3.0750   -0.4160 ha        1 C4P      0.136500
     58 H51        -1.8680    3.9770   -2.4760 ha        1 C4P      0.167500
     59 H53        -0.5150    4.2830   -4.5540 ha        1 C4P      0.173000
     60 H52         1.9070    3.6620   -4.5690 ha        1 C4P      0.167500
     61 H50         2.9730    2.7390   -2.5190 ha        1 C4P      0.136500
     62 H432       -0.2420    0.5200    0.5610 hn        1 C4P      0.483300
     63 H542        3.5830   -1.3610    1.5680 hn        1 C4P      0.491300
@<TRIPOS>BOND
     1    1    2 1   
     2    1   10 1   
     3    1   33 1   
     4    1   62 1   
     5    2    3 2   
     6    2    4 1   
     7    4    5 1   
     8    4    9 1   
     9    5    6 1   
    10    5   34 1   
    11    5   35 1   
    12    6    7 1   
    13    6   36 1   
    14    6   37 1   
    15    7    8 1   
    16    8    9 1   
    17    8   38 1   
    18    8   39 1   
    19    9   40 1   
    20    9   41 1   
    21   10   11 1   
    22   10   26 1   
    23   10   42 1   
    24   11   12 2   
    25   11   13 1   
    26   13   14 1   
    27   13   43 1   
    28   13   63 1   
    29   14   15 1   
    30   14   17 1   
    31   14   44 1   
    32   15   16 2   
    33   15   45 1   
    34   17   18 1   
    35   17   46 1   
    36   17   47 1   
    37   18   19 1   
    38   19   20 1   
    39   19   48 1   
    40   19   49 1   
    41   20   21 ar  
    42   20   25 ar  
    43   21   22 ar  
    44   21   50 1   
    45   22   23 ar  
    46   22   51 1   
    47   23   24 ar  
    48   23   52 1   
    49   24   25 ar  
    50   24   53 1   
    51   25   54 1   
    52   26   27 1   
    53   26   55 1   
    54   26   56 1   
    55   27   28 ar  
    56   27   32 ar  
    57   28   29 ar  
    58   28   57 1   
    59   29   30 ar  
    60   29   58 1   
    61   30   31 ar  
    62   30   59 1   
    63   31   32 ar  
    64   31   60 1   
    65   32   61 1   
@<TRIPOS>SUBSTRUCTURE
     1 C4P         1 TEMP              0 ****  ****    0 ROOT
