@<TRIPOS>MOLECULE
C4P
   63    65     1     0     0
SMALL
bcc


@<TRIPOS>ATOM
      1 N43         0.3810    0.2710   -0.3060 n4        1 C4P     -0.668800
      2 C40         0.3300   -1.2710   -0.3350 c         1 C4P      0.641100
      3 O41         1.3780   -1.7860    0.1010 o         1 C4P     -0.585100
      4 N1         -0.7990   -1.8940   -0.7500 n         1 C4P     -0.376800
      5 C2         -0.7320   -3.3520   -0.9350 c3        1 C4P      0.032000
      6 C3         -2.1040   -4.0250   -0.7830 c3        1 C4P      0.114900
      7 O4         -3.0780   -3.3590   -1.5730 os        1 C4P     -0.365600
      8 C5         -3.2620   -2.0200   -1.1570 c3        1 C4P      0.114900
      9 C6         -1.9580   -1.2050   -1.2980 c3        1 C4P      0.032000
     10 C44         1.7960    0.7520   -0.1520 c3        1 C4P      0.076500
     11 C45         2.3310    0.3550    1.2320 c         1 C4P      0.543100
     12 O46         1.6970    0.5310    2.2660 o         1 C4P     -0.411100
     13 N54         3.6680   -0.2690    1.2890 n4        1 C4P     -0.687800
     14 C55         4.5680    0.3320    2.3410 c3        1 C4P     -0.005500
     15 C56         5.3490    1.5440    1.8270 c         1 C4P      0.575900
     16 O57         5.1260    2.0100    0.7130 o         1 C4P     -0.505100
     17 C58         5.5410   -0.7170    2.8840 c3        1 C4P     -0.078300
     18 S1          4.7210   -2.2850    2.9630 ss        1 C4P     -0.260200
     19 C1          5.9130   -3.4460    2.2770 c3        1 C4P      0.078000
     20 C62         5.1990   -4.7320    2.1920 ca        1 C4P     -0.139300
     21 C67         4.7730   -5.2230    0.9490 ca        1 C4P     -0.101000
     22 C66         4.1450   -6.4630    0.8670 ca        1 C4P     -0.125000
     23 C65         3.9320   -7.2200    2.0220 ca        1 C4P     -0.088000
     24 C64         4.3520   -6.7340    3.2600 ca        1 C4P     -0.125000
     25 C63         4.9870   -5.4970    3.3480 ca        1 C4P     -0.101000
     26 C47         1.8900    2.2870   -0.2940 c3        1 C4P     -0.049100
     27 C48         1.2540    2.7380   -1.5580 ca        1 C4P     -0.184300
     28 C49        -0.0920    3.1360   -1.5600 ca        1 C4P     -0.133000
     29 C51        -0.6750    3.6190   -2.7290 ca        1 C4P     -0.107500
     30 C53         0.0790    3.7090   -3.9030 ca        1 C4P     -0.081000
     31 C52         1.4180    3.3170   -3.9030 ca        1 C4P     -0.107500
     32 C50         2.0070    2.8350   -2.7330 ca        1 C4P     -0.133000
     33 H43        -0.1840    0.6140    0.4830 hn        1 C4P      0.483300
     34 H21        -0.0180   -3.7870   -0.1790 h1        1 C4P      0.082700
     35 H22        -0.3360   -3.5450   -1.9740 h1        1 C4P      0.082700
     36 H31        -2.0540   -5.0660   -1.2050 h1        1 C4P      0.095200
     37 H32        -2.4230   -4.0550    0.2920 h1        1 C4P      0.095200
     38 H51A       -4.0360   -1.6030   -1.8590 h1        1 C4P      0.095200
     39 H52A       -3.6320   -1.9830   -0.0990 h1        1 C4P      0.095200
     40 H61        -2.1270   -0.2270   -0.7670 h1        1 C4P      0.082700
     41 H62        -1.7720   -1.0100   -2.3950 h1        1 C4P      0.082700
     42 H44         2.3920    0.2660   -0.9850 hx        1 C4P      0.138700
     43 H54         3.5880   -1.3340    1.5610 hn        1 C4P      0.491300
     44 H55         3.9020    0.6830    3.1950 hx        1 C4P      0.154700
     45 H56         6.0960    1.9430    2.5470 h4        1 C4P      0.094200
     46 H581        6.4650   -0.7780    2.2590 h1        1 C4P      0.121700
     47 H582        5.8530   -0.4020    3.9150 h1        1 C4P      0.121700
     48 H11         6.7830   -3.5070    2.9780 h1        1 C4P      0.089700
     49 H12         6.2760   -3.0940    1.2830 h1        1 C4P      0.089700
     50 H67         4.9610   -4.6450    0.0330 ha        1 C4P      0.136000
     51 H66         3.8330   -6.8570   -0.1130 ha        1 C4P      0.154000
     52 H65         3.4450   -8.2060    1.9520 ha        1 C4P      0.157000
     53 H64         4.1950   -7.3350    4.1710 ha        1 C4P      0.154000
     54 H63         5.3340   -5.1260    4.3260 ha        1 C4P      0.136000
     55 H471        1.4090    2.7830    0.5930 hc        1 C4P      0.109200
     56 H472        2.9860    2.5530   -0.2860 hc        1 C4P      0.109200
     57 H49        -0.6730    3.1310   -0.6250 ha        1 C4P      0.136500
     58 H51        -1.7250    3.9550   -2.7230 ha        1 C4P      0.167500
     59 H53        -0.3810    4.1060   -4.8240 ha        1 C4P      0.173000
     60 H52         2.0190    3.4060   -4.8230 ha        1 C4P      0.167500
     61 H50         3.0730    2.5590   -2.7340 ha        1 C4P      0.136500
     62 H432        0.0050    0.6810   -1.1790 hn        1 C4P      0.483300
     63 H542        4.1270   -0.1910    0.3750 hn        1 C4P      0.491300
@<TRIPOS>BOND
     1    1    2 1   
     2    1   10 1   
     3    1   33 1   
     4    1   62 1   
     5    2    3 2   
     6    2    4 1   
     7    4    5 1   
     8    4    9 1   
     9    5    6 1   
    10    5   34 1   
    11    5   35 1   
    12    6    7 1   
    13    6   36 1   
    14    6   37 1   
    15    7    8 1   
    16    8    9 1   
    17    8   38 1   
    18    8   39 1   
    19    9   40 1   
    20    9   41 1   
    21   10   11 1   
    22   10   26 1   
    23   10   42 1   
    24   11   12 2   
    25   11   13 1   
    26   13   14 1   
    27   13   43 1   
    28   13   63 1   
    29   14   15 1   
    30   14   17 1   
    31   14   44 1   
    32   15   16 2   
    33   15   45 1   
    34   17   18 1   
    35   17   46 1   
    36   17   47 1   
    37   18   19 1   
    38   19   20 1   
    39   19   48 1   
    40   19   49 1   
    41   20   21 ar  
    42   20   25 ar  
    43   21   22 ar  
    44   21   50 1   
    45   22   23 ar  
    46   22   51 1   
    47   23   24 ar  
    48   23   52 1   
    49   24   25 ar  
    50   24   53 1   
    51   25   54 1   
    52   26   27 1   
    53   26   55 1   
    54   26   56 1   
    55   27   28 ar  
    56   27   32 ar  
    57   28   29 ar  
    58   28   57 1   
    59   29   30 ar  
    60   29   58 1   
    61   30   31 ar  
    62   30   59 1   
    63   31   32 ar  
    64   31   60 1   
    65   32   61 1   
@<TRIPOS>SUBSTRUCTURE
     1 C4P         1 TEMP              0 ****  ****    0 ROOT
