@<TRIPOS>MOLECULE
C4P
   63    65     1     0     0
SMALL
bcc


@<TRIPOS>ATOM
      1 N43         0.3710    0.2510   -0.3150 ny        1 C4P     -0.668800
      2 C40         0.3380   -1.2910   -0.3540 c         1 C4P      0.641100
      3 O41         1.3850   -1.7980    0.0950 o         1 C4P     -0.585100
      4 N1         -0.7770   -1.9250   -0.7910 n         1 C4P     -0.376800
      5 C2         -0.6900   -3.3800   -0.9840 c3        1 C4P      0.032000
      6 C3         -2.0560   -4.0700   -0.8570 c3        1 C4P      0.114900
      7 O4         -3.0250   -3.4120   -1.6580 os        1 C4P     -0.365600
      8 C5         -3.2320   -2.0770   -1.2370 c3        1 C4P      0.114900
      9 C6         -1.9350   -1.2460   -1.3530 c3        1 C4P      0.032000
     10 C44         1.7780    0.7470   -0.1350 c3        1 C4P      0.076500
     11 C45         2.2950    0.3480    1.2540 c         1 C4P      0.543100
     12 O46         1.6430    0.5090    2.2790 o         1 C4P     -0.411100
     13 N54         3.6380   -0.2620    1.3290 ny        1 C4P     -0.687800
     14 C55         4.5140    0.3430    2.3990 c3        1 C4P     -0.005500
     15 C56         5.2900    1.5670    1.9050 c         1 C4P      0.575900
     16 O57         5.0790    2.0370    0.7910 o         1 C4P     -0.505100
     17 C58         5.4900   -0.6980    2.9510 c3        1 C4P     -0.078300
     18 S1          4.6880   -2.2770    3.0060 ss        1 C4P     -0.260200
     19 C1          5.9040   -3.4180    2.3310 c3        1 C4P      0.078000
     20 C62         5.2050   -4.7120    2.2240 ca        1 C4P     -0.139300
     21 C67         4.8050   -5.1990    0.9710 ca        1 C4P     -0.101000
     22 C66         4.1920   -6.4440    0.8690 ca        1 C4P     -0.125000
     23 C65         3.9690   -7.2120    2.0140 ca        1 C4P     -0.088000
     24 C64         4.3630   -6.7320    3.2630 ca        1 C4P     -0.125000
     25 C63         4.9830   -5.4880    3.3710 ca        1 C4P     -0.101000
     26 C47         1.8560    2.2840   -0.2660 c3        1 C4P     -0.049100
     27 C48         1.2350    2.7360   -1.5360 ca        1 C4P     -0.184300
     28 C49        -0.1150    3.1180   -1.5580 ca        1 C4P     -0.133000
     29 C51        -0.6850    3.6020   -2.7330 ca        1 C4P     -0.107500
     30 C53         0.0860    3.7090   -3.8940 ca        1 C4P     -0.081000
     31 C52         1.4290    3.3330   -3.8750 ca        1 C4P     -0.107500
     32 C50         2.0050    2.8500   -2.6990 ca        1 C4P     -0.133000
     33 H43        -0.2110    0.5820    0.4670 hn        1 C4P      0.483300
     34 H21         0.0180   -3.8130   -0.2200 h1        1 C4P      0.082700
     35 H22        -0.2750   -3.5620   -2.0180 h1        1 C4P      0.082700
     36 H31        -2.3900   -4.1110    0.2130 h1        1 C4P      0.095200
     37 H32        -1.9870   -5.1080   -1.2850 h1        1 C4P      0.095200
     38 H51A       -3.9990   -1.6650   -1.9480 h1        1 C4P      0.095200
     39 H52A       -3.6180   -2.0510   -0.1840 h1        1 C4P      0.095200
     40 H61        -2.1230   -0.2730   -0.8190 h1        1 C4P      0.082700
     41 H62        -1.7340   -1.0420   -2.4460 h1        1 C4P      0.082700
     42 H44         2.3920    0.2730   -0.9620 hx        1 C4P      0.138700
     43 H54         3.5670   -1.3290    1.5920 hn        1 C4P      0.491300
     44 H55         3.8320    0.6810    3.2440 hx        1 C4P      0.154700
     45 H56         6.0200    1.9690    2.6390 h4        1 C4P      0.094200
     46 H581        5.7820   -0.3870    3.9890 h1        1 C4P      0.121700
     47 H582        6.4260   -0.7450    2.3400 h1        1 C4P      0.121700
     48 H11         6.2790   -3.0550    1.3450 h1        1 C4P      0.089700
     49 H12         6.7630   -3.4760    3.0450 h1        1 C4P      0.089700
     50 H67         5.0020   -4.6110    0.0630 ha        1 C4P      0.136500
     51 H66         3.9010   -6.8340   -0.1180 ha        1 C4P      0.154000
     52 H65         3.4940   -8.2030    1.9300 ha        1 C4P      0.157000
     53 H64         4.1970   -7.3410    4.1670 ha        1 C4P      0.154000
     54 H63         5.3090   -5.1210    4.3570 ha        1 C4P      0.136500
     55 H471        1.3550    2.7680    0.6160 hc        1 C4P      0.109200
     56 H472        2.9480    2.5630   -0.2380 hc        1 C4P      0.109200
     57 H49        -0.7120    3.0990   -0.6330 ha        1 C4P      0.136500
     58 H51        -1.7400    3.9260   -2.7420 ha        1 C4P      0.167500
     59 H53        -0.3640    4.1070   -4.8190 ha        1 C4P      0.173000
     60 H52         2.0440    3.4360   -4.7850 ha        1 C4P      0.167500
     61 H50         3.0740    2.5870   -2.6840 ha        1 C4P      0.136500
     62 H432        0.0050    0.6620   -1.1910 hn        1 C4P      0.483300
     63 H542        4.1110   -0.1720    0.4230 hn        1 C4P      0.491300
@<TRIPOS>BOND
     1    1    2 1   
     2    1   10 1   
     3    1   33 1   
     4    1   62 1   
     5    2    3 2   
     6    2    4 1   
     7    4    5 1   
     8    4    9 1   
     9    5    6 1   
    10    5   34 1   
    11    5   35 1   
    12    6    7 1   
    13    6   36 1   
    14    6   37 1   
    15    7    8 1   
    16    8    9 1   
    17    8   38 1   
    18    8   39 1   
    19    9   40 1   
    20    9   41 1   
    21   10   11 1   
    22   10   26 1   
    23   10   42 1   
    24   11   12 2   
    25   11   13 1   
    26   13   14 1   
    27   13   43 1   
    28   13   63 1   
    29   14   15 1   
    30   14   17 1   
    31   14   44 1   
    32   15   16 2   
    33   15   45 1   
    34   17   18 1   
    35   17   46 1   
    36   17   47 1   
    37   18   19 1   
    38   19   20 1   
    39   19   48 1   
    40   19   49 1   
    41   20   21 ar  
    42   20   25 ar  
    43   21   22 ar  
    44   21   50 1   
    45   22   23 ar  
    46   22   51 1   
    47   23   24 ar  
    48   23   52 1   
    49   24   25 ar  
    50   24   53 1   
    51   25   54 1   
    52   26   27 1   
    53   26   55 1   
    54   26   56 1   
    55   27   28 ar  
    56   27   32 ar  
    57   28   29 ar  
    58   28   57 1   
    59   29   30 ar  
    60   29   58 1   
    61   30   31 ar  
    62   30   59 1   
    63   31   32 ar  
    64   31   60 1   
    65   32   61 1   
@<TRIPOS>SUBSTRUCTURE
     1 C4P         1 TEMP              0 ****  ****    0 ROOT
