@<TRIPOS>MOLECULE
C4P
   61    59     1     0     0
SMALL
bcc


@<TRIPOS>ATOM
      1 N43        -2.5390    0.8760   -1.4710 n         1 C4P     -0.383000
      2 C40        -3.2830    0.1360   -2.5000 c2        1 C4P      0.390000
      3 O41        -2.8420    0.0570   -3.6280 o         1 C4P     -0.418000
      4 N1         -4.5290   -0.5110   -2.1650 n         1 C4P     -0.292000
      5 C2         -5.2850   -1.2570   -3.1060 c3        1 C4P     -0.073500
      6 C3         -6.7310   -0.8230   -3.1550 c3        1 C4P     -0.029500
      7 O4         -7.3240   -0.7940   -1.8720 os        1 C4P     -0.263000
      8 C5         -6.5470   -0.0320   -0.9300 c3        1 C4P     -0.029500
      9 C6         -5.0890   -0.4680   -0.9000 c3        1 C4P     -0.073500
     10 C44        -1.0960    0.9480   -1.5340 c3        1 C4P      0.025000
     11 C45        -0.5420    1.0060   -0.1580 c2        1 C4P      0.293000
     12 O46        -0.8510    1.8980    0.5710 o         1 C4P     -0.392000
     13 N54         0.3350   -0.0880    0.3370 n         1 C4P     -0.367000
     14 C55         0.8570   -0.0300    1.6640 c3        1 C4P     -0.026000
     15 C56         1.2050    1.4310    2.0170 c2        1 C4P      0.167000
     16 O57         0.8130    1.9200    3.0900 o         1 C4P     -0.278000
     17 C58         2.0900   -0.8740    1.7580 c3        1 C4P     -0.313000
     18 S1          2.6310   -0.9500    3.4530 ss        1 C4P      0.088000
     19 C1          4.4020   -1.1890    3.5020 c3        1 C4P     -0.235000
     20 C62         4.8510   -1.3700    4.9320 c2        1 C4P     -0.071000
     21 C67         5.0130   -0.2790    5.7450 c2        1 C4P     -0.108000
     22 C66         5.3960   -0.4540    7.0760 c1        1 C4P     -0.132000
     23 C65         5.6110   -1.7270    7.5730 c1        1 C4P     -0.128000
     24 C64         5.4480   -2.8210    6.7560 c1        1 C4P     -0.128000
     25 C63         5.0680   -2.6490    5.4340 c1        1 C4P     -0.112000
     26 C47        -0.6660    2.2290   -2.3290 c3        1 C4P     -0.129000
     27 C48         0.1990    1.8120   -3.5400 c2        1 C4P     -0.089000
     28 C49         0.0640    2.4770   -4.7540 c2        1 C4P     -0.125000
     29 C51         0.8910    2.1490   -5.8230 c1        1 C4P     -0.132000
     30 C53         1.8640    1.1450   -5.6770 c1        1 C4P     -0.128000
     31 C52         1.9990    0.4830   -4.4700 c1        1 C4P     -0.128000
     32 C50         1.1640    0.8150   -3.3920 c1        1 C4P     -0.114000
     33 H43        -3.0020    1.3640   -0.8240 hn        1 C4P      0.234000
     34 H21        -4.8880   -1.1400   -3.9980 h1        1 C4P      0.097000
     35 H22        -5.2490   -2.1970   -2.8660 h1        1 C4P      0.097000
     36 H31        -7.2520   -1.4700   -3.7520 h1        1 C4P      0.100250
     37 H32        -6.7790    0.1080   -3.5580 h1        1 C4P      0.100250
     38 H51A       -6.5930    0.9340   -1.1800 h1        1 C4P      0.100250
     39 H52A       -6.9430   -0.1510   -0.0060 h1        1 C4P      0.100250
     40 H61        -5.0250   -1.3970   -0.4730 h1        1 C4P      0.097000
     41 H62        -4.5790    0.1720   -0.3510 h1        1 C4P      0.097000
     42 H44        -0.7550    0.1650   -1.9830 h1        1 C4P      0.139000
     43 H54         0.4110   -0.8260   -0.1280 hn        1 C4P      0.265000
     44 H55         0.2070   -0.3540    2.2700 h1        1 C4P      0.136000
     45 H56         1.8210    1.9640    1.4140 h4        1 C4P      0.125000
     46 H581        2.8250   -0.4650    1.1870 h1        1 C4P      0.130500
     47 H582        1.9000   -1.7450    1.4500 h1        1 C4P      0.130500
     48 H11         4.8690   -0.3730    3.0990 h1        1 C4P      0.109000
     49 H12         4.6270   -1.9620    3.0020 h1        1 C4P      0.109000
     50 H67         4.8520    0.6700    5.3730 ha        1 C4P      0.142000
     51 H66         5.5070    0.2900    7.6320 ha        1 C4P      0.133000
     52 H65         5.8720   -1.8460    8.4800 ha        1 C4P      0.132250
     53 H64         5.6000   -3.7110    7.1040 ha        1 C4P      0.132250
     54 H63         4.9530   -3.4270    4.8540 ha        1 C4P      0.135000
     55 H471       -1.4450    2.6910   -2.6400 hc        1 C4P      0.107500
     56 H472       -0.1290    2.8420   -1.7200 hc        1 C4P      0.107500
     57 H49        -0.5990    3.1610   -4.8540 ha        1 C4P      0.130000
     58 H51         0.7940    2.6230   -6.6910 ha        1 C4P      0.132000
     59 H53         2.4520    0.9130   -6.4350 ha        1 C4P      0.132250
     60 H52         2.7110   -0.2510   -4.3660 ha        1 C4P      0.132250
     61 H50         1.2580    0.3520   -2.5420 ha        1 C4P      0.155000
@<TRIPOS>BOND
     1    1    2 1   
     2    1   10 1   
     3    1   33 1   
     4    2    3 1   
     5    2    4 1   
     6    4    5 1   
     7    4    9 1   
     8    5    6 1   
     9    5   34 1   
    10    5   35 1   
    11    6    7 1   
    12    6   36 1   
    13    6   37 1   
    14    7    8 1   
    15    8    9 1   
    16    8   38 1   
    17    8   39 1   
    18    9   40 1   
    19    9   41 1   
    20   10   11 1   
    21   10   26 1   
    22   10   42 1   
    23   11   12 1   
    24   11   13 1   
    25   13   14 1   
    26   13   43 1   
    27   14   15 1   
    28   14   17 1   
    29   14   44 1   
    30   15   16 1   
    31   15   45 1   
    32   17   18 1   
    33   17   46 1   
    34   17   47 1   
    35   18   19 1   
    36   19   20 1   
    37   19   48 1   
    38   19   49 1   
    39   20   21 1   
    40   20   25 1   
    41   21   22 1   
    42   21   50 1   
    43   22   51 1   
    44   23   24 1   
    45   23   52 1   
    46   24   53 1   
    47   25   54 1   
    48   26   27 1   
    49   26   55 1   
    50   26   56 1   
    51   27   28 1   
    52   27   32 1   
    53   28   29 1   
    54   28   57 1   
    55   29   58 1   
    56   30   31 1   
    57   30   59 1   
    58   31   60 1   
    59   32   61 1   
@<TRIPOS>SUBSTRUCTURE
     1 C4P         1 TEMP              0 ****  ****    0 ROOT
