@<TRIPOS>MOLECULE
C4P
   61    63     1     0     0
SMALL
bcc


@<TRIPOS>ATOM
      1 N43        -0.7130   -0.6990    1.8050 n         1 C4P     -0.552900
      2 C40         0.3060   -1.5110    1.3060 c         1 C4P      0.743100
      3 O41         0.0200   -2.5050    0.5900 o         1 C4P     -0.657100
      4 N1          1.6660   -1.2250    1.6650 n         1 C4P     -0.403800
      5 C2          2.6510   -2.1260    1.0760 c3        1 C4P      0.026500
      6 C3          3.1600   -1.6850   -0.3010 c3        1 C4P      0.086900
      7 O4          3.5950   -0.3280   -0.2970 os        1 C4P     -0.420600
      8 C5          2.5970    0.5680    0.1850 c3        1 C4P      0.086900
      9 C6          2.1100    0.1590    1.5830 c3        1 C4P      0.026500
     10 C44        -2.0940   -1.0320    1.5490 c3        1 C4P      0.051700
     11 C45        -2.5540   -0.4000    0.2060 c         1 C4P      0.653100
     12 O46        -3.3850    0.5280    0.1740 o         1 C4P     -0.614100
     13 N54        -1.9760   -0.9140   -0.9320 n         1 C4P     -0.551900
     14 C55        -2.2710   -0.4010   -2.2420 c3        1 C4P      0.006700
     15 C56        -3.3000   -1.2210   -3.0230 c         1 C4P      0.546900
     16 O57        -3.6200   -2.3760   -2.7560 o         1 C4P     -0.505100
     17 C58        -1.0310   -0.2990   -3.1380 c3        1 C4P     -0.032300
     18 S1          0.0120    1.0070   -2.5600 ss        1 C4P     -0.278200
     19 C1          1.2410    1.0310   -3.8460 c3        1 C4P      0.038000
     20 C62         2.0990    2.2190   -3.6490 ca        1 C4P     -0.082300
     21 C67         3.2220    2.1500   -2.8140 ca        1 C4P     -0.114500
     22 C66         4.0430    3.2640   -2.6520 ca        1 C4P     -0.132000
     23 C65         3.7510    4.4540   -3.3180 ca        1 C4P     -0.122000
     24 C64         2.6320    4.5290   -4.1470 ca        1 C4P     -0.132000
     25 C63         1.8090    3.4170   -4.3140 ca        1 C4P     -0.114500
     26 C47        -3.0450   -0.5390    2.6520 c3        1 C4P     -0.046100
     27 C48        -2.6820   -1.0850    3.9860 ca        1 C4P     -0.091300
     28 C49        -2.0230   -0.2810    4.9230 ca        1 C4P     -0.126000
     29 C51        -1.6930   -0.7900    6.1780 ca        1 C4P     -0.125500
     30 C53        -2.0180   -2.1060    6.5070 ca        1 C4P     -0.126000
     31 C52        -2.6750   -2.9120    5.5780 ca        1 C4P     -0.125500
     32 C50        -3.0070   -2.4050    4.3230 ca        1 C4P     -0.126000
     33 H43        -0.5360   -0.0880    2.5690 hn        1 C4P      0.325500
     34 H21         2.2170   -3.1600    0.9910 h1        1 C4P      0.072950
     35 H22         3.5150   -2.1510    1.7990 h1        1 C4P      0.072950
     36 H31         2.3600   -1.8190   -1.0760 h1        1 C4P      0.065450
     37 H32         4.0750   -2.2680   -0.5840 h1        1 C4P      0.065450
     38 H51A        1.7430    0.6120   -0.5480 h1        1 C4P      0.065450
     39 H52A        3.1150    1.5610    0.2300 h1        1 C4P      0.065450
     40 H61         1.3080    0.8730    1.9060 h1        1 C4P      0.072950
     41 H62         2.9700    0.2520    2.3070 h1        1 C4P      0.072950
     42 H44        -2.1980   -2.1580    1.4590 h1        1 C4P      0.092700
     43 H54        -1.4010   -1.7260   -0.8690 hn        1 C4P      0.347500
     44 H55        -2.7170    0.6380   -2.1130 h1        1 C4P      0.115700
     45 H56        -3.7430   -0.6670   -3.8810 h4        1 C4P      0.002200
     46 H581       -1.3590   -0.0800   -4.1850 h1        1 C4P      0.069200
     47 H582       -0.4710   -1.2660   -3.1540 h1        1 C4P      0.069200
     48 H11         0.7390    1.0630   -4.8460 h1        1 C4P      0.067200
     49 H12         1.8470    0.0920   -3.7990 h1        1 C4P      0.067200
     50 H67         3.4530    1.2140   -2.2760 ha        1 C4P      0.142500
     51 H66         4.9250    3.2010   -1.9980 ha        1 C4P      0.134000
     52 H65         4.4010    5.3320   -3.1890 ha        1 C4P      0.132000
     53 H64         2.3970    5.4670   -4.6720 ha        1 C4P      0.134000
     54 H63         0.9260    3.4810   -4.9680 ha        1 C4P      0.142500
     55 H471       -4.0810   -0.8680    2.3670 hc        1 C4P      0.078700
     56 H472       -3.0520    0.5840    2.6690 hc        1 C4P      0.078700
     57 H49        -1.7740    0.7610    4.6710 ha        1 C4P      0.132000
     58 H51        -1.1780   -0.1510    6.9100 ha        1 C4P      0.133000
     59 H53        -1.7570   -2.5060    7.4970 ha        1 C4P      0.133000
     60 H52        -2.9330   -3.9500    5.8350 ha        1 C4P      0.133000
     61 H50        -3.5260   -3.0420    3.5910 ha        1 C4P      0.132000
@<TRIPOS>BOND
     1    1    2 1   
     2    1   10 1   
     3    1   33 1   
     4    2    3 2   
     5    2    4 1   
     6    4    5 1   
     7    4    9 1   
     8    5    6 1   
     9    5   34 1   
    10    5   35 1   
    11    6    7 1   
    12    6   36 1   
    13    6   37 1   
    14    7    8 1   
    15    8    9 1   
    16    8   38 1   
    17    8   39 1   
    18    9   40 1   
    19    9   41 1   
    20   10   11 1   
    21   10   26 1   
    22   10   42 1   
    23   11   12 2   
    24   11   13 1   
    25   13   14 1   
    26   13   43 1   
    27   14   15 1   
    28   14   17 1   
    29   14   44 1   
    30   15   16 2   
    31   15   45 1   
    32   17   18 1   
    33   17   46 1   
    34   17   47 1   
    35   18   19 1   
    36   19   20 1   
    37   19   48 1   
    38   19   49 1   
    39   20   21 ar  
    40   20   25 ar  
    41   21   22 ar  
    42   21   50 1   
    43   22   23 ar  
    44   22   51 1   
    45   23   24 ar  
    46   23   52 1   
    47   24   25 ar  
    48   24   53 1   
    49   25   54 1   
    50   26   27 1   
    51   26   55 1   
    52   26   56 1   
    53   27   28 ar  
    54   27   32 ar  
    55   28   29 ar  
    56   28   57 1   
    57   29   30 ar  
    58   29   58 1   
    59   30   31 ar  
    60   30   59 1   
    61   31   32 ar  
    62   31   60 1   
    63   32   61 1   
@<TRIPOS>SUBSTRUCTURE
     1 C4P         1 TEMP              0 ****  ****    0 ROOT
