@<TRIPOS>MOLECULE
C4Q
   50    46     1     0     0
SMALL
bcc


@<TRIPOS>ATOM
      1 C2         -3.7530   -0.5330   -1.1170 c1        1 C4Q      0.332300
      2 C3         -2.3640   -0.4730   -0.9910 c1        1 C4Q     -0.133500
      3 C4         -1.8000   -0.3280    0.2430 cg        1 C4Q     -0.053000
      4 C5         -2.0300   -0.1250    2.6940 c1        1 C4Q     -0.059750
      5 N5         -4.5530   -0.4460   -0.0010 n1        1 C4Q     -0.460800
      6 C6         -2.8510   -0.0780    3.8310 c1        1 C4Q     -0.059750
      7 C7         -4.2160   -0.1390    3.6950 c1        1 C4Q     -0.059750
      8 C8         -4.8040   -0.2510    2.3890 c1        1 C4Q     -0.059750
      9 C9         -3.9840   -0.2980    1.2500 c1        1 C4Q      0.000000
     10 CM         -0.3470   -0.9870    0.3570 c2        1 C4Q      0.303100
     11 C1'         0.7270   -0.6610   -1.1510 c3        1 C4Q     -0.018700
     12 N1'         0.6040   -0.2400   -0.5300 nh        1 C4Q     -0.320100
     13 C10        -2.6210   -0.2380    1.3850 cg        1 C4Q     -0.078000
     14 C2'         1.1550   -2.1270   -0.6110 c3        1 C4Q      0.151800
     15 N2'         2.2650   -2.3140   -0.9170 n3        1 C4Q     -0.823200
     16 C3'         2.3580   -1.9000   -1.7850 c3        1 C4Q      0.170800
     17 N3'         3.0110    0.5700   -2.1840 n3        1 C4Q     -0.844200
     18 C4'         3.5340   -0.9700   -1.8030 c3        1 C4Q      0.151300
     19 N4'         0.8810    3.0390   -0.6360 n3        1 C4Q     -0.823200
     20 C5'         3.4320    2.0490   -0.6320 c3        1 C4Q      0.151300
     21 C6'         1.7040    2.9140    0.2170 c3        1 C4Q      0.170800
     22 C7'         0.0150    1.7540   -0.4850 c3        1 C4Q      0.151800
     23 C8'         0.8550    0.6860   -0.0440 c3        1 C4Q     -0.018700
     24 H2         -4.1610   -0.6380   -2.0060 ha        1 C4Q      0.100500
     25 H3         -1.7910   -0.5350   -1.7930 ha        1 C4Q      0.091500
     26 H5         -0.9750   -0.0770    2.7980 ha        1 C4Q      0.080750
     27 H6         -2.4480   -0.0010    4.7290 ha        1 C4Q      0.080750
     28 H7         -4.7970   -0.1040    4.5010 ha        1 C4Q      0.080750
     29 H8         -5.7510   -0.2930    2.2940 ha        1 C4Q      0.080750
     30 H1'        -0.1290   -0.7250   -1.7120 h1        1 C4Q      0.045200
     31 H1'A        1.4500   -0.2710   -1.6840 h1        1 C4Q      0.045200
     32 H2'         1.0670   -2.1600    0.3760 h1        1 C4Q      0.051950
     33 H2'A        0.6120   -2.7700   -0.9950 h1        1 C4Q      0.051950
     34 H3'         1.5700   -1.4110   -1.9810 h1        1 C4Q      0.036450
     35 H4'         4.2210   -1.2890   -2.5090 h1        1 C4Q      0.034200
     36 H5'         3.9480    2.7290   -1.0050 h1        1 C4Q      0.034200
     37 H5'A        3.9310    1.6320    0.0550 h1        1 C4Q      0.034200
     38 H6'         1.9280    3.7940    0.5940 h1        1 C4Q      0.036450
     39 H6'A        1.3590    2.3380    0.9220 h1        1 C4Q      0.036450
     40 H7'        -0.6630    1.9000    0.1470 h1        1 C4Q      0.051950
     41 H7'A       -0.3810    1.5270   -1.3450 h1        1 C4Q      0.051950
     42 H8'         0.7510    0.5760    0.9480 h1        1 C4Q      0.045200
     43 H8'A        1.7670    0.9050   -0.2410 h1        1 C4Q      0.045200
     44 H3'A        2.4940   -2.6500   -2.5200 h1        1 C4Q      0.036450
     45 H4'A        3.9390   -0.9620   -0.9500 h1        1 C4Q      0.034200
     46 HM         -0.0460   -0.9410    1.2610 h4        1 C4Q     -0.027200
     47 HMA        -0.3910   -1.9490    0.0700 h4        1 C4Q     -0.027200
     48 HN2'        2.8370   -1.8720   -0.2990 hn        1 C4Q      0.366300
     49 HN3'        2.0730    0.5570   -2.3710 hn        1 C4Q      0.363800
     50 HN4'        0.3710    3.7880   -0.4620 hn        1 C4Q      0.366300
@<TRIPOS>BOND
     1    1    5 3   
     2    1   24 1   
     3    2    3 3   
     4    2   25 1   
     5    3   13 1   
     6    4    6 3   
     7    4   26 1   
     8    6   27 1   
     9    7    8 3   
    10    7   28 1   
    11    8   29 1   
    12    9   13 3   
    13   10   12 2   
    14   10   46 1   
    15   10   47 1   
    16   11   12 1   
    17   11   14 1   
    18   11   30 1   
    19   11   31 1   
    20   12   23 1   
    21   14   15 1   
    22   14   32 1   
    23   14   33 1   
    24   15   16 1   
    25   15   48 1   
    26   16   18 1   
    27   16   34 1   
    28   16   44 1   
    29   17   18 1   
    30   17   20 1   
    31   17   49 1   
    32   18   35 1   
    33   18   45 1   
    34   19   21 1   
    35   19   22 1   
    36   19   50 1   
    37   20   21 1   
    38   20   36 1   
    39   20   37 1   
    40   21   38 1   
    41   21   39 1   
    42   22   23 1   
    43   22   40 1   
    44   22   41 1   
    45   23   42 1   
    46   23   43 1   
@<TRIPOS>SUBSTRUCTURE
     1 C4Q         1 TEMP              0 ****  ****    0 ROOT
