@<TRIPOS>MOLECULE
C4Q
   54    56     1     0     0
SMALL
bcc


@<TRIPOS>ATOM
      1 C2          0.2850    0.3080   -0.4890 ca        1 C4Q      0.388200
      2 C3          1.6770    0.3320   -0.1810 ca        1 C4Q     -0.176300
      3 C4          2.0750    0.1250    1.1340 ca        1 C4Q     -0.229300
      4 C5          1.3880   -0.4230    3.4880 ca        1 C4Q     -0.234000
      5 N5         -0.6590    0.0880    0.4120 nb        1 C4Q     -0.535000
      6 C6          0.3900   -0.7550    4.3800 ca        1 C4Q     -0.023000
      7 C7         -0.9640   -0.7710    3.9730 ca        1 C4Q     -0.106000
      8 C8         -1.3080   -0.4750    2.6760 ca        1 C4Q     -0.098300
      9 C9         -0.2900   -0.1510    1.7160 ca        1 C4Q      0.377600
     10 CM          3.5110   -0.0420    1.4270 c3        1 C4Q      0.203100
     11 C1'         5.5480    0.9800    2.4310 c3        1 C4Q      0.076300
     12 N1'         4.0740    1.1570    2.2520 n4        1 C4Q     -0.716400
     13 C10         1.0870   -0.1310    2.1370 ca        1 C4Q     -0.142300
     14 C2'         6.1900    1.5780    3.6910 c3        1 C4Q      0.065300
     15 N2'         6.8890    2.9010    3.5290 n4        1 C4Q     -0.765500
     16 C3'         6.0280    4.0710    3.8760 c3        1 C4Q      0.071300
     17 N3'         5.3250    6.3770    3.0360 n4        1 C4Q     -0.763000
     18 C4'         6.4340    5.3810    3.1630 c3        1 C4Q      0.066300
     19 N4'         2.2360    4.5250    1.7530 n4        1 C4Q     -0.765500
     20 C5'         4.2890    6.0430    2.0070 c3        1 C4Q      0.066300
     21 C6'         2.9400    5.5520    2.5830 c3        1 C4Q      0.071300
     22 C7'         2.4510    3.1070    2.1760 c3        1 C4Q      0.065300
     23 C8'         3.7310    2.4590    1.6040 c3        1 C4Q      0.076300
     24 H2         -0.0590    0.4420   -1.5390 h4        1 C4Q      0.089100
     25 H3          2.4000    0.4530   -1.0040 ha        1 C4Q      0.162000
     26 H5          2.4340   -0.4890    3.8190 ha        1 C4Q      0.086000
     27 H6          0.6360   -1.0370    5.4200 ha        1 C4Q      0.177000
     28 H7         -1.7450   -1.0540    4.7060 ha        1 C4Q      0.203000
     29 H8         -2.3650   -0.5120    2.3450 ha        1 C4Q      0.211000
     30 H2'         7.0040    0.8370    4.0110 hx        1 C4Q      0.163700
     31 H2'A        5.4680    1.6520    4.5560 hx        1 C4Q      0.163700
     32 H3'         6.0990    4.2240    5.0020 hx        1 C4Q      0.136200
     33 H4'         6.8480    5.1930    2.1260 hx        1 C4Q      0.155950
     34 H5'         4.0850    7.0040    1.4220 hx        1 C4Q      0.155950
     35 H5'A        4.7360    5.3100    1.2760 hx        1 C4Q      0.155950
     36 H6'         3.0390    5.1500    3.6330 hx        1 C4Q      0.136200
     37 H6'A        2.2440    6.4570    2.6460 hx        1 C4Q      0.136200
     38 H7'         1.5580    2.4890    1.8040 hx        1 C4Q      0.163700
     39 H7'A        2.4250    3.0710    3.3040 hx        1 C4Q      0.163700
     40 H8'         3.5720    2.2530    0.4970 hx        1 C4Q      0.131700
     41 H8'A        4.6050    3.1600    1.7050 hx        1 C4Q      0.131700
     42 H3'A        4.9600    3.8040    3.6330 hx        1 C4Q      0.136200
     43 H4'A        7.2620    5.8860    3.7660 hx        1 C4Q      0.155950
     44 HM          4.1330   -0.1070    0.4870 hx        1 C4Q      0.136200
     45 HMA         3.6870   -0.9590    2.0680 hx        1 C4Q      0.136200
     46 HN2'        7.7120    2.8990    4.1690 hn        1 C4Q      0.500550
     47 HN3'        5.7700    7.2820    2.7530 hn        1 C4Q      0.509800
     48 HN4'        1.2110    4.7110    1.8430 hn        1 C4Q      0.500550
     49 H1'         6.0700    1.3040    1.4820 hx        1 C4Q      0.131700
     50 H1'1        3.6060    1.0980    3.1700 hn        1 C4Q      0.458800
     51 H2'2        7.2570    2.9830    2.5690 hn        1 C4Q      0.500550
     52 H3'2        4.8860    6.5390    3.9580 hn        1 C4Q      0.509800
     53 H4'2        2.4730    4.6410    0.7550 hn        1 C4Q      0.500550
     54 H1'A        5.7270   -0.1490    2.5140 hx        1 C4Q      0.131700
@<TRIPOS>BOND
     1    1    2 ar  
     2    1    5 ar  
     3    1   24 1   
     4    2    3 ar  
     5    2   25 1   
     6    3   10 1   
     7    3   13 ar  
     8    4    6 ar  
     9    4   13 ar  
    10    4   26 1   
    11    5    9 ar  
    12    6    7 ar  
    13    6   27 1   
    14    7    8 ar  
    15    7   28 1   
    16    8    9 ar  
    17    8   29 1   
    18    9   13 ar  
    19   10   12 1   
    20   10   44 1   
    21   10   45 1   
    22   11   12 1   
    23   11   14 1   
    24   11   49 1   
    25   11   54 1   
    26   12   23 1   
    27   12   50 1   
    28   14   15 1   
    29   14   30 1   
    30   14   31 1   
    31   15   16 1   
    32   15   46 1   
    33   15   51 1   
    34   16   18 1   
    35   16   32 1   
    36   16   42 1   
    37   17   18 1   
    38   17   20 1   
    39   17   47 1   
    40   17   52 1   
    41   18   33 1   
    42   18   43 1   
    43   19   21 1   
    44   19   22 1   
    45   19   48 1   
    46   19   53 1   
    47   20   21 1   
    48   20   34 1   
    49   20   35 1   
    50   21   36 1   
    51   21   37 1   
    52   22   23 1   
    53   22   38 1   
    54   22   39 1   
    55   23   40 1   
    56   23   41 1   
@<TRIPOS>SUBSTRUCTURE
     1 C4Q         1 TEMP              0 ****  ****    0 ROOT
