@<TRIPOS>MOLECULE
C4Q
   50    52     1     0     0
SMALL
bcc


@<TRIPOS>ATOM
      1 C2          4.2490    1.5110    0.9200 ca        1 C4Q      0.408200
      2 C3          3.0510    1.2920    1.6680 ca        1 C4Q     -0.258300
      3 C4          2.1990    0.2820    1.2820 ca        1 C4Q     -0.028300
      4 C5          1.7190   -1.5670   -0.3370 ca        1 C4Q     -0.102000
      5 N5          4.6050    0.8030   -0.1350 nb        1 C4Q     -0.656000
      6 C6          2.0920   -2.3030   -1.4350 ca        1 C4Q     -0.132000
      7 C7          3.3020   -2.0180   -2.1100 ca        1 C4Q     -0.122000
      8 C8          4.1200   -1.0040   -1.6830 ca        1 C4Q     -0.172300
      9 C9          3.7610   -0.2150   -0.5420 ca        1 C4Q      0.389600
     10 CM          0.9640    0.0030    2.0930 c3        1 C4Q      0.213100
     11 C1'        -1.4460   -0.1810    2.1060 c3        1 C4Q      0.163800
     12 N1'        -0.2820    0.3880    1.4430 n3        1 C4Q     -0.742600
     13 C10         2.5370   -0.5100    0.1400 ca        1 C4Q     -0.130300
     14 C2'        -1.7380   -1.6400    1.6870 c3        1 C4Q      0.171800
     15 N2'        -2.0930   -1.8730    0.3080 n3        1 C4Q     -0.839700
     16 C3'        -3.4930   -2.0630    0.0170 c3        1 C4Q      0.143300
     17 N3'        -4.0330   -0.3720   -1.7660 n3        1 C4Q     -0.819200
     18 C4'        -4.3090   -0.8280   -0.4180 c3        1 C4Q      0.151800
     19 N4'        -2.2970    1.7020   -0.4270 n3        1 C4Q     -0.839700
     20 C5'        -4.1160    1.0520   -1.9790 c3        1 C4Q      0.151800
     21 C6'        -2.8150    1.8600   -1.7650 c3        1 C4Q      0.143300
     22 C7'        -0.9290    2.1210   -0.2430 c3        1 C4Q      0.171800
     23 C8'        -0.3870    1.8100    1.1700 c3        1 C4Q      0.163800
     24 H2          4.9410    2.3180    1.2240 h4        1 C4Q      0.020100
     25 H3          2.8390    1.9290    2.5370 ha        1 C4Q      0.140000
     26 H5          0.7680   -1.7860    0.1770 ha        1 C4Q      0.157000
     27 H6          1.4530   -3.1200   -1.8010 ha        1 C4Q      0.138000
     28 H7          3.5790   -2.6240   -2.9860 ha        1 C4Q      0.134000
     29 H8          5.0620   -0.7800   -2.2080 ha        1 C4Q      0.149000
     30 H1'A       -2.3530    0.4420    1.8720 h1        1 C4Q      0.036200
     31 H2'        -0.8180   -2.2670    1.8800 h1        1 C4Q      0.039200
     32 H2'A       -2.5470   -2.0150    2.3750 h1        1 C4Q      0.039200
     33 H3'        -3.5370   -2.8330   -0.8090 h1        1 C4Q      0.042200
     34 H4'        -5.3990   -1.1210   -0.4020 h1        1 C4Q      0.041700
     35 H5'        -4.4110    1.2000   -3.0580 h1        1 C4Q      0.041700
     36 H5'A       -4.9330    1.4820   -1.3360 h1        1 C4Q      0.041700
     37 H6'        -3.0360    2.9380   -2.0210 h1        1 C4Q      0.042200
     38 H6'A       -2.0380    1.4970   -2.4960 h1        1 C4Q      0.042200
     39 H7'        -0.2920    1.5910   -1.0070 h1        1 C4Q      0.039200
     40 H7'A       -0.7960    3.2330   -0.4020 h1        1 C4Q      0.039200
     41 H8'        -1.0300    2.3350    1.9350 h1        1 C4Q      0.036200
     42 H8'A        0.6390    2.2790    1.2190 h1        1 C4Q      0.036200
     43 H3'A       -4.0170   -2.5060    0.9100 h1        1 C4Q      0.042200
     44 H4'A       -4.1760   -0.0170    0.3540 h1        1 C4Q      0.041700
     45 HM          0.9200   -1.1080    2.2910 h1        1 C4Q      0.042700
     46 HMA         1.0750    0.5150    3.0970 h1        1 C4Q      0.042700
     47 HN2'       -1.6840   -1.1790   -0.2900 hn        1 C4Q      0.372800
     48 HN3'       -3.1470   -0.7180   -2.0870 hn        1 C4Q      0.364800
     49 HN4'       -2.9020    2.1360    0.2440 hn        1 C4Q      0.372800
     50 H1'        -1.3190   -0.1770    3.2290 h1        1 C4Q      0.036200
@<TRIPOS>BOND
     1    1    2 ar  
     2    1    5 ar  
     3    1   24 1   
     4    2    3 ar  
     5    2   25 1   
     6    3   10 1   
     7    3   13 ar  
     8    4    6 ar  
     9    4   13 ar  
    10    4   26 1   
    11    5    9 ar  
    12    6    7 ar  
    13    6   27 1   
    14    7    8 ar  
    15    7   28 1   
    16    8    9 ar  
    17    8   29 1   
    18    9   13 ar  
    19   10   12 1   
    20   10   45 1   
    21   10   46 1   
    22   11   12 1   
    23   11   14 1   
    24   11   30 1   
    25   11   50 1   
    26   12   23 1   
    27   14   15 1   
    28   14   31 1   
    29   14   32 1   
    30   15   16 1   
    31   15   47 1   
    32   16   18 1   
    33   16   33 1   
    34   16   43 1   
    35   17   18 1   
    36   17   20 1   
    37   17   48 1   
    38   18   34 1   
    39   18   44 1   
    40   19   21 1   
    41   19   22 1   
    42   19   49 1   
    43   20   21 1   
    44   20   35 1   
    45   20   36 1   
    46   21   37 1   
    47   21   38 1   
    48   22   23 1   
    49   22   39 1   
    50   22   40 1   
    51   23   41 1   
    52   23   42 1   
@<TRIPOS>SUBSTRUCTURE
     1 C4Q         1 TEMP              0 ****  ****    0 ROOT
