@<TRIPOS>MOLECULE
C4Q
   54    56     1     0     0
SMALL
bcc


@<TRIPOS>ATOM
      1 C2          0.2840    0.3040   -0.4840 ca        1 C4Q      0.388200
      2 C3          1.6750    0.3220   -0.1720 ca        1 C4Q     -0.176300
      3 C4          2.0670    0.1220    1.1460 ca        1 C4Q     -0.229300
      4 C5          1.3690   -0.4030    3.5020 ca        1 C4Q     -0.234000
      5 N5         -0.6650    0.0970    0.4150 nb        1 C4Q     -0.535000
      6 C6          0.3650   -0.7230    4.3930 ca        1 C4Q     -0.023000
      7 C7         -0.9880   -0.7340    3.9810 ca        1 C4Q     -0.106000
      8 C8         -1.3250   -0.4460    2.6810 ca        1 C4Q     -0.098300
      9 C9         -0.3020   -0.1340    1.7220 ca        1 C4Q      0.377600
     10 CM          3.5010   -0.0510    1.4450 c3        1 C4Q      0.203100
     11 C1'         5.5400    0.9680    2.4470 c3        1 C4Q      0.076300
     12 N1'         4.0680    1.1510    2.2630 nx        1 C4Q     -0.716400
     13 C10         1.0730   -0.1190    2.1480 ca        1 C4Q     -0.142300
     14 C2'         6.1840    1.5710    3.7030 c3        1 C4Q      0.065300
     15 N2'         6.8900    2.8890    3.5330 ny        1 C4Q     -0.765500
     16 C3'         6.0350    4.0670    3.8700 c3        1 C4Q      0.071300
     17 N3'         5.3460    6.3700    3.0130 ny        1 C4Q     -0.763000
     18 C4'         6.4490    5.3690    3.1480 c3        1 C4Q      0.066300
     19 N4'         2.2490    4.5250    1.7380 ny        1 C4Q     -0.765500
     20 C5'         4.3090    6.0340    1.9840 c3        1 C4Q      0.066300
     21 C6'         2.9570    5.5550    2.5610 c3        1 C4Q      0.071300
     22 C7'         2.4560    3.1090    2.1710 c3        1 C4Q      0.065300
     23 C8'         3.7330    2.4500    1.6060 c3        1 C4Q      0.076300
     24 H2         -0.0560    0.4320   -1.5360 h4        1 C4Q      0.089100
     25 H3          2.4010    0.4320   -0.9930 ha        1 C4Q      0.163000
     26 H5          2.4130   -0.4740    3.8370 ha        1 C4Q      0.086000
     27 H6          0.6060   -0.9980    5.4360 ha        1 C4Q      0.177000
     28 H7         -1.7720   -1.0060    4.7130 ha        1 C4Q      0.203000
     29 H8         -2.3810   -0.4790    2.3460 ha        1 C4Q      0.211000
     30 H2'         5.4610    1.6560    4.5670 hx        1 C4Q      0.163700
     31 H2'A        6.9930    0.8280    4.0300 hx        1 C4Q      0.163700
     32 H3'         4.9660    3.8030    3.6270 hx        1 C4Q      0.136200
     33 H4'         6.8640    5.1720    2.1130 hx        1 C4Q      0.155950
     34 H5'         4.7540    5.2930    1.2590 hx        1 C4Q      0.155950
     35 H5'A        4.1120    6.9920    1.3920 hx        1 C4Q      0.155950
     36 H6'         3.0520    5.1610    3.6150 hx        1 C4Q      0.136200
     37 H6'A        2.2650    6.4640    2.6150 hx        1 C4Q      0.136200
     38 H7'         1.5610    2.4930    1.8040 hx        1 C4Q      0.163700
     39 H7'A        2.4290    3.0820    3.3010 hx        1 C4Q      0.163700
     40 H8'         4.6120    3.1470    1.7030 hx        1 C4Q      0.131700
     41 H8'A        3.5740    2.2370    0.5000 hx        1 C4Q      0.131700
     42 H3'A        6.1040    4.2270    4.9950 hx        1 C4Q      0.136200
     43 H4'A        7.2790    5.8740    3.7500 hx        1 C4Q      0.155950
     44 HM          3.6690   -0.9640    2.0940 hx        1 C4Q      0.136200
     45 HMA         4.1250   -0.1260    0.5080 hx        1 C4Q      0.136200
     46 HN2'        7.7120    2.8880    4.1740 hn        1 C4Q      0.500550
     47 HN3'        5.7960    7.2700    2.7240 hn        1 C4Q      0.509800
     48 HN4'        1.2240    4.7160    1.8250 hn        1 C4Q      0.500550
     49 H1'         5.7140   -0.1620    2.5380 hx        1 C4Q      0.131700
     50 H1'1        3.5980    1.1000    3.1810 hn        1 C4Q      0.458800
     51 H2'2        7.2600    2.9620    2.5740 hn        1 C4Q      0.500550
     52 H3'2        4.9060    6.5410    3.9320 hn        1 C4Q      0.509800
     53 H4'2        2.4880    4.6320    0.7390 hn        1 C4Q      0.500550
     54 H1'A        6.0660    1.2810    1.4970 hx        1 C4Q      0.131700
@<TRIPOS>BOND
     1    1    2 ar  
     2    1    5 ar  
     3    1   24 1   
     4    2    3 ar  
     5    2   25 1   
     6    3   10 1   
     7    3   13 ar  
     8    4    6 ar  
     9    4   13 ar  
    10    4   26 1   
    11    5    9 ar  
    12    6    7 ar  
    13    6   27 1   
    14    7    8 ar  
    15    7   28 1   
    16    8    9 ar  
    17    8   29 1   
    18    9   13 ar  
    19   10   12 1   
    20   10   44 1   
    21   10   45 1   
    22   11   12 1   
    23   11   14 1   
    24   11   49 1   
    25   11   54 1   
    26   12   23 1   
    27   12   50 1   
    28   14   15 1   
    29   14   30 1   
    30   14   31 1   
    31   15   16 1   
    32   15   46 1   
    33   15   51 1   
    34   16   18 1   
    35   16   32 1   
    36   16   42 1   
    37   17   18 1   
    38   17   20 1   
    39   17   47 1   
    40   17   52 1   
    41   18   33 1   
    42   18   43 1   
    43   19   21 1   
    44   19   22 1   
    45   19   48 1   
    46   19   53 1   
    47   20   21 1   
    48   20   34 1   
    49   20   35 1   
    50   21   36 1   
    51   21   37 1   
    52   22   23 1   
    53   22   38 1   
    54   22   39 1   
    55   23   40 1   
    56   23   41 1   
@<TRIPOS>SUBSTRUCTURE
     1 C4Q         1 TEMP              0 ****  ****    0 ROOT
