@<TRIPOS>MOLECULE
C4Q
   54    56     1     0     0
SMALL
bcc


@<TRIPOS>ATOM
      1 C2          0.2950    0.3230   -0.5090 ca        1 C4Q      0.388200
      2 C3          1.6850    0.3410   -0.1930 ca        1 C4Q     -0.176300
      3 C4          2.0740    0.1310    1.1240 ca        1 C4Q     -0.229300
      4 C5          1.3710   -0.4150    3.4740 ca        1 C4Q     -0.234000
      5 N5         -0.6560    0.1060    0.3860 nb        1 C4Q     -0.535000
      6 C6          0.3660   -0.7450    4.3590 ca        1 C4Q     -0.023000
      7 C7         -0.9860   -0.7540    3.9440 ca        1 C4Q     -0.106000
      8 C8         -1.3200   -0.4560    2.6450 ca        1 C4Q     -0.098300
      9 C9         -0.2950   -0.1350    1.6910 ca        1 C4Q      0.377600
     10 CM          3.5080   -0.0420    1.4260 c3        1 C4Q      0.203100
     11 C1'         5.5430    0.9710    2.4410 c3        1 C4Q      0.076300
     12 N1'         4.0710    1.1540    2.2550 n4        1 C4Q     -0.716400
     13 C10         1.0790   -0.1210    2.1210 ca        1 C4Q     -0.142300
     14 C2'         6.1820    1.5660    3.7040 c3        1 C4Q      0.065300
     15 N2'         6.8860    2.8860    3.5470 n4        1 C4Q     -0.765500
     16 C3'         6.0280    4.0600    3.8910 c3        1 C4Q      0.071300
     17 N3'         5.3370    6.3690    3.0510 n4        1 C4Q     -0.763000
     18 C4'         6.4420    5.3690    3.1820 c3        1 C4Q      0.066300
     19 N4'         2.2470    4.5290    1.7520 n4        1 C4Q     -0.765500
     20 C5'         4.3040    6.0400    2.0170 c3        1 C4Q      0.066300
     21 C6'         2.9510    5.5530    2.5860 c3        1 C4Q      0.071300
     22 C7'         2.4550    3.1100    2.1750 c3        1 C4Q      0.065300
     23 C8'         3.7350    2.4580    1.6080 c3        1 C4Q      0.076300
     24 H2         -0.0420    0.4590   -1.5610 h4        1 C4Q      0.089100
     25 H3          2.4140    0.4590   -1.0110 ha        1 C4Q      0.163000
     26 H5          2.4150   -0.4870    3.8110 ha        1 C4Q      0.086000
     27 H6          0.6040   -1.0280    5.4010 ha        1 C4Q      0.177000
     28 H7         -1.7720   -1.0350    4.6720 ha        1 C4Q      0.203000
     29 H8         -2.3760   -0.4880    2.3080 ha        1 C4Q      0.211000
     30 H2'         5.4560    1.6420    4.5670 hx        1 C4Q      0.163700
     31 H2'A        6.9910    0.8210    4.0280 hx        1 C4Q      0.163700
     32 H3'         4.9600    3.7960    3.6430 hx        1 C4Q      0.136200
     33 H4'         6.8600    5.1810    2.1460 hx        1 C4Q      0.155950
     34 H5'         4.7520    5.3050    1.2870 hx        1 C4Q      0.155950
     35 H5'A        4.1060    7.0020    1.4320 hx        1 C4Q      0.155950
     36 H6'         3.0430    5.1510    3.6370 hx        1 C4Q      0.136200
     37 H6'A        2.2580    6.4610    2.6450 hx        1 C4Q      0.136200
     38 H7'         1.5620    2.4960    1.8000 hx        1 C4Q      0.163700
     39 H7'A        2.4260    3.0730    3.3040 hx        1 C4Q      0.163700
     40 H8'         4.6120    3.1550    1.7130 hx        1 C4Q      0.131700
     41 H8'A        3.5800    2.2530    0.4990 hx        1 C4Q      0.131700
     42 H3'A        6.0940    4.2110    5.0180 hx        1 C4Q      0.136200
     43 H4'A        7.2690    5.8700    3.7890 hx        1 C4Q      0.155950
     44 HM          3.6760   -0.9600    2.0670 hx        1 C4Q      0.136200
     45 HMA         4.1350   -0.1090    0.4900 hx        1 C4Q      0.136200
     46 HN2'        7.7060    2.8810    4.1910 hn        1 C4Q      0.500550
     47 HN3'        5.7870    7.2720    2.7710 hn        1 C4Q      0.509800
     48 HN4'        1.2220    4.7180    1.8390 hn        1 C4Q      0.500550
     49 H1'         5.7180   -0.1580    2.5240 hx        1 C4Q      0.131700
     50 H1'1        3.5980    1.0950    3.1710 hn        1 C4Q      0.458800
     51 H2'2        7.2590    2.9680    2.5900 hn        1 C4Q      0.500550
     52 H3'2        4.8940    6.5310    3.9710 hn        1 C4Q      0.509800
     53 H4'2        2.4880    4.6440    0.7550 hn        1 C4Q      0.500550
     54 H1'A        6.0710    1.2940    1.4950 hx        1 C4Q      0.131700
@<TRIPOS>BOND
     1    1    2 ar  
     2    1    5 ar  
     3    1   24 1   
     4    2    3 ar  
     5    2   25 1   
     6    3   10 1   
     7    3   13 ar  
     8    4    6 ar  
     9    4   13 ar  
    10    4   26 1   
    11    5    9 ar  
    12    6    7 ar  
    13    6   27 1   
    14    7    8 ar  
    15    7   28 1   
    16    8    9 ar  
    17    8   29 1   
    18    9   13 ar  
    19   10   12 1   
    20   10   44 1   
    21   10   45 1   
    22   11   12 1   
    23   11   14 1   
    24   11   49 1   
    25   11   54 1   
    26   12   23 1   
    27   12   50 1   
    28   14   15 1   
    29   14   30 1   
    30   14   31 1   
    31   15   16 1   
    32   15   46 1   
    33   15   51 1   
    34   16   18 1   
    35   16   32 1   
    36   16   42 1   
    37   17   18 1   
    38   17   20 1   
    39   17   47 1   
    40   17   52 1   
    41   18   33 1   
    42   18   43 1   
    43   19   21 1   
    44   19   22 1   
    45   19   48 1   
    46   19   53 1   
    47   20   21 1   
    48   20   34 1   
    49   20   35 1   
    50   21   36 1   
    51   21   37 1   
    52   22   23 1   
    53   22   38 1   
    54   22   39 1   
    55   23   40 1   
    56   23   41 1   
@<TRIPOS>SUBSTRUCTURE
     1 C4Q         1 TEMP              0 ****  ****    0 ROOT
