@<TRIPOS>MOLECULE
C4S
   32    32     1     0     0
SMALL
bcc


@<TRIPOS>ATOM
      1 O3P        -0.0080   -2.5900    4.5740 o         1 C4S     -0.919500
      2 P           1.3930   -2.5640    4.0020 p5        1 C4S      1.566500
      3 O1P         2.4030   -2.8110    5.1180 o         1 C4S     -0.919500
      4 O2P         1.5260   -3.6410    2.9550 o         1 C4S     -0.919500
      5 O5'         1.6630   -1.1800    3.3560 os        1 C4S     -0.734000
      6 N1         -0.1860    0.6210   -1.6920 n         1 C4S     -0.240000
      7 C6         -1.4000    0.9730   -2.3350 c2        1 C4S      0.083000
      8 C2          0.6300   -0.4800   -2.2230 c2        1 C4S      0.337000
      9 O2          1.7280   -0.6510   -1.8170 o         1 C4S     -0.416000
     10 N3          0.1020   -1.3380   -3.2560 n2        1 C4S     -0.335000
     11 C4         -1.0790   -0.9690   -3.9470 c1        1 C4S      0.181000
     12 N4         -1.4960   -1.7120   -5.1240 n3        1 C4S     -0.334000
     13 C5         -1.8900    0.1600   -3.4570 c1        1 C4S     -0.364000
     14 C2'        -0.6770    1.6350    0.4110 c3        1 C4S     -0.169000
     15 C5'         0.7180   -0.6720    2.4380 c3        1 C4S      0.085000
     16 C4'         1.2110    0.7280    1.8990 c3        1 C4S     -0.238000
     17 S4'         1.6060    0.6220    0.2280 ss        1 C4S     -0.054000
     18 C1'         0.3290    1.4480   -0.5820 c3        1 C4S     -0.053000
     19 C3'         0.1580    1.6830    1.9700 c3        1 C4S     -0.018000
     20 O3'         0.6490    2.8800    2.1840 oh        1 C4S     -0.369000
     21 H15'        0.6170   -1.3220    1.6570 h1        1 C4S      0.044000
     22 H25'       -0.1430   -0.5640    2.8860 h1        1 C4S      0.044000
     23 H4'         1.9720    1.0310    2.4030 h1        1 C4S      0.096000
     24 H1'         0.6370    2.3030   -0.9130 h2        1 C4S      0.143000
     25 H6         -1.8630    1.8200   -2.0930 h4        1 C4S      0.312000
     26 H1N4       -2.2130   -1.4620   -5.5720 hn        1 C4S      0.186500
     27 H2N4       -0.9730   -2.4290   -5.4360 hn        1 C4S      0.186500
     28 H5         -2.7180    0.3940   -3.9010 ha        1 C4S      0.174000
     29 H12'       -1.3130    0.8850    0.3920 hc        1 C4S      0.093000
     30 H22'       -1.1640    2.5080    0.2530 hc        1 C4S      0.093000
     31 H3'        -0.4620    1.4430    2.6900 h1        1 C4S      0.220000
     32 HO3'        0.2440    3.2510    2.9290 ho        1 C4S      0.238000
@<TRIPOS>BOND
     1    1    2 1   
     2    2    3 1   
     3    2    4 1   
     4    2    5 1   
     5    5   15 1   
     6    6    7 1   
     7    6    8 1   
     8    6   18 1   
     9    7   13 1   
    10    7   25 1   
    11    8    9 1   
    12    8   10 1   
    13   10   11 1   
    14   11   12 1   
    15   12   26 1   
    16   12   27 1   
    17   13   28 1   
    18   14   18 1   
    19   14   19 1   
    20   14   29 1   
    21   14   30 1   
    22   15   16 1   
    23   15   21 1   
    24   15   22 1   
    25   16   17 1   
    26   16   19 1   
    27   16   23 1   
    28   17   18 1   
    29   18   24 1   
    30   19   20 1   
    31   19   31 1   
    32   20   32 1   
@<TRIPOS>SUBSTRUCTURE
     1 C4S         1 TEMP              0 ****  ****    0 ROOT
