@<TRIPOS>MOLECULE
C4S
   32    33     1     0     0
SMALL
bcc


@<TRIPOS>ATOM
      1 O3P         1.6170    1.9440    1.6600 o         1 C4S     -0.923167
      2 P           2.3120    0.6610    1.3240 p5        1 C4S      1.323900
      3 O1P         2.6520    0.4440   -0.1350 o         1 C4S     -0.923167
      4 O2P         3.2960    0.0880    2.2970 o         1 C4S     -0.923167
      5 O5'         0.9710   -0.4690    1.4390 os        1 C4S     -0.573200
      6 N1         -2.4910   -0.8070   -0.5770 n         1 C4S     -0.348000
      7 C6         -1.9560   -0.0190    0.4110 cc        1 C4S      0.093600
      8 C2         -3.8080   -0.5090   -1.0740 c         1 C4S      0.819900
      9 O2         -4.2930   -1.2460   -1.9700 o         1 C4S     -0.687500
     10 N3         -4.5320    0.5800   -0.5710 nc        1 C4S     -0.759100
     11 C4         -3.9760    1.3210    0.4080 cd        1 C4S      0.711500
     12 N4         -4.7080    2.3770    0.9750 nh        1 C4S     -0.895800
     13 C5         -2.6630    1.0420    0.9390 cd        1 C4S     -0.442600
     14 C2'        -0.5610   -1.3950   -2.0780 c3        1 C4S     -0.104400
     15 C5'         1.3210   -1.7660    1.1770 c3        1 C4S      0.230400
     16 C4'         0.7480   -2.3060   -0.1460 c3        1 C4S     -0.003600
     17 S4'        -0.9290   -2.9570    0.0260 ss        1 C4S     -0.430200
     18 C1'        -1.7090   -1.8690   -1.1850 c3        1 C4S      0.201800
     19 C3'         0.7100   -1.2370   -1.2400 c3        1 C4S      0.135100
     20 O3'         1.8270   -1.3740   -2.0980 oh        1 C4S     -0.661800
     21 H15'        2.4460   -1.8650    1.1190 h1        1 C4S      0.010200
     22 H25'        0.9370   -2.4410    2.0000 h1        1 C4S      0.010200
     23 H4'         1.3670   -3.1750   -0.4770 h1        1 C4S      0.055700
     24 H1'        -2.4260   -2.5060   -1.7760 h2        1 C4S      0.100700
     25 H6         -0.9200   -0.2670    0.7860 h4        1 C4S      0.276000
     26 H1N4       -5.4660    2.7260    0.4320 hn        1 C4S      0.394800
     27 H2N4       -4.1310    3.0850    1.3710 hn        1 C4S      0.394800
     28 H5         -2.2020    1.6560    1.7230 ha        1 C4S      0.180000
     29 H12'       -0.3940   -2.1620   -2.8770 hc        1 C4S      0.053200
     30 H22'       -0.7970   -0.4260   -2.5830 hc        1 C4S      0.053200
     31 H3'         0.7590   -0.2110   -0.7420 h1        1 C4S      0.146700
     32 HO3'        2.5180   -0.8030   -1.6990 ho        1 C4S      0.484000
@<TRIPOS>BOND
     1    1    2 1   
     2    2    3 1   
     3    2    4 1   
     4    2    5 1   
     5    5   15 1   
     6    6    7 1   
     7    6    8 1   
     8    6   18 1   
     9    7   13 2   
    10    7   25 1   
    11    8    9 2   
    12    8   10 1   
    13   10   11 2   
    14   11   12 1   
    15   11   13 1   
    16   12   26 1   
    17   12   27 1   
    18   13   28 1   
    19   14   18 1   
    20   14   19 1   
    21   14   29 1   
    22   14   30 1   
    23   15   16 1   
    24   15   21 1   
    25   15   22 1   
    26   16   17 1   
    27   16   19 1   
    28   16   23 1   
    29   17   18 1   
    30   18   24 1   
    31   19   20 1   
    32   19   31 1   
    33   20   32 1   
@<TRIPOS>SUBSTRUCTURE
     1 C4S         1 TEMP              0 ****  ****    0 ROOT
