@<TRIPOS>MOLECULE
C4X
   31    32     1     0     0
SMALL
bcc


@<TRIPOS>ATOM
      1 C1         -0.1150    0.5210    0.4620 c3        1 C4X      0.298900
      2 C2         -1.0540   -0.0160    1.5670 c3        1 C4X      0.129100
      3 C3         -0.4000    0.1340    2.9480 c3        1 C4X      0.154100
      4 C4          1.0360   -0.4210    2.9120 c3        1 C4X      0.065100
      5 C5          1.8340    0.1980    1.7650 c3        1 C4X      0.106400
      6 O1         -0.6140    0.0220   -0.7590 os        1 C4X     -0.423600
      7 O2         -2.2280    0.7760    1.5770 oh        1 C4X     -0.583800
      8 O3         -1.1790   -0.6270    3.8540 oh        1 C4X     -0.585800
      9 O4          1.6100   -0.0790    4.1650 oh        1 C4X     -0.599800
     10 O5          1.1920   -0.0380    0.5210 os        1 C4X     -0.430600
     11 C1'         0.0390    0.5690   -1.9110 c3        1 C4X      0.138400
     12 C2'        -0.6010   -0.1050   -3.1130 c3        1 C4X     -0.080400
     13 C3'        -0.0980    0.5010   -4.3860 cx        1 C4X      0.060100
     14 C4'        -0.1020   -0.2800   -5.6530 cx        1 C4X      0.055400
     15 O'          1.1150   -0.0570   -4.9270 os        1 C4X     -0.404600
     16 H1         -0.0630    1.6450    0.4740 h2        1 C4X      0.053700
     17 H2         -1.2990   -1.0960    1.3720 h1        1 C4X      0.080700
     18 H3         -0.3900    1.2150    3.2580 h1        1 C4X      0.067700
     19 H4          0.9980   -1.5400    2.7970 h1        1 C4X      0.065700
     20 H51         1.9670    1.3000    1.9330 h1        1 C4X      0.058700
     21 H52         2.8360   -0.2950    1.6570 h1        1 C4X      0.058700
     22 HO2        -2.7300    0.5250    0.7900 ho        1 C4X      0.415000
     23 HO3        -0.7880   -0.4870    4.7270 ho        1 C4X      0.417000
     24 HO4         2.4780   -0.4980    4.1980 ho        1 C4X      0.409000
     25 H1'1       -0.1230    1.6790   -1.9310 h1        1 C4X      0.045700
     26 H1'2        1.1370    0.3500   -1.8640 h1        1 C4X      0.045700
     27 H2'1       -0.3770   -1.2030   -3.0830 hc        1 C4X      0.068200
     28 H2'2       -1.7150    0.0190   -3.0660 hc        1 C4X      0.068200
     29 H3'        -0.1300    1.6090   -4.4210 h1        1 C4X      0.089700
     30 H4'1       -0.4420   -1.3310   -5.6650 h1        1 C4X      0.078700
     31 H4'2       -0.1550    0.2320   -6.6300 h1        1 C4X      0.078700
@<TRIPOS>BOND
     1    1    2 1   
     2    1    6 1   
     3    1   10 1   
     4    1   16 1   
     5    2    3 1   
     6    2    7 1   
     7    2   17 1   
     8    3    4 1   
     9    3    8 1   
    10    3   18 1   
    11    4    5 1   
    12    4    9 1   
    13    4   19 1   
    14    5   10 1   
    15    5   20 1   
    16    5   21 1   
    17    6   11 1   
    18    7   22 1   
    19    8   23 1   
    20    9   24 1   
    21   11   12 1   
    22   11   25 1   
    23   11   26 1   
    24   12   13 1   
    25   12   27 1   
    26   12   28 1   
    27   13   14 1   
    28   13   15 1   
    29   13   29 1   
    30   14   15 1   
    31   14   30 1   
    32   14   31 1   
@<TRIPOS>SUBSTRUCTURE
     1 C4X         1 TEMP              0 ****  ****    0 ROOT
