@<TRIPOS>MOLECULE
C50
   44    45     1     0     0
SMALL
bcc


@<TRIPOS>ATOM
      1 N1          0.4160   -0.6670    0.7720 n2        1 C50     -0.519900
      2 C2          1.4550   -0.9860    1.4900 ce        1 C50      0.690200
      3 N3          1.5670   -0.9950    2.9200 ne        1 C50     -0.739000
      4 C4          0.4720   -0.6030    3.5580 c2        1 C50      0.744100
      5 N5         -0.6480    0.0600    2.9540 nh        1 C50     -0.473100
      6 C6         -0.7990   -0.1570    1.4270 c3        1 C50      0.388400
      7 N7          2.6950   -1.4490    0.7900 nz        1 C50     -0.779600
      8 N8          0.4760   -0.7350    5.0380 nz        1 C50     -0.838600
      9 O9         -1.7860   -0.1460    3.6150 os        1 C50     -0.240100
     10 C10        -2.5410    1.0700    3.9800 c3        1 C50      0.132400
     11 C11        -3.2670    0.7170    5.2610 c3        1 C50     -0.132400
     12 C12        -2.5220    1.1310    6.5150 c3        1 C50      0.132400
     13 O13        -1.4370    0.2170    6.7660 os        1 C50     -0.432900
     14 C14        -1.6350   -0.6410    7.8440 ca        1 C50      0.082100
     15 C15        -1.6700   -2.0290    7.6170 ca        1 C50     -0.047600
     16 C16        -1.7690   -2.9070    8.7060 ca        1 C50      0.050400
     17 C17        -1.8390   -2.3890   10.0080 ca        1 C50     -0.102000
     18 C18        -1.8090   -1.0130   10.2200 ca        1 C50     -0.069000
     19 C19        -1.7050   -0.1310    9.1440 ca        1 C50     -0.134000
     20 Cl20       -1.6190   -2.6550    6.0190 cl        1 C50     -0.070400
     21 Cl21       -1.8080   -4.5780    8.4760 cl        1 C50     -0.008400
     22 C22        -1.9770   -1.1050    1.1020 c3        1 C50     -0.100600
     23 C23        -1.1280    1.2400    0.8290 c3        1 C50     -0.100600
     24 HN7         3.4660   -0.8050    1.0170 hn        1 C50      0.494467
     25 HN7A        2.5450   -1.4600   -0.2310 hn        1 C50      0.494467
     26 HN8         1.3620   -1.1280    5.3760 hn        1 C50      0.501800
     27 HN8A        0.3180    0.1910    5.4710 hn        1 C50      0.501800
     28 H10        -3.2590    1.2410    3.1340 h1        1 C50      0.079200
     29 H10A       -1.8620    1.9500    4.0980 h1        1 C50      0.079200
     30 H11        -3.4790   -0.3870    5.2890 hc        1 C50      0.102200
     31 H11A       -4.2580    1.2510    5.2480 hc        1 C50      0.102200
     32 H12        -3.2230    1.1670    7.3910 h1        1 C50      0.082700
     33 H12A       -2.0220    2.1300    6.3940 h1        1 C50      0.082700
     34 H17        -1.9240   -3.0800   10.8660 ha        1 C50      0.187000
     35 H18        -1.8690   -0.6160   11.2490 ha        1 C50      0.179000
     36 H19        -1.6800    0.9580    9.3090 ha        1 C50      0.168000
     37 H22        -1.8350   -2.1110    1.5610 hc        1 C50      0.085867
     38 H22A       -2.9220   -0.6570    1.4990 hc        1 C50      0.085867
     39 H22B       -2.0760   -1.2160   -0.0070 hc        1 C50      0.085867
     40 H23        -2.0750    1.6150    1.2890 hc        1 C50      0.085867
     41 H23A       -0.3130    1.9780    1.0140 hc        1 C50      0.085867
     42 H23B       -1.2840    1.1310   -0.2740 hc        1 C50      0.085867
     43 H73         2.9350   -2.3970    1.1120 hn        1 C50      0.494467
     44 H83        -0.3470   -1.3660    5.3470 hn        1 C50      0.501800
@<TRIPOS>BOND
     1    1    2 2   
     2    1    6 1   
     3    2    3 1   
     4    2    7 1   
     5    3    4 2   
     6    4    5 1   
     7    4    8 1   
     8    5    6 1   
     9    5    9 1   
    10    6   22 1   
    11    6   23 1   
    12    7   24 1   
    13    7   25 1   
    14    7   43 1   
    15    8   26 1   
    16    8   27 1   
    17    8   44 1   
    18    9   10 1   
    19   10   11 1   
    20   10   28 1   
    21   10   29 1   
    22   11   12 1   
    23   11   30 1   
    24   11   31 1   
    25   12   13 1   
    26   12   32 1   
    27   12   33 1   
    28   13   14 1   
    29   14   15 ar  
    30   14   19 ar  
    31   15   16 ar  
    32   15   20 1   
    33   16   17 ar  
    34   16   21 1   
    35   17   18 ar  
    36   17   34 1   
    37   18   19 ar  
    38   18   35 1   
    39   19   36 1   
    40   22   37 1   
    41   22   38 1   
    42   22   39 1   
    43   23   40 1   
    44   23   41 1   
    45   23   42 1   
@<TRIPOS>SUBSTRUCTURE
     1 C50         1 TEMP              0 ****  ****    0 ROOT
