@<TRIPOS>MOLECULE
C50
   44    45     1     0     0
SMALL
bcc


@<TRIPOS>ATOM
      1 N1          0.4720   -0.6520    0.7940 n2        1 C50     -0.519900
      2 C2          1.5040   -0.9600    1.5260 ce        1 C50      0.690200
      3 N3          1.5960   -0.9680    2.9570 ne        1 C50     -0.739000
      4 C4          0.4870   -0.5870    3.5800 c2        1 C50      0.744100
      5 N5         -0.6300    0.0640    2.9600 nh        1 C50     -0.473100
      6 C6         -0.7570   -0.1550    1.4310 c3        1 C50      0.388400
      7 N7          2.7580   -1.4090    0.8450 n4        1 C50     -0.779600
      8 N8          0.4720   -0.7190    5.0600 n4        1 C50     -0.838600
      9 O9         -1.7760   -0.1540    3.6040 os        1 C50     -0.240100
     10 C10        -2.5490    1.0550    3.9590 c3        1 C50      0.132400
     11 C11        -3.2880    0.6940    5.2290 c3        1 C50     -0.132400
     12 C12        -2.5660    1.1160    6.4940 c3        1 C50      0.132400
     13 O13        -1.4750    0.2130    6.7610 os        1 C50     -0.432900
     14 C14        -1.6790   -0.6470    7.8360 ca        1 C50      0.082100
     15 C15        -1.6980   -2.0340    7.6090 ca        1 C50     -0.047600
     16 C16        -1.8030   -2.9140    8.6960 ca        1 C50      0.050400
     17 C17        -1.8970   -2.3970    9.9970 ca        1 C50     -0.102000
     18 C18        -1.8830   -1.0200   10.2090 ca        1 C50     -0.069000
     19 C19        -1.7730   -0.1370    9.1340 ca        1 C50     -0.134000
     20 CL20       -1.6170   -2.6600    6.0110 cl        1 C50     -0.070400
     21 CL21       -1.8220   -4.5850    8.4660 cl        1 C50     -0.008400
     22 C22        -1.9210   -1.1150    1.0890 c3        1 C50     -0.100600
     23 C23        -1.0930    1.2380    0.8280 c3        1 C50     -0.100600
     24 HN7         2.6240   -1.4220   -0.1790 hn        1 C50      0.494467
     25 HN7A        3.5200   -0.7570    1.0820 hn        1 C50      0.494467
     26 HN8         0.2980    0.2050    5.4910 hn        1 C50      0.501800
     27 HN8A       -0.3490   -1.3580    5.3570 hn        1 C50      0.501800
     28 H10        -1.8800    1.9420    4.0860 h1        1 C50      0.079200
     29 H10A       -3.2560    1.2180    3.1030 h1        1 C50      0.079200
     30 H11        -3.4890   -0.4110    5.2550 hc        1 C50      0.102200
     31 H11A       -4.2840    1.2180    5.2030 hc        1 C50      0.102200
     32 H12        -3.2790    1.1460    7.3590 h1        1 C50      0.082700
     33 H12A       -2.0740    2.1210    6.3790 h1        1 C50      0.082700
     34 H17        -1.9870   -3.0880   10.8540 ha        1 C50      0.187000
     35 H18        -1.9620   -0.6240   11.2370 ha        1 C50      0.179000
     36 H19        -1.7620    0.9520    9.2990 ha        1 C50      0.168000
     37 H22        -2.0030   -1.2280   -0.0210 hc        1 C50      0.085867
     38 H22A       -1.7740   -2.1200    1.5510 hc        1 C50      0.085867
     39 H22B       -2.8760   -0.6780    1.4730 hc        1 C50      0.085867
     40 H23        -1.2320    1.1270   -0.2770 hc        1 C50      0.085867
     41 H23A       -0.2890    1.9850    1.0240 hc        1 C50      0.085867
     42 H23B       -2.0500    1.6030    1.2740 hc        1 C50      0.085867
     43 H73         3.0050   -2.3550    1.1690 hn        1 C50      0.494467
     44 H83         1.3570   -1.1030    5.4110 hn        1 C50      0.501800
@<TRIPOS>BOND
     1    1    2 2   
     2    1    6 1   
     3    2    3 1   
     4    2    7 1   
     5    3    4 2   
     6    4    5 1   
     7    4    8 1   
     8    5    6 1   
     9    5    9 1   
    10    6   22 1   
    11    6   23 1   
    12    7   24 1   
    13    7   25 1   
    14    7   43 1   
    15    8   26 1   
    16    8   27 1   
    17    8   44 1   
    18    9   10 1   
    19   10   11 1   
    20   10   28 1   
    21   10   29 1   
    22   11   12 1   
    23   11   30 1   
    24   11   31 1   
    25   12   13 1   
    26   12   32 1   
    27   12   33 1   
    28   13   14 1   
    29   14   15 ar  
    30   14   19 ar  
    31   15   16 ar  
    32   15   20 1   
    33   16   17 ar  
    34   16   21 1   
    35   17   18 ar  
    36   17   34 1   
    37   18   19 ar  
    38   18   35 1   
    39   19   36 1   
    40   22   37 1   
    41   22   38 1   
    42   22   39 1   
    43   23   40 1   
    44   23   41 1   
    45   23   42 1   
@<TRIPOS>SUBSTRUCTURE
     1 C50         1 TEMP              0 ****  ****    0 ROOT
