@<TRIPOS>MOLECULE
C50
   44    45     1     0     0
SMALL
bcc


@<TRIPOS>ATOM
      1 N1          0.4810   -0.6370    0.7970 n2        1 C50     -0.519900
      2 C2          1.5030   -0.9800    1.5280 ce        1 C50      0.690200
      3 N3          1.5890   -1.0100    2.9590 ne        1 C50     -0.739000
      4 C4          0.4880   -0.6110    3.5830 c2        1 C50      0.744100
      5 N5         -0.6110    0.0760    2.9690 nh        1 C50     -0.473100
      6 C6         -0.7380   -0.1180    1.4360 c3        1 C50      0.388400
      7 N7          2.7480   -1.4500    0.8450 n4        1 C50     -0.779600
      8 N8          0.4640   -0.7640    5.0620 n4        1 C50     -0.838600
      9 O9         -1.7640   -0.1220    3.6070 os        1 C50     -0.240100
     10 C10        -2.5080    1.1000    3.9750 c3        1 C50      0.132400
     11 C11        -3.2610    0.7400    5.2380 c3        1 C50     -0.133400
     12 C12        -2.5330    1.1260    6.5110 c3        1 C50      0.132400
     13 O13        -1.4660    0.1930    6.7690 os        1 C50     -0.432900
     14 C14        -1.6960   -0.6780    7.8310 ca        1 C50      0.082100
     15 C15        -1.7480   -2.0610    7.5840 ca        1 C50     -0.047600
     16 C16        -1.8790   -2.9530    8.6580 ca        1 C50      0.050400
     17 C17        -1.9650   -2.4520    9.9660 ca        1 C50     -0.102000
     18 C18        -1.9190   -1.0800   10.1980 ca        1 C50     -0.069000
     19 C19        -1.7820   -0.1850    9.1360 ca        1 C50     -0.134000
     20 CL20       -1.6770   -2.6660    5.9770 cl        1 C50     -0.070400
     21 CL21       -1.9390   -4.6190    8.4030 cl        1 C50     -0.008400
     22 C22        -1.9230   -1.0450    1.0780 c3        1 C50     -0.100600
     23 C23        -1.0380    1.2910    0.8520 c3        1 C50     -0.100600
     24 HN7         2.6170   -1.4450   -0.1800 hn        1 C50      0.494467
     25 HN7A        2.9690   -2.4060    1.1570 hn        1 C50      0.494467
     26 HN8        -0.3740   -1.3860    5.3470 hn        1 C50      0.501800
     27 HN8A        1.3380   -1.1740    5.4100 hn        1 C50      0.501800
     28 H10        -3.2080    1.2920    3.1200 h1        1 C50      0.079200
     29 H10A       -1.8180    1.9680    4.1170 h1        1 C50      0.079200
     30 H11        -4.2440    1.2890    5.2160 hc        1 C50      0.102200
     31 H11A       -3.4900   -0.3610    5.2480 hc        1 C50      0.102200
     32 H12        -3.2480    1.1610    7.3740 h1        1 C50      0.082700
     33 H12A       -2.0160    2.1190    6.4120 h1        1 C50      0.082700
     34 H17        -2.0760   -3.1530   10.8120 ha        1 C50      0.187000
     35 H18        -1.9920   -0.6960   11.2310 ha        1 C50      0.179000
     36 H19        -1.7440    0.9010    9.3170 ha        1 C50      0.168000
     37 H22        -1.8030   -2.0590    1.5260 hc        1 C50      0.085867
     38 H22A       -2.0040   -1.1400   -0.0340 hc        1 C50      0.085867
     39 H22B       -2.8690   -0.5900    1.4640 hc        1 C50      0.085867
     40 H23        -0.2160    2.0150    1.0620 hc        1 C50      0.085867
     41 H23A       -1.9870    1.6730    1.3000 hc        1 C50      0.085867
     42 H23B       -1.1750    1.1980   -0.2550 hc        1 C50      0.085867
     43 H73         3.5250   -0.8210    1.0940 hn        1 C50      0.494467
     44 H83         0.3110    0.1580    5.5050 hn        1 C50      0.501800
@<TRIPOS>BOND
     1    1    2 2   
     2    1    6 1   
     3    2    3 1   
     4    2    7 1   
     5    3    4 2   
     6    4    5 1   
     7    4    8 1   
     8    5    6 1   
     9    5    9 1   
    10    6   22 1   
    11    6   23 1   
    12    7   24 1   
    13    7   25 1   
    14    7   43 1   
    15    8   26 1   
    16    8   27 1   
    17    8   44 1   
    18    9   10 1   
    19   10   11 1   
    20   10   28 1   
    21   10   29 1   
    22   11   12 1   
    23   11   30 1   
    24   11   31 1   
    25   12   13 1   
    26   12   32 1   
    27   12   33 1   
    28   13   14 1   
    29   14   15 ar  
    30   14   19 ar  
    31   15   16 ar  
    32   15   20 1   
    33   16   17 ar  
    34   16   21 1   
    35   17   18 ar  
    36   17   34 1   
    37   18   19 ar  
    38   18   35 1   
    39   19   36 1   
    40   22   37 1   
    41   22   38 1   
    42   22   39 1   
    43   23   40 1   
    44   23   41 1   
    45   23   42 1   
@<TRIPOS>SUBSTRUCTURE
     1 C50         1 TEMP              0 ****  ****    0 ROOT
