@<TRIPOS>MOLECULE
C50
   42    43     1     0     0
SMALL
bcc


@<TRIPOS>ATOM
      1 N1         -4.8390   -0.9830   -0.3170 n2        1 C50     -0.741900
      2 C2         -4.5290   -0.6710    0.9380 ce        1 C50      0.823200
      3 N3         -3.9440    0.5720    1.3680 ne        1 C50     -0.815000
      4 C4         -3.4740    1.3620    0.4050 c2        1 C50      0.771100
      5 N5         -3.6720    1.1430   -1.0510 nh        1 C50     -0.475100
      6 C6         -4.7540    0.0950   -1.3040 c3        1 C50      0.355400
      7 N7         -4.8130   -1.5800    1.9740 nh        1 C50     -0.880800
      8 N8         -2.7430    2.4940    0.7400 nh        1 C50     -0.903800
      9 O9         -2.5530    1.0040   -1.7360 os        1 C50     -0.187100
     10 C10        -1.6450   -0.1040   -1.4980 c3        1 C50      0.073400
     11 C11        -0.6090    0.2740   -0.4600 c3        1 C50     -0.117400
     12 C12         0.5500   -0.7050   -0.5160 c3        1 C50      0.132400
     13 O13         1.4330   -0.3090    0.5420 os        1 C50     -0.313900
     14 C14         2.5830   -1.0560    0.6860 ca        1 C50      0.145100
     15 C15         3.4560   -0.6540    1.7250 ca        1 C50     -0.013600
     16 C16         4.6420   -1.3750    1.9230 ca        1 C50      0.046400
     17 C17         4.9590   -2.4710    1.1110 ca        1 C50     -0.154000
     18 C18         4.0900   -2.8520    0.0960 ca        1 C50     -0.086000
     19 C19         2.9040   -2.1540   -0.1230 ca        1 C50     -0.202000
     20 CL20        3.0890    0.6700    2.7170 cl        1 C50     -0.049400
     21 CL21        5.7260   -0.9380    3.1530 cl        1 C50     -0.067400
     22 C22        -6.0950    0.8890   -1.3510 c3        1 C50     -0.078100
     23 C23        -4.5790   -0.5190   -2.7150 c3        1 C50     -0.078100
     24 HN7        -4.9790   -2.5180    1.6880 hn        1 C50      0.416800
     25 HN7A       -4.2740   -1.4760    2.8030 hn        1 C50      0.416800
     26 HN8        -2.7750    2.8100    1.6810 hn        1 C50      0.442800
     27 HN8A       -2.5740    3.1660    0.0300 hn        1 C50      0.442800
     28 H10        -2.1900   -1.0370   -1.2090 h1        1 C50      0.066200
     29 H10A       -1.1720   -0.2390   -2.5080 h1        1 C50      0.066200
     30 H11        -0.2370    1.3150   -0.6500 hc        1 C50      0.075200
     31 H11A       -1.0570    0.2650    0.5680 hc        1 C50      0.075200
     32 H12         0.2010   -1.7560   -0.3400 h1        1 C50      0.041700
     33 H12A        1.0880   -0.6410   -1.4980 h1        1 C50      0.041700
     34 H17         5.8940   -3.0270    1.2790 ha        1 C50      0.153000
     35 H18         4.3380   -3.7140   -0.5430 ha        1 C50      0.141000
     36 H19         2.2320   -2.4730   -0.9320 ha        1 C50      0.144000
     37 H22        -6.3040    1.3880   -0.3750 hc        1 C50      0.048533
     38 H22A       -6.0510    1.6600   -2.1550 hc        1 C50      0.048533
     39 H22B       -6.9240    0.1760   -1.5760 hc        1 C50      0.048533
     40 H23        -5.4580   -1.1690   -2.9380 hc        1 C50      0.048533
     41 H23A       -4.5240    0.3000   -3.4710 hc        1 C50      0.048533
     42 H23B       -3.6520   -1.1340   -2.7830 hc        1 C50      0.048533
@<TRIPOS>BOND
     1    1    2 2   
     2    1    6 1   
     3    2    3 1   
     4    2    7 1   
     5    3    4 2   
     6    4    5 1   
     7    4    8 1   
     8    5    6 1   
     9    5    9 1   
    10    6   22 1   
    11    6   23 1   
    12    7   24 1   
    13    7   25 1   
    14    8   26 1   
    15    8   27 1   
    16    9   10 1   
    17   10   11 1   
    18   10   28 1   
    19   10   29 1   
    20   11   12 1   
    21   11   30 1   
    22   11   31 1   
    23   12   13 1   
    24   12   32 1   
    25   12   33 1   
    26   13   14 1   
    27   14   15 ar  
    28   14   19 ar  
    29   15   16 ar  
    30   15   20 1   
    31   16   17 ar  
    32   16   21 1   
    33   17   18 ar  
    34   17   34 1   
    35   18   19 ar  
    36   18   35 1   
    37   19   36 1   
    38   22   37 1   
    39   22   38 1   
    40   22   39 1   
    41   23   40 1   
    42   23   41 1   
    43   23   42 1   
@<TRIPOS>SUBSTRUCTURE
     1 C50         1 TEMP              0 ****  ****    0 ROOT
