@<TRIPOS>MOLECULE
C52
   44    47     1     0     0
SMALL
bcc


@<TRIPOS>ATOM
      1 C8          0.0530    0.0080    0.0300 ca        1 C52     -0.035000
      2 C3          1.4580    0.1020    0.1070 ca        1 C52     -0.320600
      3 C4          2.1810    0.0260    1.3450 ca        1 C52      0.492200
      4 N2          3.4900    0.1180    1.4340 nb        1 C52     -0.732000
      5 C1          4.1930    0.3130    0.2140 ca        1 C52      0.868900
      6 N3          5.5710    0.5250    0.3150 nh        1 C52     -0.925500
      7 N1          3.6170    0.3650   -1.0220 nb        1 C52     -0.762000
      8 C2          2.2460    0.2670   -1.0730 ca        1 C52      0.468600
      9 C5          1.5610    0.3180   -2.3300 ca        1 C52     -0.199300
     10 C6          0.1930    0.2280   -2.3750 ca        1 C52     -0.084000
     11 C7         -0.5860    0.0820   -1.1940 ca        1 C52     -0.069800
     12 C9         -2.0410   -0.0010   -1.2960 cc        1 C52     -0.144400
     13 C10        -2.6810   -1.1210   -0.5750 c         1 C52      0.702700
     14 O1         -2.0740   -1.9040    0.1780 o         1 C52     -0.629500
     15 C13        -2.7960    0.8900   -2.0140 cd        1 C52      0.027800
     16 C14        -2.2270    2.0680   -2.7100 c3        1 C52     -0.072900
     17 C12        -4.2130    0.6970   -2.1100 cd        1 C52     -0.238000
     18 C11        -4.8050   -0.3740   -1.5030 cc        1 C52      0.010600
     19 N4         -4.0830   -1.2880   -0.7540 n         1 C52     -0.264200
     20 C15        -4.7680   -2.4110   -0.2050 ca        1 C52      0.033600
     21 C16        -5.7100   -3.1100   -0.9890 ca        1 C52     -0.103000
     22 C20        -4.5220   -2.8390    1.1170 ca        1 C52     -0.078000
     23 C19        -5.2130   -3.9300    1.6370 ca        1 C52     -0.124000
     24 C18        -6.1570   -4.6100    0.8690 ca        1 C52     -0.084000
     25 C17        -6.3970   -4.1920   -0.4410 ca        1 C52     -0.158300
     26 C21        -7.4100   -4.9400   -1.3000 c3        1 C52      0.688200
     27 F2         -8.0680   -4.1560   -2.2170 f         1 C52     -0.235633
     28 F3         -6.8690   -5.9540   -2.0550 f         1 C52     -0.235633
     29 F1         -8.4180   -5.5490   -0.5940 f         1 C52     -0.235633
     30 H8         -0.5270   -0.1460    0.9550 ha        1 C52      0.149000
     31 H4          1.6280   -0.1280    2.2930 h4        1 C52      0.029100
     32 HN3         6.1000    0.4210   -0.5200 hn        1 C52      0.427300
     33 HN3A        6.0080    0.2230    1.1540 hn        1 C52      0.427300
     34 H5          2.1480    0.4270   -3.2550 ha        1 C52      0.152000
     35 H6         -0.3280    0.2590   -3.3450 ha        1 C52      0.135000
     36 H14        -2.1090    1.8410   -3.8010 hc        1 C52      0.058367
     37 H14A       -2.9110    2.9470   -2.6070 hc        1 C52      0.058367
     38 H14B       -1.2260    2.3450   -2.2960 hc        1 C52      0.058367
     39 H12        -4.8170    1.4170   -2.6780 ha        1 C52      0.156000
     40 H11        -5.8950   -0.5520   -1.5710 h4        1 C52      0.161000
     41 H16        -5.9120   -2.8170   -2.0320 ha        1 C52      0.156000
     42 H20        -3.7640   -2.3270    1.7340 ha        1 C52      0.170000
     43 H19        -5.0100   -4.2580    2.6680 ha        1 C52      0.149000
     44 H18        -6.7090   -5.4670    1.2850 ha        1 C52      0.156000
@<TRIPOS>BOND
     1    1    2 ar  
     2    1   11 ar  
     3    1   30 1   
     4    2    3 ar  
     5    2    8 ar  
     6    3    4 ar  
     7    3   31 1   
     8    4    5 ar  
     9    5    6 1   
    10    5    7 ar  
    11    6   32 1   
    12    6   33 1   
    13    7    8 ar  
    14    8    9 ar  
    15    9   10 ar  
    16    9   34 1   
    17   10   11 ar  
    18   10   35 1   
    19   11   12 1   
    20   12   13 1   
    21   12   15 2   
    22   13   14 2   
    23   13   19 1   
    24   15   16 1   
    25   15   17 1   
    26   16   36 1   
    27   16   37 1   
    28   16   38 1   
    29   17   18 2   
    30   17   39 1   
    31   18   19 1   
    32   18   40 1   
    33   19   20 1   
    34   20   21 ar  
    35   20   22 ar  
    36   21   25 ar  
    37   21   41 1   
    38   22   23 ar  
    39   22   42 1   
    40   23   24 ar  
    41   23   43 1   
    42   24   25 ar  
    43   24   44 1   
    44   25   26 1   
    45   26   27 1   
    46   26   28 1   
    47   26   29 1   
@<TRIPOS>SUBSTRUCTURE
     1 C52         1 TEMP              0 ****  ****    0 ROOT
