@<TRIPOS>MOLECULE
C52
   44    38     1     0     0
SMALL
bcc


@<TRIPOS>ATOM
      1 C8          2.5570   -0.8930    0.0500 c1        1 C52     -0.035000
      2 C3          3.7640   -0.1960    0.2770 c1        1 C52     -0.190000
      3 C4          4.8040   -0.2920   -0.6340 c2        1 C52      0.027000
      4 N2          5.9520    0.3760   -0.4180 n1        1 C52     -0.206000
      5 C1          6.0940    1.1520    0.7030 c1        1 C52      0.150000
      6 N3          7.3180    1.8630    0.8040 n3        1 C52     -0.323000
      7 N1          5.0710    1.2480    1.6030 n1        1 C52     -0.236000
      8 C2          3.9060    0.5730    1.3880 c1        1 C52      0.075000
      9 C5          2.8460    0.6750    2.3160 c1        1 C52     -0.134000
     10 C6          1.6620   -0.0090    2.0930 c1        1 C52     -0.084000
     11 C7          1.5170   -0.7930    0.9610 c1        1 C52     -0.058000
     12 C9          0.0850   -1.2000    0.6900 c2        1 C52     -0.137000
     13 C10        -0.8350   -0.2690   -0.0700 c2        1 C52      0.341000
     14 O1         -0.4190    0.7980   -0.4750 o         1 C52     -0.354000
     15 C13        -0.4380   -2.4560    1.2430 c1        1 C52      0.032000
     16 C14         0.4960   -3.4210    1.9410 c3        1 C52     -0.195000
     17 C12        -1.8340   -2.8410    0.9890 c1        1 C52     -0.109500
     18 C11        -2.7470   -1.9060    0.2280 c1        1 C52     -0.109500
     19 N4         -2.2230   -0.6550   -0.3220 n2        1 C52     -0.202000
     20 C15        -3.0260    0.1230   -1.1970 c2        1 C52      0.041000
     21 C16        -3.8090    1.1490   -0.6920 c2        1 C52     -0.103000
     22 C20        -2.9870   -0.1110   -2.5630 c1        1 C52     -0.078000
     23 C19        -3.7310    0.6810   -3.4230 c1        1 C52     -0.109500
     24 C18        -4.5140    1.7070   -2.9180 c1        1 C52     -0.109500
     25 C17        -4.5530    1.9420   -1.5520 c1        1 C52     -0.151000
     26 C21        -5.4580    3.0190   -0.9960 c3        1 C52      0.467000
     27 F2         -5.9640    2.6160    0.1770 f         1 C52     -0.164333
     28 F3         -4.7540    4.1440   -0.8150 f         1 C52     -0.164333
     29 F1         -6.4580    3.2510   -1.8570 f         1 C52     -0.164333
     30 H8          2.4550   -1.4460   -0.7480 ha        1 C52      0.149000
     31 H4          4.7040   -0.8440   -1.4330 h4        1 C52      0.166000
     32 HN3         7.5210    2.3170    1.5710 hn        1 C52      0.222500
     33 HN3A        7.9000    1.8730    0.0990 hn        1 C52      0.222500
     34 H5          2.9470    1.2270    3.1140 ha        1 C52      0.152000
     35 H6          0.9290    0.0620    2.7350 ha        1 C52      0.135000
     36 H14         1.2590   -3.6170    1.3570 hc        1 C52      0.097667
     37 H14A        0.0160   -4.2530    2.1430 hc        1 C52      0.097667
     38 H14B        0.8170   -3.0190    2.7740 hc        1 C52      0.097667
     39 H12        -2.1840   -3.6750    1.3550 ha        1 C52      0.155500
     40 H11        -3.6740   -2.1620    0.0590 ha        1 C52      0.155500
     41 H16        -3.8360    1.3140    0.2700 ha        1 C52      0.156000
     42 H20        -2.4360   -0.8340   -2.9190 ha        1 C52      0.170000
     43 H19        -3.7040    0.5160   -4.3840 ha        1 C52      0.155500
     44 H18        -5.0380    2.2650   -3.5240 ha        1 C52      0.155500
@<TRIPOS>BOND
     1    1    2 1   
     2    1   30 1   
     3    2    3 1   
     4    3    4 1   
     5    3   31 1   
     6    5    6 1   
     7    5    7 1   
     8    6   32 1   
     9    6   33 1   
    10    8    9 1   
    11    9   34 1   
    12   10   11 1   
    13   10   35 1   
    14   11   12 1   
    15   12   13 1   
    16   12   15 1   
    17   13   14 1   
    18   13   19 1   
    19   15   16 1   
    20   16   36 1   
    21   16   37 1   
    22   16   38 1   
    23   17   18 1   
    24   17   39 1   
    25   18   40 1   
    26   19   20 1   
    27   20   21 1   
    28   20   22 1   
    29   21   25 1   
    30   21   41 1   
    31   22   42 1   
    32   23   24 1   
    33   23   43 1   
    34   24   44 1   
    35   25   26 1   
    36   26   27 1   
    37   26   28 1   
    38   26   29 1   
@<TRIPOS>SUBSTRUCTURE
     1 C52         1 TEMP              0 ****  ****    0 ROOT
