@<TRIPOS>MOLECULE
C52
   44    47     1     0     0
SMALL
bcc


@<TRIPOS>ATOM
      1 C8         -2.8540   -0.1350    0.7600 ca        1 C52     -0.035000
      2 C3         -4.1380    0.4330    0.6290 ca        1 C52     -0.320600
      3 C4         -4.7790    1.1690    1.6830 ca        1 C52      0.492200
      4 N2         -5.9790    1.6990    1.5800 nb        1 C52     -0.732000
      5 C1         -6.6490    1.5050    0.3410 ca        1 C52      0.868900
      6 N3         -7.9660    1.9680    0.2660 nh        1 C52     -0.925500
      7 N1         -6.1260    0.8570   -0.7400 nb        1 C52     -0.762000
      8 C2         -4.8710    0.3150   -0.5910 ca        1 C52      0.468600
      9 C5         -4.2510   -0.3870   -1.6750 ca        1 C52     -0.199300
     10 C6         -3.0020   -0.9330   -1.5190 ca        1 C52     -0.084000
     11 C7         -2.2870   -0.8260   -0.2940 ca        1 C52     -0.069800
     12 C9         -0.9630   -1.4330   -0.1780 cc        1 C52     -0.144400
     13 C10         0.1060   -0.5650    0.3560 c         1 C52      0.702700
     14 O1         -0.0820    0.5830    0.8000 o         1 C52     -0.629500
     15 C13        -0.6970   -2.7280   -0.5380 cd        1 C52      0.027800
     16 C14        -1.7320   -3.6710   -1.0250 c3        1 C52     -0.072900
     17 C12         0.6460   -3.2240   -0.4480 cd        1 C52     -0.238000
     18 C11         1.6530   -2.4080   -0.0190 cc        1 C52      0.010600
     19 N4          1.4260   -1.0980    0.3710 n         1 C52     -0.264200
     20 C15         2.5420   -0.2960    0.7470 ca        1 C52      0.033600
     21 C16         3.7280   -0.3420   -0.0150 ca        1 C52     -0.103000
     22 C20         2.4840    0.5480    1.8770 ca        1 C52     -0.078000
     23 C19         3.5920    1.3130    2.2330 ca        1 C52     -0.124000
     24 C18         4.7690    1.2540    1.4900 ca        1 C52     -0.084000
     25 C17         4.8260    0.4250    0.3700 ca        1 C52     -0.158300
     26 C21         6.1010    0.3680   -0.4650 c3        1 C52      0.688200
     27 F2          6.3400   -0.8510   -1.0560 f         1 C52     -0.235633
     28 F3          6.1290    1.2570   -1.5120 f         1 C52     -0.235633
     29 F1          7.2530    0.6340    0.2330 f         1 C52     -0.235633
     30 H8         -2.3020   -0.0030    1.7040 ha        1 C52      0.149000
     31 H4         -4.2520    1.3180    2.6460 h4        1 C52      0.029100
     32 HN3        -8.2350    2.6550    0.9310 hn        1 C52      0.427300
     33 HN3A       -8.3550    2.0580   -0.6440 hn        1 C52      0.427300
     34 H5         -4.7890   -0.4770   -2.6310 ha        1 C52      0.152000
     35 H6         -2.5270   -1.4640   -2.3590 ha        1 C52      0.135000
     36 H14        -1.6920   -3.7320   -2.1420 hc        1 C52      0.058367
     37 H14A       -1.5490   -4.6940   -0.6120 hc        1 C52      0.058367
     38 H14B       -2.7580   -3.3440   -0.7240 hc        1 C52      0.058367
     39 H12         0.8560   -4.2640   -0.7290 ha        1 C52      0.156000
     40 H11         2.7000   -2.7620    0.0500 h4        1 C52      0.161000
     41 H16         3.8010   -0.9740   -0.9150 ha        1 C52      0.156000
     42 H20         1.5540    0.6240    2.4660 ha        1 C52      0.170000
     43 H19         3.5340    1.9720    3.1140 ha        1 C52      0.149000
     44 H18         5.6470    1.8530    1.7800 ha        1 C52      0.156000
@<TRIPOS>BOND
     1    1    2 ar  
     2    1   11 ar  
     3    1   30 1   
     4    2    3 ar  
     5    2    8 ar  
     6    3    4 ar  
     7    3   31 1   
     8    4    5 ar  
     9    5    6 1   
    10    5    7 ar  
    11    6   32 1   
    12    6   33 1   
    13    7    8 ar  
    14    8    9 ar  
    15    9   10 ar  
    16    9   34 1   
    17   10   11 ar  
    18   10   35 1   
    19   11   12 1   
    20   12   13 1   
    21   12   15 2   
    22   13   14 2   
    23   13   19 1   
    24   15   16 1   
    25   15   17 1   
    26   16   36 1   
    27   16   37 1   
    28   16   38 1   
    29   17   18 2   
    30   17   39 1   
    31   18   19 1   
    32   18   40 1   
    33   19   20 1   
    34   20   21 ar  
    35   20   22 ar  
    36   21   25 ar  
    37   21   41 1   
    38   22   23 ar  
    39   22   42 1   
    40   23   24 ar  
    41   23   43 1   
    42   24   25 ar  
    43   24   44 1   
    44   25   26 1   
    45   26   27 1   
    46   26   28 1   
    47   26   29 1   
@<TRIPOS>SUBSTRUCTURE
     1 C52         1 TEMP              0 ****  ****    0 ROOT
