@<TRIPOS>MOLECULE
C52
   45    48     1     0     0
SMALL
bcc


@<TRIPOS>ATOM
      1 C8          0.0200    0.0100    0.0180 ca        1 C52     -0.073000
      2 C3          1.4230    0.0530    0.0880 ca        1 C52     -0.233600
      3 C4          2.1470   -0.1080    1.3210 ca        1 C52      0.506200
      4 N2          3.4670   -0.0780    1.3950 nb        1 C52     -0.693000
      5 C1          4.1220    0.1230    0.1720 ca        1 C52      0.664900
      6 N3          5.6130    0.1490    0.2590 n4        1 C52     -0.811300
      7 N1          3.5840    0.2890   -1.0460 nb        1 C52     -0.628000
      8 C2          2.2030    0.2530   -1.1010 ca        1 C52      0.398600
      9 C5          1.5210    0.4000   -2.3440 ca        1 C52     -0.158300
     10 C6          0.1460    0.3470   -2.3790 ca        1 C52     -0.083000
     11 C7         -0.6280    0.1550   -1.2030 ca        1 C52      0.039200
     12 C9         -2.0810    0.0740   -1.2940 cc        1 C52     -0.222400
     13 C10        -2.7090   -1.0390   -0.5580 c         1 C52      0.708700
     14 O1         -2.0850   -1.7960    0.2110 o         1 C52     -0.640500
     15 C13        -2.8480    0.9560   -2.0220 cd        1 C52      0.078800
     16 C14        -2.2980    2.1410   -2.7210 c3        1 C52     -0.085900
     17 C12        -4.2560    0.7440   -2.1140 cd        1 C52     -0.259000
     18 C11        -4.8340   -0.3380   -1.5000 cc        1 C52      0.049600
     19 N4         -4.1030   -1.2310   -0.7460 n         1 C52     -0.246200
     20 C15        -4.7700   -2.3630   -0.1840 ca        1 C52      0.009600
     21 C16        -5.6410   -3.1270   -0.9870 ca        1 C52     -0.094000
     22 C20        -4.5720   -2.7280    1.1630 ca        1 C52     -0.074000
     23 C19        -5.2460   -3.8260    1.6920 ca        1 C52     -0.123000
     24 C18        -6.1180   -4.5750    0.9040 ca        1 C52     -0.069000
     25 C17        -6.3080   -4.2180   -0.4320 ca        1 C52     -0.156300
     26 C21        -7.2410   -5.0430   -1.3150 c3        1 C52      0.688200
     27 F2         -7.8990   -4.3120   -2.2750 f         1 C52     -0.230300
     28 F3         -6.6060   -6.0350   -2.0230 f         1 C52     -0.230300
     29 F1         -8.2400   -5.6930   -0.6350 f         1 C52     -0.230300
     30 H8         -0.5640   -0.1730    0.9380 ha        1 C52      0.180000
     31 H4          1.6010   -0.2720    2.2740 h4        1 C52      0.070100
     32 HN3         6.0220    0.3100   -0.6700 hn        1 C52      0.476467
     33 HN3A        5.9370   -0.7520    0.6290 hn        1 C52      0.476467
     34 H5          2.1010    0.5440   -3.2710 ha        1 C52      0.170000
     35 H6         -0.3770    0.4390   -3.3470 ha        1 C52      0.164000
     36 H14        -2.1970    1.9220   -3.8150 hc        1 C52      0.064700
     37 H14A       -1.2970    2.4350   -2.3200 hc        1 C52      0.064700
     38 H14B       -2.9920    3.0130   -2.6060 hc        1 C52      0.064700
     39 H12        -4.8760    1.4490   -2.6860 ha        1 C52      0.169000
     40 H11        -5.9230   -0.5350   -1.5750 h4        1 C52      0.177000
     41 H16        -5.8060   -2.8780   -2.0490 ha        1 C52      0.158000
     42 H20        -3.8700   -2.1590    1.7950 ha        1 C52      0.163000
     43 H19        -5.0850   -4.1050    2.7450 ha        1 C52      0.156000
     44 H18        -6.6570   -5.4390    1.3270 ha        1 C52      0.165000
     45 H33         5.8950    0.9010    0.8980 hn        1 C52      0.476467
@<TRIPOS>BOND
     1    1    2 ar  
     2    1   11 ar  
     3    1   30 1   
     4    2    3 ar  
     5    2    8 ar  
     6    3    4 ar  
     7    3   31 1   
     8    4    5 ar  
     9    5    6 1   
    10    5    7 ar  
    11    6   32 1   
    12    6   33 1   
    13    6   45 1   
    14    7    8 ar  
    15    8    9 ar  
    16    9   10 ar  
    17    9   34 1   
    18   10   11 ar  
    19   10   35 1   
    20   11   12 1   
    21   12   13 1   
    22   12   15 2   
    23   13   14 2   
    24   13   19 1   
    25   15   16 1   
    26   15   17 1   
    27   16   36 1   
    28   16   37 1   
    29   16   38 1   
    30   17   18 2   
    31   17   39 1   
    32   18   19 1   
    33   18   40 1   
    34   19   20 1   
    35   20   21 ar  
    36   20   22 ar  
    37   21   25 ar  
    38   21   41 1   
    39   22   23 ar  
    40   22   42 1   
    41   23   24 ar  
    42   23   43 1   
    43   24   25 ar  
    44   24   44 1   
    45   25   26 1   
    46   26   27 1   
    47   26   28 1   
    48   26   29 1   
@<TRIPOS>SUBSTRUCTURE
     1 C52         1 TEMP              0 ****  ****    0 ROOT
