@<TRIPOS>MOLECULE
C52
   44    47     1     0     0
SMALL
bcc


@<TRIPOS>ATOM
      1 C8          0.0550    0.0100    0.0220 ca        1 C52     -0.035000
      2 C3          1.4600    0.1020    0.0990 ca        1 C52     -0.320600
      3 C4          2.1820    0.0350    1.3380 ca        1 C52      0.492200
      4 N2          3.4910    0.1260    1.4280 nb        1 C52     -0.732000
      5 C1          4.1950    0.3070    0.2060 ca        1 C52      0.868900
      6 N3          5.5740    0.5160    0.3060 nv        1 C52     -0.925500
      7 N1          3.6200    0.3490   -1.0310 nb        1 C52     -0.762000
      8 C2          2.2500    0.2530   -1.0820 ca        1 C52      0.468600
      9 C5          1.5650    0.2940   -2.3400 ca        1 C52     -0.199300
     10 C6          0.1980    0.2070   -2.3850 ca        1 C52     -0.084000
     11 C7         -0.5830    0.0750   -1.2030 ca        1 C52     -0.069800
     12 C9         -2.0380   -0.0070   -1.3060 cc        1 C52     -0.144400
     13 C10        -2.6810   -1.1170   -0.5760 c         1 C52      0.702700
     14 O1         -2.0770   -1.8950    0.1860 o         1 C52     -0.629500
     15 C13        -2.7900    0.8800   -2.0330 cd        1 C52      0.027800
     16 C14        -2.2180    2.0490   -2.7400 c3        1 C52     -0.072900
     17 C12        -4.2080    0.6890   -2.1280 cd        1 C52     -0.238000
     18 C11        -4.8030   -0.3750   -1.5120 cc        1 C52      0.010600
     19 N4         -4.0840   -1.2840   -0.7530 n         1 C52     -0.264200
     20 C15        -4.7710   -2.3990   -0.1950 ca        1 C52      0.033600
     21 C16        -5.7150   -3.1040   -0.9720 ca        1 C52     -0.103000
     22 C20        -4.5280   -2.8150    1.1310 ca        1 C52     -0.078000
     23 C19        -5.2220   -3.9000    1.6610 ca        1 C52     -0.124000
     24 C18        -6.1660   -4.5850    0.8990 ca        1 C52     -0.084000
     25 C17        -6.4040   -4.1790   -0.4140 ca        1 C52     -0.158300
     26 C21        -7.4180   -4.9330   -1.2680 c3        1 C52      0.688200
     27 F2         -8.0750   -4.1550   -2.1910 f         1 C52     -0.235633
     28 F3         -6.8800   -5.9540   -2.0130 f         1 C52     -0.235633
     29 F1         -8.4280   -5.5340   -0.5560 f         1 C52     -0.235633
     30 H8         -0.5260   -0.1340    0.9470 ha        1 C52      0.149000
     31 H4          1.6280   -0.1080    2.2870 h4        1 C52      0.029100
     32 HN3         6.1030    0.4040   -0.5270 hn        1 C52      0.427300
     33 HN3A        6.0090    0.2210    1.1490 hn        1 C52      0.427300
     34 H5          2.1540    0.3930   -3.2650 ha        1 C52      0.152000
     35 H6         -0.3220    0.2300   -3.3570 ha        1 C52      0.135000
     36 H14        -1.2160    2.3290   -2.3280 hc        1 C52      0.058367
     37 H14A       -2.9000    2.9310   -2.6450 hc        1 C52      0.058367
     38 H14B       -2.1000    1.8130   -3.8280 hc        1 C52      0.058367
     39 H12        -4.8100    1.4050   -2.7040 ha        1 C52      0.156000
     40 H11        -5.8930   -0.5510   -1.5790 h4        1 C52      0.161000
     41 H16        -5.9150   -2.8200   -2.0190 ha        1 C52      0.156000
     42 H20        -3.7690   -2.2990    1.7440 ha        1 C52      0.170000
     43 H19        -5.0190   -4.2190    2.6960 ha        1 C52      0.149000
     44 H18        -6.7200   -5.4370    1.3230 ha        1 C52      0.156000
@<TRIPOS>BOND
     1    1    2 ar  
     2    1   11 ar  
     3    1   30 1   
     4    2    3 ar  
     5    2    8 ar  
     6    3    4 ar  
     7    3   31 1   
     8    4    5 ar  
     9    5    6 1   
    10    5    7 ar  
    11    6   32 1   
    12    6   33 1   
    13    7    8 ar  
    14    8    9 ar  
    15    9   10 ar  
    16    9   34 1   
    17   10   11 ar  
    18   10   35 1   
    19   11   12 1   
    20   12   13 1   
    21   12   15 2   
    22   13   14 2   
    23   13   19 1   
    24   15   16 1   
    25   15   17 1   
    26   16   36 1   
    27   16   37 1   
    28   16   38 1   
    29   17   18 2   
    30   17   39 1   
    31   18   19 1   
    32   18   40 1   
    33   19   20 1   
    34   20   21 ar  
    35   20   22 ar  
    36   21   25 ar  
    37   21   41 1   
    38   22   23 ar  
    39   22   42 1   
    40   23   24 ar  
    41   23   43 1   
    42   24   25 ar  
    43   24   44 1   
    44   25   26 1   
    45   26   27 1   
    46   26   28 1   
    47   26   29 1   
@<TRIPOS>SUBSTRUCTURE
     1 C52         1 TEMP              0 ****  ****    0 ROOT
