@<TRIPOS>MOLECULE
C53
   21    22     1     0     0
SMALL
bcc


@<TRIPOS>ATOM
      1 C2         -0.1520   -0.3130    0.2890 ca        1 C53     -0.226300
      2 C3          1.2050   -0.5630    0.0750 ca        1 C53     -0.091000
      3 C4          2.1350   -0.0850    0.9960 ca        1 C53     -0.236300
      4 C5          1.6610    0.6370    2.1090 ca        1 C53      0.402200
      5 N1          0.3620    0.8870    2.3430 nb        1 C53     -0.635000
      6 C1         -0.5340    0.4090    1.4400 ca        1 C53      0.437100
      7 C6         -1.9640    0.6790    1.6480 ce        1 C53     -0.119800
      8 C7         -2.7130    0.2040    2.6500 cd        1 C53     -0.104600
      9 S1         -4.3670    0.5950    2.8660 ss        1 C53     -0.085800
     10 C8         -2.2530   -0.7250    3.7220 c         1 C53      0.715700
     11 O1         -1.1470   -1.2640    3.8360 o         1 C53     -0.567500
     12 N2         -3.2840   -0.9750    4.6430 n         1 C53     -0.553400
     13 C9         -4.5220   -0.3510    4.3610 cc        1 C53      0.502800
     14 N3         -5.6410   -0.3830    4.9900 n2        1 C53     -0.790100
     15 H2         -0.9120   -0.6760   -0.4150 ha        1 C53      0.145000
     16 H3          1.5310   -1.1310   -0.8090 ha        1 C53      0.140000
     17 H4          3.2100   -0.2630    0.8660 ha        1 C53      0.145000
     18 H5          2.3620    1.0360    2.8640 h4        1 C53      0.026100
     19 H6C1       -2.4130    1.3390    0.8810 ha        1 C53      0.150000
     20 H3N1       -5.6950   -0.9230    5.8270 hn        1 C53      0.405400
     21 H2N        -3.1400   -1.5560    5.4330 hn        1 C53      0.341500
@<TRIPOS>BOND
     1    1    2 ar  
     2    1    6 ar  
     3    1   15 1   
     4    2    3 ar  
     5    2   16 1   
     6    3    4 ar  
     7    3   17 1   
     8    4    5 ar  
     9    4   18 1   
    10    5    6 ar  
    11    6    7 1   
    12    7    8 2   
    13    7   19 1   
    14    8    9 1   
    15    8   10 1   
    16    9   13 1   
    17   10   11 2   
    18   10   12 1   
    19   12   13 1   
    20   12   21 1   
    21   13   14 2   
    22   14   20 1   
@<TRIPOS>SUBSTRUCTURE
     1 C53         1 TEMP              0 ****  ****    0 ROOT
