@<TRIPOS>MOLECULE
C53
   21    22     1     0     0
SMALL
bcc


@<TRIPOS>ATOM
      1 C2         -0.1450   -0.2770    0.2900 ca        1 C53     -0.226300
      2 C3          1.2130   -0.5200    0.0760 ca        1 C53     -0.091000
      3 C4          2.1390   -0.0530    1.0080 ca        1 C53     -0.236300
      4 C5          1.6600    0.6490    2.1310 ca        1 C53      0.402200
      5 N1          0.3590    0.8930    2.3640 nb        1 C53     -0.635000
      6 C1         -0.5330    0.4270    1.4520 ca        1 C53      0.437100
      7 C6         -1.9640    0.6890    1.6590 ce        1 C53     -0.119800
      8 C7         -2.7150    0.1960    2.6510 cd        1 C53     -0.104600
      9 S1         -4.3700    0.5790    2.8680 ss        1 C53     -0.085800
     10 C8         -2.2560   -0.7480    3.7100 c         1 C53      0.715700
     11 O1         -1.1480   -1.2860    3.8180 o         1 C53     -0.567500
     12 N2         -3.2880   -1.0160    4.6240 ns        1 C53     -0.553400
     13 C9         -4.5280   -0.3910    4.3470 cc        1 C53      0.502800
     14 N3         -5.6490   -0.4360    4.9720 n2        1 C53     -0.790100
     15 H2         -0.9020   -0.6310   -0.4220 ha        1 C53      0.145000
     16 H3          1.5440   -1.0730   -0.8150 ha        1 C53      0.140000
     17 H4          3.2150   -0.2260    0.8790 ha        1 C53      0.145000
     18 H5          2.3570    1.0400    2.8940 h4        1 C53      0.026100
     19 H6C1       -2.4120    1.3590    0.9010 ha        1 C53      0.150000
     20 H3N1       -5.7040   -0.9890    5.8010 hn        1 C53      0.405400
     21 H2N        -3.1450   -1.6080    5.4050 hn        1 C53      0.341500
@<TRIPOS>BOND
     1    1    2 ar  
     2    1    6 ar  
     3    1   15 1   
     4    2    3 ar  
     5    2   16 1   
     6    3    4 ar  
     7    3   17 1   
     8    4    5 ar  
     9    4   18 1   
    10    5    6 ar  
    11    6    7 1   
    12    7    8 2   
    13    7   19 1   
    14    8    9 1   
    15    8   10 1   
    16    9   13 1   
    17   10   11 2   
    18   10   12 1   
    19   12   13 1   
    20   12   21 1   
    21   13   14 2   
    22   14   20 1   
@<TRIPOS>SUBSTRUCTURE
     1 C53         1 TEMP              0 ****  ****    0 ROOT
