@<TRIPOS>MOLECULE
C54
   15    15     1     0     0
SMALL
bcc


@<TRIPOS>ATOM
      1 C           1.1330    2.7130   -0.2300 c         1 C54      0.907800
      2 O           1.2120    3.5800    0.6910 o         1 C54     -0.839300
      3 CA          1.9310   -1.0290   -0.0030 c3        1 C54     -0.044200
      4 CB          2.2400   -0.5840    1.4340 c3        1 C54     -0.085400
      5 CG          1.9590    0.9240    1.4880 c3        1 C54     -0.044200
      6 CD          1.5040    1.2930    0.1050 ce        1 C54     -0.138400
      7 CN          1.4920    0.2190   -0.7070 c2        1 C54     -0.223200
      8 HA          1.1270   -1.8050   -0.0200 hc        1 C54      0.017700
      9 HB2         2.8360   -1.4690   -0.4920 hc        1 C54      0.017700
     10 HB3         1.5980   -1.1340    2.1630 hc        1 C54      0.016700
     11 HG2         3.3060   -0.7980    1.6920 hc        1 C54      0.016700
     12 HG3         1.1640    1.1720    2.2340 hc        1 C54      0.049700
     13 HD2         2.8720    1.5080    1.7620 hc        1 C54      0.049700
     14 OXT         0.7590    2.9790   -1.4090 o         1 C54     -0.839300
     15 HN          1.2040    0.2100   -1.7580 ha        1 C54      0.137000
@<TRIPOS>BOND
     1    1    2 1   
     2    1    6 1   
     3    1   14 1   
     4    3    4 1   
     5    3    7 1   
     6    3    8 1   
     7    3    9 1   
     8    4    5 1   
     9    4   10 1   
    10    4   11 1   
    11    5    6 1   
    12    5   12 1   
    13    5   13 1   
    14    6    7 2   
    15    7   15 1   
@<TRIPOS>SUBSTRUCTURE
     1 C54         1 TEMP              0 ****  ****    0 ROOT
