@<TRIPOS>MOLECULE
C54
   15    15     1     0     0
SMALL
bcc


@<TRIPOS>ATOM
      1 C           0.1200    2.0870   -0.1820 c         1 C54      0.907800
      2 O          -0.0460    3.0050    0.6740 o         1 C54     -0.839300
      3 CA          2.5540   -0.8690   -0.0130 c3        1 C54     -0.044200
      4 CB          2.8650   -0.1670    1.3180 c3        1 C54     -0.085400
      5 CG          1.9440    1.0600    1.3830 c3        1 C54     -0.044200
      6 CD          1.1450    1.0250    0.1110 ce        1 C54     -0.138400
      7 CN          1.4850   -0.0340   -0.6490 c2        1 C54     -0.223200
      8 HA          2.1990   -1.9160    0.1580 hc        1 C54      0.017700
      9 HB2         3.4630   -0.9220   -0.6620 hc        1 C54      0.017700
     10 HB3         2.6760   -0.8520    2.1790 hc        1 C54      0.016700
     11 HG2         3.9380    0.1410    1.3590 hc        1 C54      0.016700
     12 HG3         2.5240    2.0120    1.4480 hc        1 C54      0.049700
     13 HD2         1.2620    1.0190    2.2670 hc        1 C54      0.049700
     14 OXT        -0.5290    2.0180   -1.2660 o         1 C54     -0.839300
     15 HN          1.0590   -0.2920   -1.6180 ha        1 C54      0.137000
@<TRIPOS>BOND
     1    1    2 1   
     2    1    6 1   
     3    1   14 1   
     4    3    4 1   
     5    3    7 1   
     6    3    8 1   
     7    3    9 1   
     8    4    5 1   
     9    4   10 1   
    10    4   11 1   
    11    5    6 1   
    12    5   12 1   
    13    5   13 1   
    14    6    7 2   
    15    7   15 1   
@<TRIPOS>SUBSTRUCTURE
     1 C54         1 TEMP              0 ****  ****    0 ROOT
