@<TRIPOS>MOLECULE
C54
   15    14     1     0     0
SMALL
bcc


@<TRIPOS>ATOM
      1 C          -1.6010   -0.8870   -0.9630 c1        1 C54      0.342000
      2 O          -2.0270   -2.0500   -1.1860 o         1 C54     -0.577500
      3 CA         -0.1350   -0.6560   -0.7260 c2        1 C54     -0.210500
      4 CB          0.1840   -0.6540    0.9200 c3        1 C54     -0.137500
      5 CG          0.8690    0.7800    1.2140 c3        1 C54     -0.137500
      6 CD          1.0060    1.2420   -0.0020 c2        1 C54     -0.210500
      7 CN          0.1680    0.5490   -1.0200 c2        1 C54     -0.093000
      8 HA          0.2600   -1.3710   -1.2660 ha        1 C54      0.094000
      9 HB2         0.8010   -1.3780    1.1480 hc        1 C54      0.069250
     10 HB3        -0.6480   -0.7430    1.4280 hc        1 C54      0.069250
     11 HG2         0.3340    1.3780    1.7760 hc        1 C54      0.069250
     12 HG3         1.7070    0.7090    1.7170 hc        1 C54      0.069250
     13 HD2         1.2810    2.1690   -0.1450 ha        1 C54      0.094000
     14 OXT        -2.4030    0.0840   -0.9370 o         1 C54     -0.577500
     15 HN          0.2050    0.8290   -1.9570 ha        1 C54      0.136000
@<TRIPOS>BOND
     1    1    2 1   
     2    1   14 1   
     3    3    4 1   
     4    3    7 1   
     5    3    8 1   
     6    4    5 1   
     7    4    9 1   
     8    4   10 1   
     9    5    6 1   
    10    5   11 1   
    11    5   12 1   
    12    6    7 1   
    13    6   13 1   
    14    7   15 1   
@<TRIPOS>SUBSTRUCTURE
     1 C54         1 TEMP              0 ****  ****    0 ROOT
