@<TRIPOS>MOLECULE
C54
   15    15     1     0     0
SMALL
bcc


@<TRIPOS>ATOM
      1 C          -1.3700   -0.1060    0.1360 c         1 C54      0.922600
      2 O          -1.6430   -1.2260    0.6500 o         1 C54     -0.842800
      3 CA         -0.0100    0.0810   -0.5810 c3        1 C54     -0.169500
      4 CB          0.9520   -1.1070   -0.4400 c3        1 C54     -0.074400
      5 CG          2.2690   -0.5430    0.1140 c3        1 C54     -0.039200
      6 CD          1.9980    0.9130    0.3430 c2        1 C54     -0.262200
      7 CN          0.7490    1.2480   -0.0290 c2        1 C54     -0.097200
      8 HA         -0.2490    0.2670   -1.6610 hc        1 C54      0.043700
      9 HB2         0.5100   -1.8610    0.2600 hc        1 C54      0.043700
     10 HB3         1.1210   -1.6030   -1.4260 hc        1 C54      0.043700
     11 HG2         2.5550   -1.0490    1.0690 hc        1 C54      0.016200
     12 HG3         3.1110   -0.6840   -0.6090 hc        1 C54      0.016200
     13 HD2         2.7580    1.5610    0.7790 ha        1 C54      0.105000
     14 OXT        -2.1560    0.8850    0.1400 o         1 C54     -0.842800
     15 HN          0.2590    2.2200    0.0550 ha        1 C54      0.136000
@<TRIPOS>BOND
     1    1    2 1   
     2    1    3 1   
     3    1   14 1   
     4    3    4 1   
     5    3    7 1   
     6    3    8 1   
     7    4    5 1   
     8    4    9 1   
     9    4   10 1   
    10    5    6 1   
    11    5   11 1   
    12    5   12 1   
    13    6    7 2   
    14    6   13 1   
    15    7   15 1   
@<TRIPOS>SUBSTRUCTURE
     1 C54         1 TEMP              0 ****  ****    0 ROOT
