@<TRIPOS>MOLECULE
C56
   51    52     1     0     0
SMALL
bcc


@<TRIPOS>ATOM
      1 O16        -0.9470   -1.8750    1.5220 o         1 C56     -0.579100
      2 C15        -0.5940   -1.0780    0.6350 c         1 C56      0.690700
      3 C2          0.8380   -0.6930    0.4420 ca        1 C56     -0.186600
      4 C3          1.7840   -1.6390   -0.0100 ca        1 C56      0.214100
      5 O13         1.2760   -2.8670   -0.3540 os        1 C56     -0.302900
      6 C14         2.2190   -3.8940   -0.6550 c3        1 C56      0.109700
      7 C4          3.1350   -1.2960   -0.1170 ca        1 C56     -0.264000
      8 C5          3.5840    0.0030    0.2000 ca        1 C56      0.225600
      9 N10         4.9620    0.3490    0.1830 nh        1 C56     -0.642000
     10 C12         5.8610   -0.7050    0.5990 c3        1 C56      0.163600
     11 C11         5.4120    1.0500   -1.0020 c3        1 C56      0.163600
     12 C6          2.6140    0.9480    0.6300 ca        1 C56     -0.209200
     13 N7          2.9910    2.3380    1.0060 no        1 C56      0.327200
     14 O9          2.5970    2.7670    2.0570 o         1 C56     -0.204000
     15 O8          3.6300    3.0110    0.2440 o         1 C56     -0.204000
     16 C1          1.2630    0.5890    0.7610 ca        1 C56     -0.018000
     17 N17        -1.4930   -0.5010   -0.2390 n         1 C56     -0.567900
     18 C18        -2.9100   -0.7160   -0.1480 c3        1 C56      0.067000
     19 C05        -3.7160    0.5980    0.0290 c3        1 C56      0.161500
     20 C06        -3.5360    1.5090   -1.2090 c3        1 C56     -0.092400
     21 C07        -4.9370    1.8570   -1.6950 c3        1 C56     -0.086400
     22 C08        -5.8930    0.9870   -0.8690 c3        1 C56      0.163800
     23 N09        -5.1560    0.4430    0.2700 n3        1 C56     -0.731600
     24 C10        -5.6010   -0.8630    0.7120 c3        1 C56      0.172800
     25 C13        -7.0780   -0.9130    1.0730 c3        1 C56     -0.095100
     26 H17        -1.1690    0.1650   -0.8980 hn        1 C56      0.311500
     27 H1          0.5340    1.3260    1.1430 ha        1 C56      0.170000
     28 H4          3.8660   -2.0480   -0.4520 ha        1 C56      0.155000
     29 H141        2.9190   -4.0530    0.2000 h1        1 C56      0.053367
     30 H142        1.5690   -4.7940   -0.8090 h1        1 C56      0.053367
     31 H143        2.7790   -3.6460   -1.5890 h1        1 C56      0.053367
     32 H121        6.0460   -1.4720   -0.2020 h1        1 C56      0.046700
     33 H122        6.8400   -0.2260    0.8660 h1        1 C56      0.046700
     34 H123        5.4480   -1.2200    1.5060 h1        1 C56      0.046700
     35 H111        4.6440    1.7980   -1.3290 h1        1 C56      0.046700
     36 H112        6.3570    1.5930   -0.7360 h1        1 C56      0.046700
     37 H113        5.6240    0.3480   -1.8550 h1        1 C56      0.046700
     38 H181       -3.2550   -1.2320   -1.0900 h1        1 C56      0.065200
     39 H182       -3.1060   -1.4050    0.7240 h1        1 C56      0.065200
     40 H05        -3.3200    1.1270    0.9450 h1        1 C56      0.068700
     41 H061       -2.9660    2.4270   -0.9280 hc        1 C56      0.044700
     42 H062       -2.9690    0.9860   -2.0180 hc        1 C56      0.044700
     43 H071       -5.1560    2.9410   -1.5280 hc        1 C56      0.048700
     44 H072       -5.0550    1.6470   -2.7850 hc        1 C56      0.048700
     45 H081       -6.7420    1.5970   -0.4600 h1        1 C56      0.038700
     46 H082       -6.3330    0.1780   -1.5190 h1        1 C56      0.038700
     47 H101       -5.4020   -1.6640   -0.0620 h1        1 C56      0.032200
     48 H102       -5.0030   -1.1210    1.6330 h1        1 C56      0.032200
     49 H131       -7.7200   -0.7210    0.1800 hc        1 C56      0.039700
     50 H132       -7.3140   -1.9300    1.4700 hc        1 C56      0.039700
     51 H133       -7.3260   -0.1570    1.8560 hc        1 C56      0.039700
@<TRIPOS>BOND
     1    1    2 2   
     2    2    3 1   
     3    2   17 1   
     4    3    4 ar  
     5    3   16 ar  
     6    4    5 1   
     7    4    7 ar  
     8    5    6 1   
     9    6   29 1   
    10    6   30 1   
    11    6   31 1   
    12    7    8 ar  
    13    7   28 1   
    14    8    9 1   
    15    8   12 ar  
    16    9   10 1   
    17    9   11 1   
    18   10   32 1   
    19   10   33 1   
    20   10   34 1   
    21   11   35 1   
    22   11   36 1   
    23   11   37 1   
    24   12   13 1   
    25   12   16 ar  
    26   13   14 1   
    27   13   15 1   
    28   16   27 1   
    29   17   18 1   
    30   17   26 1   
    31   18   19 1   
    32   18   38 1   
    33   18   39 1   
    34   19   20 1   
    35   19   23 1   
    36   19   40 1   
    37   20   21 1   
    38   20   41 1   
    39   20   42 1   
    40   21   22 1   
    41   21   43 1   
    42   21   44 1   
    43   22   23 1   
    44   22   45 1   
    45   22   46 1   
    46   23   24 1   
    47   24   25 1   
    48   24   47 1   
    49   24   48 1   
    50   25   49 1   
    51   25   50 1   
    52   25   51 1   
@<TRIPOS>SUBSTRUCTURE
     1 C56         1 TEMP              0 ****  ****    0 ROOT
