@<TRIPOS>MOLECULE
C56
   52    53     1     0     0
SMALL
bcc


@<TRIPOS>ATOM
      1 O16         0.9420   -2.4800   -0.0060 o         1 C56     -0.411100
      2 C15         1.8270   -1.6460    0.1040 c         1 C56      0.603700
      3 C2          2.2920   -0.9200    1.2710 ca        1 C56     -0.318600
      4 C3          1.3340   -0.4510    2.2230 ca        1 C56      0.279100
      5 O13         0.0330   -0.5960    1.8360 os        1 C56     -0.319900
      6 C14        -0.9840   -0.2290    2.7750 c3        1 C56      0.108700
      7 C4          1.7380    0.1070    3.4230 ca        1 C56     -0.319000
      8 C5          3.1240    0.2290    3.7700 ca        1 C56      0.346600
      9 N10         3.4780    0.5890    5.0340 nh        1 C56     -0.620000
     10 C12         2.5140    1.2350    5.8990 c3        1 C56      0.177100
     11 C11         4.7450    0.2650    5.6440 c3        1 C56      0.177100
     12 C6          4.0610   -0.0790    2.7140 ca        1 C56     -0.294200
     13 N7          5.4910    0.3150    2.7700 no        1 C56      0.322200
     14 O9          6.2810   -0.3410    2.1420 o         1 C56     -0.195500
     15 O8          5.8110    1.2960    3.3800 o         1 C56     -0.195500
     16 C1          3.6420   -0.7030    1.5390 ca        1 C56      0.042000
     17 N17         2.5530   -1.3120   -1.2030 ny        1 C56     -0.679800
     18 C18         1.6060   -0.7670   -2.2180 c3        1 C56      0.068800
     19 C05         2.3030   -0.5170   -3.5830 c3        1 C56      0.175500
     20 C06         2.7470   -1.8610   -4.2100 c3        1 C56     -0.102400
     21 C07         2.0710   -1.9380   -5.5750 c3        1 C56     -0.086400
     22 C08         1.1540   -0.7120   -5.6610 c3        1 C56      0.161800
     23 N09         1.5060    0.1990   -4.5720 n3        1 C56     -0.729600
     24 C10         0.4280    1.0330   -4.0810 c3        1 C56      0.177800
     25 C13        -0.2400    1.8610   -5.1680 c3        1 C56     -0.098100
     26 H17         2.9820   -2.1660   -1.5780 hn        1 C56      0.451800
     27 H1          4.4170   -1.0320    0.8190 ha        1 C56      0.160000
     28 H4          0.9710    0.4300    4.1450 ha        1 C56      0.172000
     29 H141       -0.8870   -0.8330    3.7090 h1        1 C56      0.068367
     30 H142       -0.9320    0.8650    2.9910 h1        1 C56      0.068367
     31 H143       -1.9280   -0.4860    2.2290 h1        1 C56      0.068367
     32 H121        3.0580    1.7540    6.7330 h1        1 C56      0.070700
     33 H122        1.9280    2.0040    5.3280 h1        1 C56      0.070700
     34 H123        1.8100    0.4770    6.3380 h1        1 C56      0.070700
     35 H111        4.5720    0.0400    6.7320 h1        1 C56      0.070700
     36 H112        5.1970   -0.6450    5.1700 h1        1 C56      0.070700
     37 H113        5.4580    1.1330    5.5620 h1        1 C56      0.070700
     38 H181        1.1920    0.1950   -1.8030 hx        1 C56      0.111700
     39 H182        0.7620   -1.5060   -2.3380 hx        1 C56      0.111700
     40 H05         3.2050    0.1370   -3.3900 h1        1 C56      0.068700
     41 H061        3.8590   -1.8830   -4.3160 hc        1 C56      0.050700
     42 H062        2.4380   -2.7330   -3.5830 hc        1 C56      0.050700
     43 H071        1.4810   -2.8810   -5.6840 hc        1 C56      0.069700
     44 H072        2.8320   -1.9140   -6.3940 hc        1 C56      0.069700
     45 H081        0.0740   -1.0290   -5.6160 h1        1 C56      0.059700
     46 H082        1.3120   -0.1530   -6.6230 h1        1 C56      0.059700
     47 H101        0.8730    1.7390   -3.3210 h1        1 C56      0.025700
     48 H102       -0.3700    0.4220   -3.5610 h1        1 C56      0.025700
     49 H131        0.5030    2.4980   -5.7040 hc        1 C56      0.053367
     50 H132       -1.0030    2.5230   -4.6920 hc        1 C56      0.053367
     51 H133       -0.7520    1.2070   -5.9150 hc        1 C56      0.053367
     52 H172        3.2920   -0.6240   -1.0290 hn        1 C56      0.451800
@<TRIPOS>BOND
     1    1    2 2   
     2    2    3 1   
     3    2   17 1   
     4    3    4 ar  
     5    3   16 ar  
     6    4    5 1   
     7    4    7 ar  
     8    5    6 1   
     9    6   29 1   
    10    6   30 1   
    11    6   31 1   
    12    7    8 ar  
    13    7   28 1   
    14    8    9 1   
    15    8   12 ar  
    16    9   10 1   
    17    9   11 1   
    18   10   32 1   
    19   10   33 1   
    20   10   34 1   
    21   11   35 1   
    22   11   36 1   
    23   11   37 1   
    24   12   13 1   
    25   12   16 ar  
    26   13   14 1   
    27   13   15 1   
    28   16   27 1   
    29   17   18 1   
    30   17   26 1   
    31   17   52 1   
    32   18   19 1   
    33   18   38 1   
    34   18   39 1   
    35   19   20 1   
    36   19   23 1   
    37   19   40 1   
    38   20   21 1   
    39   20   41 1   
    40   20   42 1   
    41   21   22 1   
    42   21   43 1   
    43   21   44 1   
    44   22   23 1   
    45   22   45 1   
    46   22   46 1   
    47   23   24 1   
    48   24   25 1   
    49   24   47 1   
    50   24   48 1   
    51   25   49 1   
    52   25   50 1   
    53   25   51 1   
@<TRIPOS>SUBSTRUCTURE
     1 C56         1 TEMP              0 ****  ****    0 ROOT
