@<TRIPOS>MOLECULE
C56
   52    53     1     0     0
SMALL
bcc


@<TRIPOS>ATOM
      1 O16         0.9600   -2.4640   -0.0300 o         1 C56     -0.411100
      2 C15         1.8390   -1.6250    0.0890 c         1 C56      0.603700
      3 C2          2.3030   -0.9150    1.2660 ca        1 C56     -0.318600
      4 C3          1.3480   -0.4730    2.2330 ca        1 C56      0.279100
      5 O13         0.0450   -0.6270    1.8530 os        1 C56     -0.319900
      6 C14        -0.9690   -0.2870    2.8050 c3        1 C56      0.108700
      7 C4          1.7540    0.0680    3.4410 ca        1 C56     -0.319000
      8 C5          3.1410    0.2000    3.7790 ca        1 C56      0.346600
      9 N10         3.5000    0.5410    5.0480 nh        1 C56     -0.620000
     10 C12         2.5350    1.1600    5.9300 c3        1 C56      0.177100
     11 C11         4.7760    0.2210    5.6420 c3        1 C56      0.177100
     12 C6          4.0740   -0.0790    2.7120 ca        1 C56     -0.294200
     13 N7          5.4990    0.3300    2.7640 no        1 C56      0.322200
     14 O9          6.2920   -0.3050    2.1190 o         1 C56     -0.195500
     15 O8          5.8130    1.3040    3.3890 o         1 C56     -0.195500
     16 C1          3.6530   -0.6860    1.5280 ca        1 C56      0.042000
     17 N17         2.5550   -1.2620   -1.2150 n4        1 C56     -0.679800
     18 C18         1.5950   -0.7410   -2.2290 c3        1 C56      0.068800
     19 C05         2.2860   -0.4650   -3.5910 c3        1 C56      0.175500
     20 C06         2.7720   -1.7920   -4.2230 c3        1 C56     -0.102400
     21 C07         2.1030   -1.8830   -5.5910 c3        1 C56     -0.086400
     22 C08         1.1490   -0.6850   -5.6730 c3        1 C56      0.161800
     23 N09         1.4690    0.2310   -4.5790 n3        1 C56     -0.729600
     24 C10         0.3650    1.0290   -4.0870 c3        1 C56      0.176800
     25 C13        -0.3270    1.8400   -5.1720 c3        1 C56     -0.098100
     26 H17         3.0110   -2.1000   -1.5930 hn        1 C56      0.451800
     27 H1          4.4270   -0.9930    0.7970 ha        1 C56      0.160000
     28 H4          0.9890    0.3690    4.1730 ha        1 C56      0.172000
     29 H141       -1.9140   -0.5450    2.2620 h1        1 C56      0.068367
     30 H142       -0.9270    0.8040    3.0400 h1        1 C56      0.068367
     31 H143       -0.8590   -0.9060    3.7280 h1        1 C56      0.068367
     32 H121        3.0800    1.6720    6.7700 h1        1 C56      0.070700
     33 H122        1.8440    0.3870    6.3610 h1        1 C56      0.070700
     34 H123        1.9370    1.9330    5.3770 h1        1 C56      0.070700
     35 H111        5.2340   -0.6750    5.1480 h1        1 C56      0.070700
     36 H112        4.6130   -0.0260    6.7280 h1        1 C56      0.070700
     37 H113        5.4780    1.0980    5.5710 h1        1 C56      0.070700
     38 H181        1.1510    0.2060   -1.8100 hx        1 C56      0.112200
     39 H182        0.7730   -1.5040   -2.3540 hx        1 C56      0.112200
     40 H05         3.1680    0.2160   -3.3940 h1        1 C56      0.068700
     41 H061        2.4870   -2.6760   -3.6010 hc        1 C56      0.050700
     42 H062        3.8850   -1.7810   -4.3250 hc        1 C56      0.050700
     43 H071        2.8660   -1.8310   -6.4070 hc        1 C56      0.069700
     44 H072        1.5430   -2.8420   -5.7060 hc        1 C56      0.069700
     45 H081        1.2920   -0.1170   -6.6330 h1        1 C56      0.060200
     46 H082        0.0790   -1.0350   -5.6330 h1        1 C56      0.060200
     47 H101       -0.4150    0.3910   -3.5720 h1        1 C56      0.025700
     48 H102        0.7860    1.7450   -3.3240 h1        1 C56      0.025700
     49 H131        0.3980    2.5030   -5.7040 hc        1 C56      0.053367
     50 H132       -1.1100    2.4760   -4.6950 hc        1 C56      0.053367
     51 H133       -0.8160    1.1750   -5.9240 hc        1 C56      0.053367
     52 H172        3.2720   -0.5530   -1.0350 hn        1 C56      0.451800
@<TRIPOS>BOND
     1    1    2 2   
     2    2    3 1   
     3    2   17 1   
     4    3    4 ar  
     5    3   16 ar  
     6    4    5 1   
     7    4    7 ar  
     8    5    6 1   
     9    6   29 1   
    10    6   30 1   
    11    6   31 1   
    12    7    8 ar  
    13    7   28 1   
    14    8    9 1   
    15    8   12 ar  
    16    9   10 1   
    17    9   11 1   
    18   10   32 1   
    19   10   33 1   
    20   10   34 1   
    21   11   35 1   
    22   11   36 1   
    23   11   37 1   
    24   12   13 1   
    25   12   16 ar  
    26   13   14 1   
    27   13   15 1   
    28   16   27 1   
    29   17   18 1   
    30   17   26 1   
    31   17   52 1   
    32   18   19 1   
    33   18   38 1   
    34   18   39 1   
    35   19   20 1   
    36   19   23 1   
    37   19   40 1   
    38   20   21 1   
    39   20   41 1   
    40   20   42 1   
    41   21   22 1   
    42   21   43 1   
    43   21   44 1   
    44   22   23 1   
    45   22   45 1   
    46   22   46 1   
    47   23   24 1   
    48   24   25 1   
    49   24   47 1   
    50   24   48 1   
    51   25   49 1   
    52   25   50 1   
    53   25   51 1   
@<TRIPOS>SUBSTRUCTURE
     1 C56         1 TEMP              0 ****  ****    0 ROOT
