@<TRIPOS>MOLECULE
C56
   51    52     1     0     0
SMALL
bcc


@<TRIPOS>ATOM
      1 O16         0.4720    1.5480   -0.2150 o         1 C56     -0.579100
      2 C15         1.2500    0.5970   -0.0250 c         1 C56      0.690700
      3 C2          1.9790    0.4180    1.2680 ca        1 C56     -0.186600
      4 C3          1.2790    0.1010    2.4530 ca        1 C56      0.214100
      5 O13        -0.0650   -0.1320    2.3020 os        1 C56     -0.302900
      6 C14        -0.8310   -0.2910    3.4940 c3        1 C56      0.109700
      7 C4          1.9550    0.0080    3.6730 ca        1 C56     -0.264000
      8 C5          3.3500    0.2060    3.7510 ca        1 C56      0.225600
      9 N10         4.0430    0.2040    4.9910 nh        1 C56     -0.642000
     10 C12         3.3040    0.7590    6.1040 c3        1 C56      0.163600
     11 C11         4.7270   -1.0300    5.3180 c3        1 C56      0.163600
     12 C6          4.0400    0.5000    2.5450 ca        1 C56     -0.209200
     13 N7          5.5090    0.7430    2.5250 no        1 C56      0.327200
     14 O9          5.9120    1.7300    1.9690 o         1 C56     -0.204000
     15 O8          6.2540   -0.0600    3.0160 o         1 C56     -0.204000
     16 C1          3.3510    0.6180    1.3270 ca        1 C56     -0.018000
     17 N17         1.4900   -0.3640   -0.9860 n         1 C56     -0.567900
     18 C18         0.9180   -0.3040   -2.3020 c3        1 C56      0.067000
     19 C05         1.9840   -0.2940   -3.4300 c3        1 C56      0.161500
     20 C06         2.7940   -1.6110   -3.4150 c3        1 C56     -0.092400
     21 C07         2.7170   -2.1810   -4.8250 c3        1 C56     -0.086400
     22 C08         1.7040   -1.3060   -5.5720 c3        1 C56      0.163800
     23 N09         1.4780   -0.0900   -4.7930 n3        1 C56     -0.731600
     24 C10         0.1460    0.4670   -4.9120 c3        1 C56      0.172800
     25 C13        -0.2580    0.7780   -6.3460 c3        1 C56     -0.095100
     26 H17         2.1550   -1.0760   -0.8050 hn        1 C56      0.311500
     27 H1          3.9020    0.8940    0.4090 ha        1 C56      0.170000
     28 H4          1.3950   -0.2200    4.5930 ha        1 C56      0.155000
     29 H141       -0.5290   -1.2240    4.0290 h1        1 C56      0.053367
     30 H142       -1.8800   -0.3740    3.1100 h1        1 C56      0.053367
     31 H143       -0.7220    0.6010    4.1570 h1        1 C56      0.053367
     32 H121        2.7840    1.6980    5.7820 h1        1 C56      0.046700
     33 H122        4.0460    1.0100    6.9080 h1        1 C56      0.046700
     34 H123        2.5440    0.0490    6.5300 h1        1 C56      0.046700
     35 H111        5.5220   -0.7880    6.0720 h1        1 C56      0.046700
     36 H112        5.2150   -1.4610    4.4040 h1        1 C56      0.046700
     37 H113        4.0320   -1.7980    5.7560 h1        1 C56      0.046700
     38 H181        0.2460   -1.2000   -2.4430 h1        1 C56      0.065200
     39 H182        0.2840    0.6270   -2.3680 h1        1 C56      0.065200
     40 H05         2.6790    0.5770   -3.2420 h1        1 C56      0.068700
     41 H061        2.3690   -2.3410   -2.6820 hc        1 C56      0.044700
     42 H062        3.8520   -1.4060   -3.1200 hc        1 C56      0.044700
     43 H071        3.7150   -2.1360   -5.3260 hc        1 C56      0.048700
     44 H072        2.3860   -3.2480   -4.8160 hc        1 C56      0.048700
     45 H081        2.1030   -0.9930   -6.5750 h1        1 C56      0.038700
     46 H082        0.7530   -1.8840   -5.7480 h1        1 C56      0.038700
     47 H101        0.1390    1.4320   -4.3270 h1        1 C56      0.032200
     48 H102       -0.6400   -0.2120   -4.4650 h1        1 C56      0.032200
     49 H131       -0.3220   -0.1540   -6.9580 hc        1 C56      0.039700
     50 H132        0.4740    1.4680   -6.8290 hc        1 C56      0.039700
     51 H133       -1.2610    1.2680   -6.3360 hc        1 C56      0.039700
@<TRIPOS>BOND
     1    1    2 2   
     2    2    3 1   
     3    2   17 1   
     4    3    4 ar  
     5    3   16 ar  
     6    4    5 1   
     7    4    7 ar  
     8    5    6 1   
     9    6   29 1   
    10    6   30 1   
    11    6   31 1   
    12    7    8 ar  
    13    7   28 1   
    14    8    9 1   
    15    8   12 ar  
    16    9   10 1   
    17    9   11 1   
    18   10   32 1   
    19   10   33 1   
    20   10   34 1   
    21   11   35 1   
    22   11   36 1   
    23   11   37 1   
    24   12   13 1   
    25   12   16 ar  
    26   13   14 1   
    27   13   15 1   
    28   16   27 1   
    29   17   18 1   
    30   17   26 1   
    31   18   19 1   
    32   18   38 1   
    33   18   39 1   
    34   19   20 1   
    35   19   23 1   
    36   19   40 1   
    37   20   21 1   
    38   20   41 1   
    39   20   42 1   
    40   21   22 1   
    41   21   43 1   
    42   21   44 1   
    43   22   23 1   
    44   22   45 1   
    45   22   46 1   
    46   23   24 1   
    47   24   25 1   
    48   24   47 1   
    49   24   48 1   
    50   25   49 1   
    51   25   50 1   
    52   25   51 1   
@<TRIPOS>SUBSTRUCTURE
     1 C56         1 TEMP              0 ****  ****    0 ROOT
