@<TRIPOS>MOLECULE
C56
   51    49     1     0     0
SMALL
bcc


@<TRIPOS>ATOM
      1 O16        -2.4900    0.4500    0.2130 o         1 C56     -0.346000
      2 C15        -1.2660    0.3120    0.2010 c1        1 C56      0.352000
      3 C2         -0.4850    0.2570    1.5290 c1        1 C56     -0.164000
      4 C3         -1.1570    0.3920    2.7190 c2        1 C56      0.171000
      5 O13        -2.5510    0.6930    2.7160 os        1 C56     -0.181000
      6 C14        -2.8790    1.8820    3.3720 c3        1 C56     -0.081000
      7 C4         -0.4810    0.1620    3.9430 c1        1 C56     -0.231000
      8 C5          0.8620   -0.2000    3.9370 c1        1 C56      0.163000
      9 N10         1.5420   -0.4330    5.1660 n3        1 C56     -0.267000
     10 C12         1.8620   -1.7430    5.5480 c3        1 C56     -0.106500
     11 C11         1.7760    0.6660    6.0870 c3        1 C56     -0.106500
     12 C6          1.5350   -0.3350    2.7470 c1        1 C56     -0.209000
     13 N7          2.9490   -0.6040    2.7530 n2        1 C56      0.464400
     14 O9          3.7700    0.0670    3.6290 o         1 C56     -0.309700
     15 O8          3.4210   -1.3540    1.9440 o         1 C56     -0.309700
     16 C1          0.8640   -0.1070    1.5280 c2        1 C56     -0.017000
     17 N17        -0.5770    0.1740   -1.0400 n3        1 C56     -0.358000
     18 C18        -1.1570    0.7130   -2.2540 c3        1 C56     -0.020000
     19 C05        -0.9880   -0.2970   -3.3940 c3        1 C56     -0.055000
     20 C06        -2.2460   -0.2220   -4.4050 c3        1 C56     -0.168000
     21 C07        -1.7210    0.4410   -5.6400 c3        1 C56     -0.175000
     22 C08        -0.5270    0.9270   -5.2900 c3        1 C56     -0.076000
     23 N09         0.0140   -0.0060   -4.0960 n3        1 C56     -0.259000
     24 C10         0.5900   -1.2270   -4.6560 c3        1 C56     -0.068000
     25 C13         2.0940   -1.0930   -4.7080 c3        1 C56     -0.214000
     26 H17         0.2520   -0.3270   -1.0800 hn        1 C56      0.232000
     27 H1          1.3190   -0.1960    0.7240 ha        1 C56      0.171000
     28 H4         -0.9680    0.2590    4.8080 ha        1 C56      0.165000
     29 H141       -2.1100    2.5340    3.3010 h1        1 C56      0.094000
     30 H142       -3.0530    1.7040    4.2660 h1        1 C56      0.094000
     31 H143       -3.6250    2.2480    2.9830 h1        1 C56      0.094000
     32 H121        1.0640   -2.2790    5.5520 h1        1 C56      0.086833
     33 H122        2.4770   -2.1020    4.9430 h1        1 C56      0.086833
     34 H123        2.2750   -1.7340    6.4960 h1        1 C56      0.086833
     35 H111        2.2060    0.3020    6.9550 h1        1 C56      0.086833
     36 H112        2.3960    1.3350    5.6590 h1        1 C56      0.086833
     37 H113        0.9280    1.0980    6.3010 h1        1 C56      0.086833
     38 H181       -0.6940    1.5750   -2.4980 h1        1 C56      0.105500
     39 H182       -2.1350    0.8880   -2.1060 h1        1 C56      0.105500
     40 H05        -0.8990   -1.1660   -3.0470 h1        1 C56      0.092000
     41 H061       -2.9540    0.3060   -4.0190 hc        1 C56      0.090500
     42 H062       -2.5690   -1.1190   -4.6150 hc        1 C56      0.090500
     43 H071       -1.6260   -0.1990   -6.3480 hc        1 C56      0.087000
     44 H072       -2.3070    1.1590   -5.9110 hc        1 C56      0.087000
     45 H081        0.0860    0.8860   -6.0490 h1        1 C56      0.084500
     46 H082       -0.6210    1.8750   -4.9690 h1        1 C56      0.084500
     47 H101        0.3540   -1.9740   -4.1000 h1        1 C56      0.067500
     48 H102        0.2250   -1.3760   -5.6020 h1        1 C56      0.067500
     49 H131        2.3630   -0.8130   -5.5950 hc        1 C56      0.080667
     50 H132        2.3680   -0.4640   -4.0900 hc        1 C56      0.080667
     51 H133        2.4960   -1.9380   -4.5050 hc        1 C56      0.080667
@<TRIPOS>BOND
     1    1    2 1   
     2    2   17 1   
     3    3    4 1   
     4    3   16 1   
     5    4    5 1   
     6    4    7 1   
     7    5    6 1   
     8    6   29 1   
     9    6   30 1   
    10    6   31 1   
    11    7   28 1   
    12    8    9 1   
    13    8   12 1   
    14    9   10 1   
    15    9   11 1   
    16   10   32 1   
    17   10   33 1   
    18   10   34 1   
    19   11   35 1   
    20   11   36 1   
    21   11   37 1   
    22   12   16 1   
    23   13   14 2   
    24   13   15 2   
    25   16   27 1   
    26   17   18 1   
    27   17   26 1   
    28   18   19 1   
    29   18   38 1   
    30   18   39 1   
    31   19   20 1   
    32   19   23 1   
    33   19   40 1   
    34   20   21 1   
    35   20   41 1   
    36   20   42 1   
    37   21   22 1   
    38   21   43 1   
    39   21   44 1   
    40   22   23 1   
    41   22   45 1   
    42   22   46 1   
    43   23   24 1   
    44   24   25 1   
    45   24   47 1   
    46   24   48 1   
    47   25   49 1   
    48   25   50 1   
    49   25   51 1   
@<TRIPOS>SUBSTRUCTURE
     1 C56         1 TEMP              0 ****  ****    0 ROOT
