@<TRIPOS>MOLECULE
C57
   51    49     1     0     0
SMALL
bcc


@<TRIPOS>ATOM
      1 O16        -1.7520    0.1500   -0.0030 o         1 C57     -0.358000
      2 C15        -0.5470   -0.0060    0.0360 c1        1 C57      0.350000
      3 C2          0.1750   -0.0650    1.3830 c1        1 C57     -0.166000
      4 C3         -0.5480    0.0900    2.5670 c2        1 C57      0.150000
      5 O13        -1.9520    0.3150    2.5160 os        1 C57     -0.217000
      6 C14        -2.3860    1.4290    3.2850 c3        1 C57     -0.078000
      7 C4          0.0830   -0.0800    3.7940 c1        1 C57     -0.228000
      8 C5          1.4340   -0.4060    3.8420 c1        1 C57      0.162000
      9 N10         2.0690   -0.6760    5.1190 n3        1 C57     -0.267000
     10 C12         2.0080   -2.0040    5.6900 c3        1 C57     -0.108000
     11 C11         2.6930    0.3870    5.8450 c3        1 C57     -0.108000
     12 C6          2.1560   -0.5610    2.6590 c1        1 C57     -0.205000
     13 N7          3.5750   -0.7710    2.7090 no        1 C57      0.573000
     14 O9          4.2590   -1.1000    1.5640 o         1 C57     -0.358500
     15 O8          4.1840   -0.5780    3.7500 o         1 C57     -0.358500
     16 C1          1.5250   -0.3900    1.4320 c1        1 C57      0.011000
     17 N17         0.2030   -0.1690   -1.1970 n3        1 C57     -0.345000
     18 C18        -0.3030    0.4090   -2.4410 c3        1 C57     -0.059000
     19 C07         0.1420   -1.0160   -5.1290 c3        1 C57     -0.166000
     20 C06        -0.2020   -1.5370   -3.7200 c3        1 C57     -0.171000
     21 C05        -1.0530   -0.6440   -3.2200 c3        1 C57     -0.042000
     22 N09        -1.8000    0.0250   -4.4810 n3        1 C57     -0.256000
     23 C10        -2.2860    1.3560   -4.1110 c3        1 C57     -0.065000
     24 C08        -0.8990    0.1340   -5.4210 c3        1 C57     -0.073000
     25 C13        -3.1730    1.9210   -5.2550 c3        1 C57     -0.213000
     26 H1          2.0300   -0.4990    0.6050 ha        1 C57      0.191000
     27 H17         1.0400   -0.5560   -1.1790 hn        1 C57      0.226000
     28 H4         -0.4230    0.0280    4.6240 ha        1 C57      0.164000
     29 H141       -3.2030    1.8070    2.8840 h1        1 C57      0.094667
     30 H142       -1.6820    2.1120    3.2990 h1        1 C57      0.094667
     31 H143       -2.5780    1.1370    4.2040 h1        1 C57      0.094667
     32 H121        2.6080   -2.6020    5.1940 h1        1 C57      0.087500
     33 H122        1.0890   -2.3420    5.6340 h1        1 C57      0.087500
     34 H123        2.2880   -1.9680    6.6350 h1        1 C57      0.087500
     35 H111        3.2400    0.0100    6.5710 h1        1 C57      0.087500
     36 H112        2.0020    0.9730    6.2260 h1        1 C57      0.087500
     37 H113        3.2650    0.9060    5.2400 h1        1 C57      0.087500
     38 H181        0.4450    0.7380   -2.9750 h1        1 C57      0.108500
     39 H182       -0.9040    1.1500   -2.2330 h1        1 C57      0.108500
     40 H05        -1.7060   -1.0890   -2.6410 h1        1 C57      0.108000
     41 H071        1.0570   -0.6590   -5.1450 hc        1 C57      0.087500
     42 H072        0.0460   -1.7400   -5.7920 hc        1 C57      0.087500
     43 H061       -0.6300   -2.4220   -3.7770 hc        1 C57      0.083000
     44 H062        0.6100   -1.5840   -3.1660 hc        1 C57      0.083000
     45 H081       -0.4610    1.0100   -5.3750 h1        1 C57      0.078500
     46 H082       -1.3140    0.0030   -6.3100 h1        1 C57      0.078500
     47 H101       -2.8170    1.2930   -3.2860 h1        1 C57      0.072500
     48 H102       -1.5230    1.9540   -3.9650 h1        1 C57      0.072500
     49 H131       -3.7620    2.6280   -4.8950 hc        1 C57      0.078333
     50 H132       -2.6000    2.2990   -5.9600 hc        1 C57      0.078333
     51 H133       -3.7210    1.2000   -5.6300 hc        1 C57      0.078333
@<TRIPOS>BOND
     1    1    2 1   
     2    2   17 1   
     3    3    4 1   
     4    3   16 1   
     5    4    5 1   
     6    4    7 1   
     7    5    6 1   
     8    6   29 1   
     9    6   30 1   
    10    6   31 1   
    11    7   28 1   
    12    8    9 1   
    13    8   12 1   
    14    9   10 1   
    15    9   11 1   
    16   10   32 1   
    17   10   33 1   
    18   10   34 1   
    19   11   35 1   
    20   11   36 1   
    21   11   37 1   
    22   12   13 1   
    23   13   14 1   
    24   13   15 1   
    25   16   26 1   
    26   17   18 1   
    27   17   27 1   
    28   18   21 1   
    29   18   38 1   
    30   18   39 1   
    31   19   20 1   
    32   19   24 1   
    33   19   41 1   
    34   19   42 1   
    35   20   21 1   
    36   20   43 1   
    37   20   44 1   
    38   21   22 1   
    39   21   40 1   
    40   22   23 1   
    41   22   24 1   
    42   23   25 1   
    43   23   47 1   
    44   23   48 1   
    45   24   45 1   
    46   24   46 1   
    47   25   49 1   
    48   25   50 1   
    49   25   51 1   
@<TRIPOS>SUBSTRUCTURE
     1 C57         1 TEMP              0 ****  ****    0 ROOT
