@<TRIPOS>MOLECULE
C57
   51    52     1     0     0
SMALL
bcc


@<TRIPOS>ATOM
      1 O16        -1.2180   -2.6690   -1.1020 o         1 C57     -0.576100
      2 C15        -0.9030   -1.8060   -0.2640 c         1 C57      0.679700
      3 C2          0.4380   -1.1450   -0.2810 ca        1 C57     -0.187600
      4 C3          1.6250   -1.8690   -0.0340 ca        1 C57      0.219100
      5 O13         1.4570   -3.1890    0.2980 os        1 C57     -0.297900
      6 C14         2.6370   -3.9790    0.4240 c3        1 C57      0.108700
      7 C4          2.8690   -1.2340   -0.1090 ca        1 C57     -0.271000
      8 C5          2.9740    0.1350   -0.4340 ca        1 C57      0.229600
      9 N10         4.2220    0.8120   -0.4280 nh        1 C57     -0.644000
     10 C12         5.1770    0.3380    0.5480 c3        1 C57      0.166600
     11 C11         4.8080    1.0550   -1.7300 c3        1 C57      0.166600
     12 C6          1.7680    0.8480   -0.6720 ca        1 C57     -0.217200
     13 N7          1.7530    2.3050   -0.9710 no        1 C57      0.329200
     14 O9          0.9290    2.9810   -0.4110 o         1 C57     -0.210000
     15 O8          2.5100    2.7700   -1.7760 o         1 C57     -0.210000
     16 C1          0.5210    0.2060   -0.5820 ca        1 C57     -0.018000
     17 N17        -1.7510   -1.4250    0.7680 n         1 C57     -0.526900
     18 C18        -3.1670   -1.6630    0.6700 c3        1 C57      0.084000
     19 C07        -5.8110    0.0640   -0.7770 c3        1 C57     -0.099400
     20 C06        -5.5030   -0.7460    0.4740 c3        1 C57     -0.093400
     21 C05        -4.0470   -0.3990    0.8590 c3        1 C57      0.144500
     22 N09        -3.5840    0.7250    0.0240 n3        1 C57     -0.728600
     23 C10        -3.2800    1.9200    0.7990 c3        1 C57      0.163800
     24 C08        -4.5700    0.9330   -1.0380 c3        1 C57      0.157800
     25 C13        -2.5540    2.9990    0.0110 c3        1 C57     -0.096100
     26 H1         -0.4090    0.7830   -0.7520 ha        1 C57      0.180000
     27 H17        -1.4830   -0.6190    1.2880 hn        1 C57      0.301500
     28 H4          3.7870   -1.8100    0.0860 ha        1 C57      0.153000
     29 H141        3.2520   -3.6280    1.2880 h1        1 C57      0.052700
     30 H142        2.2330   -5.0060    0.6170 h1        1 C57      0.052700
     31 H143        3.2310   -3.9580   -0.5210 h1        1 C57      0.052700
     32 H121        5.6980   -0.6090    0.2370 h1        1 C57      0.046033
     33 H122        5.9500    1.1410    0.6780 h1        1 C57      0.046033
     34 H123        4.6630    0.1640    1.5290 h1        1 C57      0.046033
     35 H111        4.0110    1.2700   -2.4890 h1        1 C57      0.046033
     36 H112        5.4710    1.9560   -1.6390 h1        1 C57      0.046033
     37 H113        5.4220    0.1830   -2.0870 h1        1 C57      0.046033
     38 H181       -3.3980   -2.1390   -0.3250 h1        1 C57      0.063200
     39 H182       -3.4550   -2.3890    1.4830 h1        1 C57      0.063200
     40 H05        -4.0110   -0.1210    1.9530 h1        1 C57      0.046700
     41 H071       -6.0070   -0.6050   -1.6510 hc        1 C57      0.049200
     42 H072       -6.7150    0.7030   -0.6280 hc        1 C57      0.049200
     43 H061       -6.1920   -0.4680    1.3090 hc        1 C57      0.051200
     44 H062       -5.6200   -1.8410    0.2870 hc        1 C57      0.051200
     45 H081       -4.0800    0.6250   -2.0030 h1        1 C57      0.050200
     46 H082       -4.8640    2.0130   -1.1310 h1        1 C57      0.050200
     47 H101       -4.2110    2.3730    1.2510 h1        1 C57      0.026700
     48 H102       -2.6130    1.6060    1.6540 h1        1 C57      0.026700
     49 H131       -1.5530    2.6450   -0.3360 hc        1 C57      0.044367
     50 H132       -3.1430    3.3240   -0.8800 hc        1 C57      0.044367
     51 H133       -2.4000    3.8830    0.6760 hc        1 C57      0.044367
@<TRIPOS>BOND
     1    1    2 2   
     2    2    3 1   
     3    2   17 1   
     4    3    4 ar  
     5    3   16 ar  
     6    4    5 1   
     7    4    7 ar  
     8    5    6 1   
     9    6   29 1   
    10    6   30 1   
    11    6   31 1   
    12    7    8 ar  
    13    7   28 1   
    14    8    9 1   
    15    8   12 ar  
    16    9   10 1   
    17    9   11 1   
    18   10   32 1   
    19   10   33 1   
    20   10   34 1   
    21   11   35 1   
    22   11   36 1   
    23   11   37 1   
    24   12   13 1   
    25   12   16 ar  
    26   13   14 1   
    27   13   15 1   
    28   16   26 1   
    29   17   18 1   
    30   17   27 1   
    31   18   21 1   
    32   18   38 1   
    33   18   39 1   
    34   19   20 1   
    35   19   24 1   
    36   19   41 1   
    37   19   42 1   
    38   20   21 1   
    39   20   43 1   
    40   20   44 1   
    41   21   22 1   
    42   21   40 1   
    43   22   23 1   
    44   22   24 1   
    45   23   25 1   
    46   23   47 1   
    47   23   48 1   
    48   24   45 1   
    49   24   46 1   
    50   25   49 1   
    51   25   50 1   
    52   25   51 1   
@<TRIPOS>SUBSTRUCTURE
     1 C57         1 TEMP              0 ****  ****    0 ROOT
