@<TRIPOS>MOLECULE
C57
   52    53     1     0     0
SMALL
bcc


@<TRIPOS>ATOM
      1 O16         0.5460    1.6210   -0.1890 o         1 C57     -0.418100
      2 C15         1.4880    0.8720    0.0230 c         1 C57      0.596700
      3 C2          2.0330    0.4060    1.2850 ca        1 C57     -0.315600
      4 C3          1.1450    0.1760    2.3810 ca        1 C57      0.280100
      5 O13        -0.1800    0.2770    2.0680 os        1 C57     -0.314900
      6 C14        -1.1270    0.1250    3.1310 c3        1 C57      0.108700
      7 C4          1.6310   -0.1280    3.6420 ca        1 C57     -0.321000
      8 C5          3.0360   -0.2160    3.9080 ca        1 C57      0.346600
      9 N10         3.4780   -0.3200    5.1920 nh        1 C57     -0.623000
     10 C12         4.7890    0.0930    5.6320 c3        1 C57      0.178100
     11 C11         2.5740   -0.7510    6.2350 c3        1 C57      0.178100
     12 C6          3.8960   -0.1590    2.7480 ca        1 C57     -0.294200
     13 N7          5.3220   -0.5650    2.7870 no        1 C57      0.322200
     14 O9          6.0720   -0.0660    1.9890 o         1 C57     -0.197000
     15 O8          5.6780   -1.4100    3.5600 o         1 C57     -0.197000
     16 C1          3.3970    0.2120    1.4990 ca        1 C57      0.042000
     17 N17         2.1960    0.3460   -1.2220 ny        1 C57     -0.669800
     18 C18         1.2420   -0.0500   -2.2960 c3        1 C57      0.108800
     19 C07         1.5040   -2.4870   -4.6990 c3        1 C57     -0.101400
     20 C06         0.9520   -1.0750   -4.5630 c3        1 C57     -0.092400
     21 C05         1.9460   -0.3220   -3.6510 c3        1 C57      0.148500
     22 N09         3.1490   -1.1470   -3.4610 n3        1 C57     -0.764600
     23 C10         4.3640   -0.5190   -3.9690 c3        1 C57      0.160800
     24 C08         2.8790   -2.4790   -4.0130 c3        1 C57      0.154800
     25 C13         5.6380   -1.2390   -3.5540 c3        1 C57     -0.099100
     26 H1          4.1210    0.3540    0.6730 ha        1 C57      0.160000
     27 H17         2.7720   -0.4680   -0.9740 hn        1 C57      0.458800
     28 H4          0.9160   -0.2680    4.4680 ha        1 C57      0.171000
     29 H141       -0.9620    0.9030    3.9140 h1        1 C57      0.067700
     30 H142       -1.0640   -0.9040    3.5610 h1        1 C57      0.067700
     31 H143       -2.1080    0.2830    2.6110 h1        1 C57      0.067700
     32 H121        5.4870   -0.7890    5.6810 h1        1 C57      0.069867
     33 H122        4.6980    0.5410    6.6600 h1        1 C57      0.069867
     34 H123        5.2120    0.8760    4.9500 h1        1 C57      0.069867
     35 H111        1.9160    0.1000    6.5610 h1        1 C57      0.069867
     36 H112        1.9360   -1.6020    5.8750 h1        1 C57      0.069867
     37 H113        3.1730   -1.1080    7.1160 h1        1 C57      0.069867
     38 H181        0.4940    0.7820   -2.4360 hx        1 C57      0.109200
     39 H182        0.7030   -0.9740   -1.9430 hx        1 C57      0.109200
     40 H05         2.2000    0.6770   -4.1100 h1        1 C57      0.069700
     41 H071        0.8290   -3.2310   -4.2080 hc        1 C57      0.067700
     42 H072        1.6010   -2.7770   -5.7740 hc        1 C57      0.067700
     43 H061       -0.0810   -1.0760   -4.1370 hc        1 C57      0.068200
     44 H062        0.9050   -0.5670   -5.5590 hc        1 C57      0.068200
     45 H081        2.8940   -3.2030   -3.1530 h1        1 C57      0.063200
     46 H082        3.6770   -2.7950   -4.7400 h1        1 C57      0.063200
     47 H101        4.3990    0.5300   -3.5550 h1        1 C57      0.035700
     48 H102        4.3490   -0.4350   -5.0950 h1        1 C57      0.035700
     49 H131        6.5130   -0.6640   -3.9460 hc        1 C57      0.051367
     50 H132        5.6770   -2.2720   -3.9750 hc        1 C57      0.051367
     51 H133        5.7250   -1.3080   -2.4440 hc        1 C57      0.051367
     52 H172        2.8190    1.0750   -1.5860 hn        1 C57      0.458800
@<TRIPOS>BOND
     1    1    2 2   
     2    2    3 1   
     3    2   17 1   
     4    3    4 ar  
     5    3   16 ar  
     6    4    5 1   
     7    4    7 ar  
     8    5    6 1   
     9    6   29 1   
    10    6   30 1   
    11    6   31 1   
    12    7    8 ar  
    13    7   28 1   
    14    8    9 1   
    15    8   12 ar  
    16    9   10 1   
    17    9   11 1   
    18   10   32 1   
    19   10   33 1   
    20   10   34 1   
    21   11   35 1   
    22   11   36 1   
    23   11   37 1   
    24   12   13 1   
    25   12   16 ar  
    26   13   14 1   
    27   13   15 1   
    28   16   26 1   
    29   17   18 1   
    30   17   27 1   
    31   17   52 1   
    32   18   21 1   
    33   18   38 1   
    34   18   39 1   
    35   19   20 1   
    36   19   24 1   
    37   19   41 1   
    38   19   42 1   
    39   20   21 1   
    40   20   43 1   
    41   20   44 1   
    42   21   22 1   
    43   21   40 1   
    44   22   23 1   
    45   22   24 1   
    46   23   25 1   
    47   23   47 1   
    48   23   48 1   
    49   24   45 1   
    50   24   46 1   
    51   25   49 1   
    52   25   50 1   
    53   25   51 1   
@<TRIPOS>SUBSTRUCTURE
     1 C57         1 TEMP              0 ****  ****    0 ROOT
