@<TRIPOS>MOLECULE
C57
   51    52     1     0     0
SMALL
bcc


@<TRIPOS>ATOM
      1 O16        -0.1810   -1.2250   -0.2090 o         1 C57     -0.576100
      2 C15         0.8230   -0.4950   -0.1200 c         1 C57      0.679700
      3 C2          1.6400   -0.4290    1.1290 ca        1 C57     -0.187600
      4 C3          1.1140    0.0870    2.3340 ca        1 C57      0.219100
      5 O13        -0.1590    0.5930    2.2570 os        1 C57     -0.297900
      6 C14        -0.7680    1.0000    3.4800 c3        1 C57      0.108700
      7 C4          1.8850    0.0860    3.5000 ca        1 C57     -0.271000
      8 C5          3.1990   -0.4280    3.5100 ca        1 C57      0.229600
      9 N10         4.0230   -0.3560    4.6630 nh        1 C57     -0.644000
     10 C12         3.8130    0.8030    5.5000 c3        1 C57      0.166600
     11 C11         4.1580   -1.5870    5.4140 c3        1 C57      0.166600
     12 C6          3.7130   -0.9360    2.2860 ca        1 C57     -0.217200
     13 N7          5.1010   -1.4560    2.1640 no        1 C57      0.329200
     14 O9          5.7380   -1.1250    1.1970 o         1 C57     -0.210000
     15 O8          5.5450   -2.2120    2.9820 o         1 C57     -0.210000
     16 C1          2.9370   -0.9210    1.1150 ca        1 C57     -0.018000
     17 N17         1.2300    0.3400   -1.1530 n         1 C57     -0.526900
     18 C18         0.8040    0.0860   -2.5040 c3        1 C57      0.084000
     19 C07         1.9660   -1.9590   -5.0610 c3        1 C57     -0.099400
     20 C06         1.3810   -0.5680   -4.8650 c3        1 C57     -0.093400
     21 C05         1.9590   -0.0450   -3.5310 c3        1 C57      0.144500
     22 N09         3.0070   -0.9720   -3.0660 n3        1 C57     -0.728600
     23 C10         4.3270   -0.3550   -3.0130 c3        1 C57      0.163800
     24 C08         2.9410   -2.1780   -3.8930 c3        1 C57      0.157800
     25 C13         5.3710   -1.1930   -2.2930 c3        1 C57     -0.096100
     26 H1          3.3620   -1.3040    0.1670 ha        1 C57      0.180000
     27 H17         2.1270    0.7610   -1.0560 hn        1 C57      0.301500
     28 H4          1.4630    0.4920    4.4330 ha        1 C57      0.153000
     29 H141       -0.8020    0.1530    4.2070 h1        1 C57      0.052700
     30 H142       -1.8020    1.2910    3.1620 h1        1 C57      0.052700
     31 H143       -0.2260    1.8750    3.9130 h1        1 C57      0.052700
     32 H121        2.9060    0.7170    6.1600 h1        1 C57      0.046033
     33 H122        3.7110    1.7190    4.8620 h1        1 C57      0.046033
     34 H123        4.7180    0.9130    6.1550 h1        1 C57      0.046033
     35 H111        4.1640   -2.4720    4.7250 h1        1 C57      0.046033
     36 H112        3.3300   -1.7170    6.1640 h1        1 C57      0.046033
     37 H113        5.1390   -1.5460    5.9560 h1        1 C57      0.046033
     38 H181        0.1640    0.9540   -2.8370 h1        1 C57      0.063200
     39 H182        0.1700   -0.8460   -2.5270 h1        1 C57      0.063200
     40 H05         2.3860    0.9880   -3.6940 h1        1 C57      0.046700
     41 H071        2.4990   -2.0360   -6.0390 hc        1 C57      0.049200
     42 H072        1.1650   -2.7370   -5.0480 hc        1 C57      0.049200
     43 H061        1.6800    0.1120   -5.7010 hc        1 C57      0.051200
     44 H062        0.2640   -0.5980   -4.8360 hc        1 C57      0.051200
     45 H081        3.9520   -2.4750   -4.2820 h1        1 C57      0.050200
     46 H082        2.5690   -3.0080   -3.2300 h1        1 C57      0.050200
     47 H101        4.7150   -0.1110   -4.0460 h1        1 C57      0.026700
     48 H102        4.2200    0.6210   -2.4570 h1        1 C57      0.026700
     49 H131        6.3500   -0.6580   -2.3370 hc        1 C57      0.044367
     50 H132        5.1030   -1.3410   -1.2180 hc        1 C57      0.044367
     51 H133        5.4940   -2.1960   -2.7670 hc        1 C57      0.044367
@<TRIPOS>BOND
     1    1    2 2   
     2    2    3 1   
     3    2   17 1   
     4    3    4 ar  
     5    3   16 ar  
     6    4    5 1   
     7    4    7 ar  
     8    5    6 1   
     9    6   29 1   
    10    6   30 1   
    11    6   31 1   
    12    7    8 ar  
    13    7   28 1   
    14    8    9 1   
    15    8   12 ar  
    16    9   10 1   
    17    9   11 1   
    18   10   32 1   
    19   10   33 1   
    20   10   34 1   
    21   11   35 1   
    22   11   36 1   
    23   11   37 1   
    24   12   13 1   
    25   12   16 ar  
    26   13   14 1   
    27   13   15 1   
    28   16   26 1   
    29   17   18 1   
    30   17   27 1   
    31   18   21 1   
    32   18   38 1   
    33   18   39 1   
    34   19   20 1   
    35   19   24 1   
    36   19   41 1   
    37   19   42 1   
    38   20   21 1   
    39   20   43 1   
    40   20   44 1   
    41   21   22 1   
    42   21   40 1   
    43   22   23 1   
    44   22   24 1   
    45   23   25 1   
    46   23   47 1   
    47   23   48 1   
    48   24   45 1   
    49   24   46 1   
    50   25   49 1   
    51   25   50 1   
    52   25   51 1   
@<TRIPOS>SUBSTRUCTURE
     1 C57         1 TEMP              0 ****  ****    0 ROOT
