@<TRIPOS>MOLECULE
C57
   52    53     1     0     0
SMALL
bcc


@<TRIPOS>ATOM
      1 O16         1.0570    2.0100   -0.2470 o         1 C57     -0.418100
      2 C15         1.8150    1.0810   -0.0100 c         1 C57      0.596700
      3 C2          2.2250    0.5240    1.2660 ca        1 C57     -0.315600
      4 C3          1.2880    0.5000    2.3460 ca        1 C57      0.280100
      5 O13         0.0200    0.8770    2.0050 os        1 C57     -0.314900
      6 C14        -0.9560    0.9420    3.0500 c3        1 C57      0.108700
      7 C4          1.6750    0.1140    3.6180 ca        1 C57     -0.321000
      8 C5          3.0240   -0.2680    3.9130 ca        1 C57      0.346600
      9 N10         3.4110   -0.4490    5.2060 nh        1 C57     -0.623000
     10 C12         2.4170   -0.6670    6.2340 c3        1 C57      0.178100
     11 C11         4.7710   -0.3200    5.6690 c3        1 C57      0.178100
     12 C6          3.8970   -0.4080    2.7700 ca        1 C57     -0.294200
     13 N7          5.2040   -1.1080    2.8410 no        1 C57      0.322200
     14 O9          6.0570   -0.7890    2.0540 o         1 C57     -0.197000
     15 O8          5.3570   -2.0000    3.6270 o         1 C57     -0.197000
     16 C1          3.5120    0.0460    1.5090 ca        1 C57      0.042000
     17 N17         2.4160    0.4010   -1.2370 n4        1 C57     -0.669800
     18 C18         1.4220    0.2100   -2.3290 c3        1 C57      0.108800
     19 C07         1.1960   -2.2520   -4.7100 c3        1 C57     -0.101400
     20 C06         0.9620   -0.7520   -4.5960 c3        1 C57     -0.092400
     21 C05         2.0770   -0.2240   -3.6660 c3        1 C57      0.148500
     22 N09         3.0670   -1.2880   -3.4440 n3        1 C57     -0.764600
     23 C10         4.4010   -0.9450   -3.9280 c3        1 C57      0.160800
     24 C08         2.5260   -2.5350   -3.9940 c3        1 C57      0.154800
     25 C13         5.4790   -1.9190   -3.4810 c3        1 C57     -0.099100
     26 H1          4.2640    0.0210    0.6960 ha        1 C57      0.160000
     27 H17         3.1890    0.9750   -1.5900 hn        1 C57      0.458800
     28 H4          0.9320    0.1390    4.4310 ha        1 C57      0.171000
     29 H141       -1.8710    1.3000    2.5090 h1        1 C57      0.067700
     30 H142       -0.6430    1.6760    3.8300 h1        1 C57      0.067700
     31 H143       -1.1210   -0.0720    3.4880 h1        1 C57      0.067700
     32 H121        2.9100   -1.1330    7.1300 h1        1 C57      0.069867
     33 H122        1.9490    0.3080    6.5410 h1        1 C57      0.069867
     34 H123        1.6190   -1.3660    5.8670 h1        1 C57      0.069867
     35 H111        5.2650   -1.3290    5.7390 h1        1 C57      0.069867
     36 H112        5.3640    0.3480    4.9900 h1        1 C57      0.069867
     37 H113        4.7590    0.1490    6.6920 h1        1 C57      0.069867
     38 H181        0.6880   -0.5710   -1.9820 hx        1 C57      0.109200
     39 H182        0.8750    1.1830   -2.4910 hx        1 C57      0.109200
     40 H05         2.5520    0.6910   -4.1250 h1        1 C57      0.069700
     41 H071        1.2500   -2.5680   -5.7810 hc        1 C57      0.067700
     42 H072        0.3660   -2.8260   -4.2300 hc        1 C57      0.067700
     43 H061        1.0470   -0.2580   -5.5960 hc        1 C57      0.068200
     44 H062       -0.0550   -0.5250   -4.1930 hc        1 C57      0.068200
     45 H081        3.2510   -3.0250   -4.7010 h1        1 C57      0.063200
     46 H082        2.3650   -3.2350   -3.1290 h1        1 C57      0.063200
     47 H101        4.6540    0.0770   -3.5210 h1        1 C57      0.035700
     48 H102        4.4270   -0.8710   -5.0550 h1        1 C57      0.035700
     49 H131        5.3010   -2.9410   -3.8940 hc        1 C57      0.051367
     50 H132        5.5260   -1.9930   -2.3690 hc        1 C57      0.051367
     51 H133        6.4650   -1.5520   -3.8560 hc        1 C57      0.051367
     52 H172        2.7970   -0.5160   -0.9710 hn        1 C57      0.458800
@<TRIPOS>BOND
     1    1    2 2   
     2    2    3 1   
     3    2   17 1   
     4    3    4 ar  
     5    3   16 ar  
     6    4    5 1   
     7    4    7 ar  
     8    5    6 1   
     9    6   29 1   
    10    6   30 1   
    11    6   31 1   
    12    7    8 ar  
    13    7   28 1   
    14    8    9 1   
    15    8   12 ar  
    16    9   10 1   
    17    9   11 1   
    18   10   32 1   
    19   10   33 1   
    20   10   34 1   
    21   11   35 1   
    22   11   36 1   
    23   11   37 1   
    24   12   13 1   
    25   12   16 ar  
    26   13   14 1   
    27   13   15 1   
    28   16   26 1   
    29   17   18 1   
    30   17   27 1   
    31   17   52 1   
    32   18   21 1   
    33   18   38 1   
    34   18   39 1   
    35   19   20 1   
    36   19   24 1   
    37   19   41 1   
    38   19   42 1   
    39   20   21 1   
    40   20   43 1   
    41   20   44 1   
    42   21   22 1   
    43   21   40 1   
    44   22   23 1   
    45   22   24 1   
    46   23   25 1   
    47   23   47 1   
    48   23   48 1   
    49   24   45 1   
    50   24   46 1   
    51   25   49 1   
    52   25   50 1   
    53   25   51 1   
@<TRIPOS>SUBSTRUCTURE
     1 C57         1 TEMP              0 ****  ****    0 ROOT
