@<TRIPOS>MOLECULE
C5A
   21    21     1     0     0
SMALL
bcc


@<TRIPOS>ATOM
      1 N           5.3070   -0.5450   -0.2150 n3        1 C5A     -0.901800
      2 CA          4.2880   -1.0380    0.7190 c3        1 C5A      0.050200
      3 C           4.6970   -2.4520    1.2540 c         1 C5A      0.920600
      4 O           4.5580   -2.7240    2.4800 o         1 C5A     -0.861800
      5 OXT         5.1620   -3.2860    0.4170 o         1 C5A     -0.861800
      6 CB1         2.8710   -1.1310    0.0770 c3        1 C5A     -0.068400
      7 CB2         4.0590   -0.0210    1.8650 c3        1 C5A     -0.064400
      8 CG2         2.8560    0.8350    1.4790 c3        1 C5A     -0.070400
      9 CD          2.3020    0.2830    0.1680 c3        1 C5A     -0.167700
     10 CE          0.7740    0.3490    0.0480 c         1 C5A      0.912600
     11 OZ1         0.2750    0.3870   -1.1210 o         1 C5A     -0.873300
     12 OZ2         0.0490    0.4050    1.0850 o         1 C5A     -0.873300
     13 HN1         4.8600    0.0140   -0.9190 hn        1 C5A      0.326300
     14 HN2         5.7230   -1.3390   -0.6710 hn        1 C5A      0.326300
     15 HB11        2.2480   -1.8390    0.6770 hc        1 C5A      0.039200
     16 HB12        2.9050   -1.4990   -0.9740 hc        1 C5A      0.039200
     17 HB21        4.9610    0.6100    2.0500 hc        1 C5A      0.035700
     18 HB22        3.8470   -0.6000    2.8000 hc        1 C5A      0.035700
     19 HG21        2.0610    0.7840    2.2670 hc        1 C5A      0.021700
     20 HG22        3.1490    1.9080    1.3620 hc        1 C5A      0.021700
     21 HD          2.7150    0.8870   -0.6870 hc        1 C5A      0.013700
@<TRIPOS>BOND
     1    1    2 1   
     2    1   13 1   
     3    1   14 1   
     4    2    3 1   
     5    2    6 1   
     6    2    7 1   
     7    3    4 1   
     8    3    5 1   
     9    6    9 1   
    10    6   15 1   
    11    6   16 1   
    12    7    8 1   
    13    7   17 1   
    14    7   18 1   
    15    8    9 1   
    16    8   19 1   
    17    8   20 1   
    18    9   10 1   
    19    9   21 1   
    20   10   11 1   
    21   10   12 1   
@<TRIPOS>SUBSTRUCTURE
     1 C5A         1 TEMP              0 ****  ****    0 ROOT
