@<TRIPOS>MOLECULE
C5A
   21    21     1     0     0
SMALL
bcc


@<TRIPOS>ATOM
      1 N           2.3070    0.2360    0.8660 n3        1 C5A     -0.901800
      2 CA          0.8980    0.2760    0.6760 c3        1 C5A      0.050200
      3 C           0.4840    0.3610    2.1890 c         1 C5A      0.920600
      4 O          -0.1750   -0.5750    2.7140 o         1 C5A     -0.861800
      5 OXT         0.8110    1.3630    2.8760 o         1 C5A     -0.861800
      6 CB1         0.2660   -1.0200   -0.1480 c3        1 C5A     -0.068400
      7 CB2         0.4590    1.2910   -0.0850 c3        1 C5A     -0.064400
      8 CG2        -0.9380    0.8180   -0.8160 c3        1 C5A     -0.070400
      9 CD         -0.7900   -0.4500   -1.2050 c3        1 C5A     -0.167700
     10 CE         -2.1660   -1.2790   -1.2630 c         1 C5A      0.912600
     11 OZ1        -2.8860   -1.3760   -0.2350 o         1 C5A     -0.873300
     12 OZ2        -2.5230   -1.8320   -2.3370 o         1 C5A     -0.873300
     13 HN1         2.5770   -0.6340    0.9610 hn        1 C5A      0.326300
     14 HN2         2.7240    0.6070    0.1390 hn        1 C5A      0.326300
     15 HB11       -0.1830   -1.6240    0.4770 hc        1 C5A      0.039200
     16 HB12        0.9800   -1.4960   -0.6160 hc        1 C5A      0.039200
     17 HB21        0.2890    2.0760    0.4760 hc        1 C5A      0.035700
     18 HB22        1.1300    1.5090   -0.7650 hc        1 C5A      0.035700
     19 HG21       -1.1130    1.3850   -1.5950 hc        1 C5A      0.021700
     20 HG22       -1.6820    0.8860   -0.1820 hc        1 C5A      0.021700
     21 HD         -0.4700   -0.5220   -2.1260 hc        1 C5A      0.013700
@<TRIPOS>BOND
     1    1    2 1   
     2    1   13 1   
     3    1   14 1   
     4    2    3 1   
     5    2    6 1   
     6    2    7 1   
     7    3    4 1   
     8    3    5 1   
     9    6    9 1   
    10    6   15 1   
    11    6   16 1   
    12    7    8 1   
    13    7   17 1   
    14    7   18 1   
    15    8    9 1   
    16    8   19 1   
    17    8   20 1   
    18    9   10 1   
    19    9   21 1   
    20   10   11 1   
    21   10   12 1   
@<TRIPOS>SUBSTRUCTURE
     1 C5A         1 TEMP              0 ****  ****    0 ROOT
