@<TRIPOS>MOLECULE
C5B
   21    21     1     0     0
SMALL
bcc


@<TRIPOS>ATOM
      1 N           2.1520    0.1050    0.7510 n3        1 C5B     -0.910800
      2 CA          0.7290    0.1290    0.7430 c3        1 C5B      0.071200
      3 C           0.5090    0.1350    2.2980 c         1 C5B      0.919600
      4 O           0.6990    1.1920    2.9560 o         1 C5B     -0.869800
      5 OXT         0.1440   -0.9160    2.8860 o         1 C5B     -0.869800
      6 CB1         0.0130   -1.1380   -0.0570 c3        1 C5B     -0.074400
      7 CB2         0.1860    1.1710    0.0930 c3        1 C5B     -0.063400
      8 CG2        -1.2870    0.7080   -0.4780 c3        1 C5B     -0.061400
      9 CD         -1.1740   -0.5380   -0.9430 c3        1 C5B     -0.172700
     10 CE         -0.9110   -0.6210   -2.5270 c         1 C5B      0.909600
     11 OZ1        -1.7540   -1.1780   -3.2770 o         1 C5B     -0.872800
     12 OZ2         0.1390   -0.1280   -3.0170 o         1 C5B     -0.872800
     13 HN1         2.4410   -0.6980    1.0840 hn        1 C5B      0.349300
     14 HN2         2.4660    0.7850    1.2780 hn        1 C5B      0.349300
     15 HB11       -0.3460   -1.7780    0.5900 hc        1 C5B      0.029700
     16 HB12        0.6680   -1.5790   -0.6340 hc        1 C5B      0.029700
     17 HB21        0.7630    1.4320   -0.6540 hc        1 C5B      0.033700
     18 HB22        0.0790    1.9260    0.7090 hc        1 C5B      0.033700
     19 HG21       -1.9460    0.7320    0.2470 hc        1 C5B      0.011700
     20 HG22       -1.5660    1.3080   -1.2000 hc        1 C5B      0.011700
     21 HD         -2.0030   -1.0480   -0.8480 hc        1 C5B      0.019700
@<TRIPOS>BOND
     1    1    2 1   
     2    1   13 1   
     3    1   14 1   
     4    2    3 1   
     5    2    6 1   
     6    2    7 1   
     7    3    4 1   
     8    3    5 1   
     9    6    9 1   
    10    6   15 1   
    11    6   16 1   
    12    7    8 1   
    13    7   17 1   
    14    7   18 1   
    15    8    9 1   
    16    8   19 1   
    17    8   20 1   
    18    9   10 1   
    19    9   21 1   
    20   10   11 1   
    21   10   12 1   
@<TRIPOS>SUBSTRUCTURE
     1 C5B         1 TEMP              0 ****  ****    0 ROOT
