@<TRIPOS>MOLECULE
C5B
   21    21     1     0     0
SMALL
bcc


@<TRIPOS>ATOM
      1 N          -2.2050    3.8670   -2.0040 n3        1 C5B     -0.910800
      2 CA         -2.5620    2.6190   -2.6770 c3        1 C5B      0.071200
      3 C          -3.9950    2.6920   -3.2930 c         1 C5B      0.919600
      4 O          -4.9180    3.2340   -2.6130 o         1 C5B     -0.869800
      5 OXT        -4.2050    2.1880   -4.4360 o         1 C5B     -0.869800
      6 CB1        -2.5040    1.3860   -1.7240 c3        1 C5B     -0.074400
      7 CB2        -1.4950    2.2640   -3.7410 c3        1 C5B     -0.063400
      8 CG2        -0.4160    1.4880   -3.0010 c3        1 C5B     -0.061400
      9 CD         -1.0830    0.8310   -1.7910 c3        1 C5B     -0.172700
     10 CE         -0.2810    1.0870   -0.5030 c         1 C5B      0.909600
     11 OZ1        -0.2150    2.2570   -0.0210 o         1 C5B     -0.872800
     12 OZ2         0.3050    0.0990    0.0390 o         1 C5B     -0.872800
     13 HN1        -1.4620    3.6720   -1.3500 hn        1 C5B      0.349300
     14 HN2        -3.0080    4.1820   -1.4910 hn        1 C5B      0.349300
     15 HB11       -3.2360    0.6200   -2.0800 hc        1 C5B      0.029700
     16 HB12       -2.7760    1.6670   -0.6790 hc        1 C5B      0.029700
     17 HB21       -1.0800    3.1720   -4.2390 hc        1 C5B      0.033700
     18 HB22       -1.9820    1.6310   -4.5240 hc        1 C5B      0.033700
     19 HG21        0.0570    0.7210   -3.6640 hc        1 C5B      0.011700
     20 HG22        0.3900    2.1840   -2.6550 hc        1 C5B      0.011700
     21 HD         -1.1240   -0.2810   -1.9440 hc        1 C5B      0.019700
@<TRIPOS>BOND
     1    1    2 1   
     2    1   13 1   
     3    1   14 1   
     4    2    3 1   
     5    2    6 1   
     6    2    7 1   
     7    3    4 1   
     8    3    5 1   
     9    6    9 1   
    10    6   15 1   
    11    6   16 1   
    12    7    8 1   
    13    7   17 1   
    14    7   18 1   
    15    8    9 1   
    16    8   19 1   
    17    8   20 1   
    18    9   10 1   
    19    9   21 1   
    20   10   11 1   
    21   10   12 1   
@<TRIPOS>SUBSTRUCTURE
     1 C5B         1 TEMP              0 ****  ****    0 ROOT
