@<TRIPOS>MOLECULE
C5C
   27    27     1     0     0
SMALL
bcc


@<TRIPOS>ATOM
      1 N           1.1120   -1.4610   -1.9000 n3        1 C5C     -0.880800
      2 CA          0.3730   -0.3210   -2.4230 c3        1 C5C      0.012500
      3 C           1.1520    0.5120   -3.5090 c         1 C5C      0.890600
      4 O           2.2360    0.0350   -3.9460 o         1 C5C     -0.834300
      5 CB         -0.0930    0.6490   -1.3550 c3        1 C5C      0.032700
      6 SG         -1.4850    0.1690   -0.3690 ss        1 C5C     -0.225100
      7 SD         -0.8540   -1.0550    1.2210 ss        1 C5C     -0.198100
      8 C1         -0.4020    0.0800    2.5140 c3        1 C5C      0.002400
      9 C2         -0.4080   -0.7300    3.8040 c3        1 C5C     -0.070900
     10 C3          0.8970   -0.4430    4.5360 c3        1 C5C     -0.075900
     11 C4          1.6770    0.5700    3.7090 c3        1 C5C     -0.075900
     12 C5          0.9960    0.6620    2.3510 c3        1 C5C     -0.070900
     13 OXT         0.6340    1.5980   -3.8870 o         1 C5C     -0.834300
     14 H           1.8720   -1.1210   -1.3360 hn        1 C5C      0.332800
     15 H2          1.5320   -1.9270   -2.6880 hn        1 C5C      0.332800
     16 HA         -0.5350   -0.7400   -2.9470 h1        1 C5C      0.060700
     17 HB2         0.7510    0.9680   -0.6990 h1        1 C5C      0.088200
     18 HB3        -0.4990    1.5600   -1.8860 h1        1 C5C      0.088200
     19 H1         -1.1540    0.9060    2.5620 h1        1 C5C      0.069700
     20 H21        -1.2890   -0.4490    4.4340 hc        1 C5C      0.054450
     21 H22        -0.4970   -1.8250    3.5780 hc        1 C5C      0.054450
     22 H31         0.6960   -0.0450    5.5620 hc        1 C5C      0.034200
     23 H32         1.4890   -1.3860    4.6550 hc        1 C5C      0.034200
     24 H41         1.6710    1.5680    4.2150 hc        1 C5C      0.034200
     25 H42         2.7450    0.2590    3.5970 hc        1 C5C      0.034200
     26 H51         1.5700    0.0750    1.5870 hc        1 C5C      0.054450
     27 H52         0.9490    1.7210    1.9950 hc        1 C5C      0.054450
@<TRIPOS>BOND
     1    1    2 1   
     2    1   14 1   
     3    1   15 1   
     4    2    3 1   
     5    2    5 1   
     6    2   16 1   
     7    3    4 1   
     8    3   13 1   
     9    5    6 1   
    10    5   17 1   
    11    5   18 1   
    12    6    7 1   
    13    7    8 1   
    14    8    9 1   
    15    8   12 1   
    16    8   19 1   
    17    9   10 1   
    18    9   20 1   
    19    9   21 1   
    20   10   11 1   
    21   10   22 1   
    22   10   23 1   
    23   11   12 1   
    24   11   24 1   
    25   11   25 1   
    26   12   26 1   
    27   12   27 1   
@<TRIPOS>SUBSTRUCTURE
     1 C5C         1 TEMP              0 ****  ****    0 ROOT
