@<TRIPOS>MOLECULE
C5D
   65    65     1     0     0
SMALL
bcc


@<TRIPOS>ATOM
      1 C20         1.6810    0.3020   -0.0370 c3        1 C5D     -0.144000
      2 C22         2.1420    0.6140   -1.4540 c3        1 C5D     -0.077000
      3 C23         3.5700    0.5880   -1.5680 c1        1 C5D     -0.004000
      4 C24         4.7610    0.5800   -1.6910 c1        1 C5D     -0.242000
      5 C25         6.1880    0.5590   -1.8240 c3        1 C5D      0.177000
      6 C27         6.7930    2.0260   -1.6550 c3        1 C5D      0.390000
      7 C26         6.6140   -0.0220   -3.2480 c3        1 C5D      0.390000
      8 O3          6.7480   -0.2660   -0.8270 oh        1 C5D     -0.267000
      9 F11         6.4980    2.8880   -2.6730 f         1 C5D     -0.147667
     10 F19         8.1630    2.0020   -1.5760 f         1 C5D     -0.147667
     11 F21         6.3870    2.6540   -0.5110 f         1 C5D     -0.147667
     12 F28         6.3180    0.7880   -4.3080 f         1 C5D     -0.147667
     13 F29         7.9660   -0.2440   -3.3190 f         1 C5D     -0.147667
     14 F30         6.0440   -1.2300   -3.5370 f         1 C5D     -0.147667
     15 O2         -7.1540    4.2400   -0.4630 oh        1 C5D     -0.330500
     16 C1         -4.5150    2.4370   -0.8550 c3        1 C5D      0.035000
     17 C2         -5.8770    2.4670   -1.5390 c3        1 C5D     -0.223000
     18 C3         -6.9830    2.8290   -0.5500 c3        1 C5D      0.035000
     19 C4         -6.6650    2.3560    0.8680 c3        1 C5D     -0.157000
     20 C5         -5.8100    1.1090    0.8480 c3        1 C5D     -0.155000
     21 C6         -2.1650   -1.5180    5.0470 c1        1 C5D     -0.166000
     22 C8         -2.0970   -1.6880    2.5070 c1        1 C5D     -0.021000
     23 C10        -4.4520    1.3590    0.2250 c3        1 C5D     -0.157000
     24 C12        -0.5710    1.1850    2.2340 c3        1 C5D     -0.209500
     25 C13        -0.2870   -0.1240    1.5250 c3        1 C5D     -0.052000
     26 C14        -1.5790   -0.9700    1.3800 c3        1 C5D     -0.088000
     27 C15        -1.3440   -1.8760    0.1630 c3        1 C5D     -0.131000
     28 C16        -0.2320   -1.2370   -0.6540 c3        1 C5D     -0.161000
     29 C17         0.1750    0.0720    0.0490 c3        1 C5D     -0.044000
     30 C18         0.7460   -0.9000    2.3280 c3        1 C5D     -0.209500
     31 C9         -0.5590    1.2390   -0.5940 c3        1 C5D     -0.211000
     32 H20         1.9580    1.1540    0.6380 hc        1 C5D      0.094500
     33 H20A        2.2240   -0.6110    0.3230 hc        1 C5D      0.094500
     34 H22         1.7010   -0.1390   -2.1680 hc        1 C5D      0.117500
     35 H22A        1.7720    1.6320   -1.7640 hc        1 C5D      0.117500
     36 HO3         7.7130   -0.2560   -0.9490 ho        1 C5D      0.236000
     37 HO2        -7.4320    4.5430   -1.3350 ho        1 C5D      0.198000
     38 H1         -4.3140    3.4490   -0.4000 h1        1 C5D      0.078500
     39 H2         -6.0870    1.4600   -1.9810 hc        1 C5D      0.091000
     40 H2A        -5.8580    3.2110   -2.3770 hc        1 C5D      0.091000
     41 H3         -7.9480    2.3650   -0.9020 h1        1 C5D      0.078500
     42 H4         -6.1350    3.1780    1.4170 hc        1 C5D      0.094750
     43 H4A        -7.6250    2.1560    1.4090 hc        1 C5D      0.094750
     44 H6         -2.2600   -1.5370    6.1020 ha        1 C5D      0.227000
     45 H8         -5.6750    0.7340    1.8970 hc        1 C5D      0.086000
     46 H10        -3.7180    1.6840    1.0080 hc        1 C5D      0.094750
     47 H10A       -4.0600    0.4090   -0.2270 hc        1 C5D      0.094750
     48 H12         0.3290    1.8460    2.1960 hc        1 C5D      0.079167
     49 H12A       -1.4290    1.7260    1.7670 hc        1 C5D      0.079167
     50 H12B       -0.8240    0.9870    3.3050 hc        1 C5D      0.079167
     51 H14        -2.4350   -0.2570    1.1290 hc        1 C5D      0.147000
     52 H15        -2.2860   -1.9690   -0.4320 hc        1 C5D      0.093500
     53 H15A       -1.0530   -2.9030    0.4950 hc        1 C5D      0.093500
     54 H16         0.6460   -1.9290   -0.7170 hc        1 C5D      0.085500
     55 H16A       -0.5730   -1.0330   -1.7000 hc        1 C5D      0.085500
     56 H18         1.0290   -1.8400    1.7950 hc        1 C5D      0.079167
     57 H18A        1.6620   -0.2840    2.4930 hc        1 C5D      0.079167
     58 H18B        0.3300   -1.1720    3.3290 hc        1 C5D      0.079167
     59 H9         -1.6640    1.1570   -0.4340 hc        1 C5D      0.080667
     60 H9A        -0.3820    1.2520   -1.6970 hc        1 C5D      0.080667
     61 H9B        -0.2040    2.2080   -0.1680 hc        1 C5D      0.080667
     62 C7         -2.0700   -1.5160    3.8330 c1        1 C5D     -0.155000
     63 O1         -3.4830    2.1280   -1.7850 oh        1 C5D     -0.330500
     64 H7         -6.3430    0.3040    0.2750 hc        1 C5D      0.086000
     65 HO1        -3.5150    2.8030   -2.4730 ho        1 C5D      0.198000
@<TRIPOS>BOND
     1    1    2 1   
     2    1   29 1   
     3    1   32 1   
     4    1   33 1   
     5    2    3 1   
     6    2   34 1   
     7    2   35 1   
     8    3    4 1   
     9    4    5 1   
    10    5    6 1   
    11    5    7 1   
    12    5    8 1   
    13    6    9 1   
    14    6   10 1   
    15    6   11 1   
    16    7   12 1   
    17    7   13 1   
    18    7   14 1   
    19    8   36 1   
    20   15   18 1   
    21   15   37 1   
    22   16   17 1   
    23   16   23 1   
    24   16   38 1   
    25   16   63 1   
    26   17   18 1   
    27   17   39 1   
    28   17   40 1   
    29   18   19 1   
    30   18   41 1   
    31   19   20 1   
    32   19   42 1   
    33   19   43 1   
    34   20   23 1   
    35   20   45 1   
    36   20   64 1   
    37   21   44 1   
    38   21   62 1   
    39   22   26 1   
    40   22   62 1   
    41   23   46 1   
    42   23   47 1   
    43   24   25 1   
    44   24   48 1   
    45   24   49 1   
    46   24   50 1   
    47   25   26 1   
    48   25   29 1   
    49   25   30 1   
    50   26   27 1   
    51   26   51 1   
    52   27   28 1   
    53   27   52 1   
    54   27   53 1   
    55   28   29 1   
    56   28   54 1   
    57   28   55 1   
    58   29   31 1   
    59   30   56 1   
    60   30   57 1   
    61   30   58 1   
    62   31   59 1   
    63   31   60 1   
    64   31   61 1   
    65   63   65 1   
@<TRIPOS>SUBSTRUCTURE
     1 C5D         1 TEMP              0 ****  ****    0 ROOT
