@<TRIPOS>MOLECULE
C5D
   65    65     1     0     0
SMALL
bcc


@<TRIPOS>ATOM
      1 C20         0.9660   -0.0010    0.3510 c3        1 C5D     -0.146000
      2 C22         1.3070   -0.0690   -1.1310 c3        1 C5D     -0.075000
      3 C23         2.6910    0.2120   -1.3730 c1        1 C5D     -0.007000
      4 C24         3.8400    0.4540   -1.6040 c1        1 C5D     -0.238000
      5 C25         5.2210    0.7330   -1.8660 c3        1 C5D      0.176000
      6 C27         5.6790    0.0750   -3.2460 c3        1 C5D      0.390500
      7 C26         5.4770    2.3080   -1.9260 c3        1 C5D      0.390500
      8 O3          6.0210    0.1970   -0.8350 oh        1 C5D     -0.267000
      9 F11         5.3880   -1.2570   -3.3370 f         1 C5D     -0.147500
     10 F19         7.0380    0.1520   -3.4160 f         1 C5D     -0.147500
     11 F21         5.1360    0.6480   -4.3610 f         1 C5D     -0.147500
     12 F28         4.9260    2.9360   -3.0060 f         1 C5D     -0.147500
     13 F29         6.8170    2.6010   -1.9720 f         1 C5D     -0.147500
     14 F30         5.0080    2.9770   -0.8310 f         1 C5D     -0.147500
     15 O2         -7.1720    1.1760   -0.6710 oh        1 C5D     -0.323000
     16 C1         -7.0100    0.9470    2.3070 c3        1 C5D      0.010500
     17 C2         -6.8320    2.2290    1.5020 c3        1 C5D     -0.230000
     18 C3         -6.2590    1.9250    0.1230 c3        1 C5D      0.010500
     19 C4         -4.9810    1.0870    0.2050 c3        1 C5D     -0.233000
     20 C5         -4.7250    0.3270    1.4080 c1        1 C5D     -0.070000
     21 C6         -2.9500   -2.1170    5.9540 c1        1 C5D     -0.105000
     22 C8         -1.9410   -1.8910    3.8050 c2        1 C5D      0.068000
     23 C10        -5.6620    0.2570    2.5100 c3        1 C5D     -0.233000
     24 C12        -1.3950    1.0380    2.4410 c3        1 C5D     -0.212000
     25 C13        -0.8100   -0.3330    2.1550 c3        1 C5D     -0.022000
     26 C14        -1.8710   -1.4400    2.3940 c3        1 C5D     -0.147000
     27 C15        -1.4980   -2.5940    1.4580 c3        1 C5D     -0.147000
     28 C16        -0.5300   -2.0390    0.4240 c3        1 C5D     -0.156000
     29 C17        -0.4360   -0.5200    0.6520 c3        1 C5D     -0.042000
     30 C18         0.3950   -0.5410    3.0600 c3        1 C5D     -0.212000
     31 C9         -1.4500    0.1850   -0.2380 c3        1 C5D     -0.218000
     32 H20         1.0460    1.0620    0.7010 hc        1 C5D      0.095500
     33 H20A        1.7220   -0.6050    0.9200 hc        1 C5D      0.095500
     34 H22         1.0630   -1.0960   -1.5270 hc        1 C5D      0.116500
     35 H22A        0.6800    0.6720   -1.7030 hc        1 C5D      0.116500
     36 HO3         6.9460    0.4040   -1.0470 ho        1 C5D      0.236000
     37 HO2        -8.0130    1.6490   -0.6620 ho        1 C5D      0.199500
     38 H1         -7.7200    0.2590    1.7630 h1        1 C5D      0.103500
     39 H2         -7.8240    2.7400    1.4010 hc        1 C5D      0.094500
     40 H2A        -6.1440    2.9280    2.0420 hc        1 C5D      0.094500
     41 H3         -6.0440    2.8990   -0.4050 h1        1 C5D      0.103500
     42 H4         -4.0850    1.7520    0.0350 hc        1 C5D      0.151750
     43 H4A        -4.9810    0.3370   -0.6440 hc        1 C5D      0.151750
     44 H6         -3.8170   -1.8760    6.5880 ha        1 C5D      0.037000
     45 H8         -1.0890   -2.4930    4.1740 ha        1 C5D      0.144000
     46 H10        -5.1330    0.6910    3.4090 hc        1 C5D      0.151750
     47 H10A       -5.8290   -0.8320    2.7530 hc        1 C5D      0.151750
     48 H12        -0.7070    1.8350    2.0670 hc        1 C5D      0.079833
     49 H12A       -1.5300    1.1730    3.5420 hc        1 C5D      0.079833
     50 H12B       -2.3940    1.1610    1.9510 hc        1 C5D      0.079833
     51 H14        -2.8760   -1.0230    2.0750 hc        1 C5D      0.152000
     52 H15        -2.4190   -2.9980    0.9680 hc        1 C5D      0.086500
     53 H15A       -1.0220   -3.4350    2.0230 hc        1 C5D      0.086500
     54 H16        -0.8800   -2.2650   -0.6140 hc        1 C5D      0.084500
     55 H16A        0.4790   -2.5090    0.5490 hc        1 C5D      0.084500
     56 H18         0.0880   -0.4950    4.1340 hc        1 C5D      0.079833
     57 H18A        0.8640   -1.5350    2.8650 hc        1 C5D      0.079833
     58 H18B        1.1550    0.2610    2.8940 hc        1 C5D      0.079833
     59 H9         -1.3260   -0.1380   -1.3010 hc        1 C5D      0.080667
     60 H9A        -1.3130    1.2920   -0.1880 hc        1 C5D      0.080667
     61 H9B        -2.4920   -0.0640    0.0850 hc        1 C5D      0.080667
     62 C7         -2.9840   -1.6240    4.6280 c2        1 C5D     -0.294000
     63 O1         -7.6580    1.1980    3.5400 oh        1 C5D     -0.323000
     64 H7         -3.8360   -1.0300    4.2420 ha        1 C5D      0.087000
     65 HO1        -7.1100    1.8180    4.0370 ho        1 C5D      0.199500
@<TRIPOS>BOND
     1    1    2 1   
     2    1   29 1   
     3    1   32 1   
     4    1   33 1   
     5    2    3 1   
     6    2   34 1   
     7    2   35 1   
     8    3    4 1   
     9    4    5 1   
    10    5    6 1   
    11    5    7 1   
    12    5    8 1   
    13    6    9 1   
    14    6   10 1   
    15    6   11 1   
    16    7   12 1   
    17    7   13 1   
    18    7   14 1   
    19    8   36 1   
    20   15   18 1   
    21   15   37 1   
    22   16   17 1   
    23   16   23 1   
    24   16   38 1   
    25   16   63 1   
    26   17   18 1   
    27   17   39 1   
    28   17   40 1   
    29   18   19 1   
    30   18   41 1   
    31   19   20 1   
    32   19   42 1   
    33   19   43 1   
    34   20   23 1   
    35   21   44 1   
    36   21   62 1   
    37   22   26 1   
    38   22   45 1   
    39   22   62 1   
    40   23   46 1   
    41   23   47 1   
    42   24   25 1   
    43   24   48 1   
    44   24   49 1   
    45   24   50 1   
    46   25   26 1   
    47   25   29 1   
    48   25   30 1   
    49   26   27 1   
    50   26   51 1   
    51   27   28 1   
    52   27   52 1   
    53   27   53 1   
    54   28   29 1   
    55   28   54 1   
    56   28   55 1   
    57   29   31 1   
    58   30   56 1   
    59   30   57 1   
    60   30   58 1   
    61   31   59 1   
    62   31   60 1   
    63   31   61 1   
    64   62   64 1   
    65   63   65 1   
@<TRIPOS>SUBSTRUCTURE
     1 C5D         1 TEMP              0 ****  ****    0 ROOT
