@<TRIPOS>MOLECULE
C5D
   65    66     1     0     0
SMALL
bcc


@<TRIPOS>ATOM
      1 C20        -1.4700    1.0570   -0.0310 c3        1 C5D     -0.066400
      2 C22        -2.6380    1.7200    0.6840 c3        1 C5D     -0.026300
      3 C23        -3.8860    1.0890    0.3690 c1        1 C5D      0.020900
      4 C24        -4.9340    0.5690    0.1120 c1        1 C5D     -0.258100
      5 C25        -6.1960   -0.0400   -0.2020 c3        1 C5D      0.206900
      6 C27        -6.8350    0.6060   -1.5080 c3        1 C5D      0.632400
      7 C26        -6.0100   -1.6130   -0.3970 c3        1 C5D      0.632400
      8 O3         -7.1810    0.1470    0.7910 oh        1 C5D     -0.549800
      9 F11        -6.0960    0.3880   -2.6390 f         1 C5D     -0.217467
     10 F19        -8.0840    0.1260   -1.7900 f         1 C5D     -0.217467
     11 F21        -6.9790    1.9620   -1.4190 f         1 C5D     -0.217467
     12 F28        -5.7980   -2.2430    0.8030 f         1 C5D     -0.217467
     13 F29        -7.1040   -2.2310   -0.9350 f         1 C5D     -0.217467
     14 F30        -4.9610   -1.9740   -1.1930 f         1 C5D     -0.217467
     15 O2          9.9670   -2.5000   -0.6460 oh        1 C5D     -0.599300
     16 C1          8.7700    1.0000   -0.2420 c3        1 C5D      0.146600
     17 C2          9.7070   -0.1540   -0.5680 c3        1 C5D     -0.071400
     18 C3          9.0510   -1.4900   -0.2400 c3        1 C5D      0.146600
     19 C4          7.7230   -1.6490   -0.9810 c3        1 C5D     -0.079700
     20 C5          6.8050   -0.5070   -0.7050 c2        1 C5D     -0.090400
     21 C6          5.5290   -0.7330   -0.3420 ce        1 C5D     -0.138000
     22 C8          3.2960   -0.0390    0.3720 c2        1 C5D     -0.146200
     23 C10         7.4050    0.8370   -0.9120 c3        1 C5D     -0.079700
     24 C12         1.3780    1.7570   -1.5890 c3        1 C5D     -0.087100
     25 C13         1.0610    0.9440   -0.3480 c3        1 C5D     -0.034000
     26 C14         2.2480    0.9740    0.6500 c3        1 C5D     -0.032500
     27 C15         1.6330    0.7840    2.0400 c3        1 C5D     -0.073400
     28 C16         0.1430    1.0670    1.9170 c3        1 C5D     -0.078400
     29 C17        -0.1180    1.5450    0.4780 c3        1 C5D     -0.046000
     30 C18         0.7660   -0.4860   -0.7770 c3        1 C5D     -0.087100
     31 C9         -0.0750    3.0670    0.4410 c3        1 C5D     -0.088100
     32 H20        -1.5460   -0.0540    0.1110 hc        1 C5D      0.056700
     33 H20A       -1.5430    1.2660   -1.1310 hc        1 C5D      0.056700
     34 H22        -2.4720    1.6760    1.7980 hc        1 C5D      0.078200
     35 H22A       -2.7000    2.8070    0.3940 hc        1 C5D      0.078200
     36 HO3        -6.7830   -0.0700    1.6470 ho        1 C5D      0.441000
     37 HO2         9.5790   -3.3440   -0.3880 ho        1 C5D      0.400000
     38 H1          9.2300    1.9640   -0.6090 h1        1 C5D      0.044700
     39 H2          9.9720   -0.1180   -1.6550 hc        1 C5D      0.065700
     40 H2A        10.6500   -0.0540    0.0290 hc        1 C5D      0.065700
     41 H3          8.8770   -1.5570    0.8710 h1        1 C5D      0.044700
     42 H4          7.9260   -1.6980   -2.0850 hc        1 C5D      0.054450
     43 H4A         7.2530   -2.6240   -0.6840 hc        1 C5D      0.054450
     44 H6          5.1880   -1.7790   -0.2210 ha        1 C5D      0.122000
     45 H8          3.0140   -1.0850    0.5830 ha        1 C5D      0.125000
     46 H10         6.7260    1.6480   -0.5370 hc        1 C5D      0.054450
     47 H10A        7.5400    0.9960   -2.0180 hc        1 C5D      0.054450
     48 H12         2.1720    1.2440   -2.1850 hc        1 C5D      0.038533
     49 H12A        0.4650    1.8580   -2.2250 hc        1 C5D      0.038533
     50 H12B        1.7460    2.7780   -1.3290 hc        1 C5D      0.038533
     51 H14         2.7050    2.0040    0.6010 hc        1 C5D      0.051700
     52 H15         1.8010   -0.2580    2.4110 hc        1 C5D      0.045700
     53 H15A        2.1150    1.4800    2.7710 hc        1 C5D      0.045700
     54 H16        -0.4430    0.1360    2.1240 hc        1 C5D      0.042700
     55 H16A       -0.1810    1.8390    2.6590 hc        1 C5D      0.042700
     56 H18         1.6580   -0.9280   -1.2840 hc        1 C5D      0.038533
     57 H18A        0.5100   -1.1140    0.1090 hc        1 C5D      0.038533
     58 H18B       -0.0830   -0.5130   -1.5030 hc        1 C5D      0.038533
     59 H9         -0.7790    3.4960    1.1960 hc        1 C5D      0.037033
     60 H9A         0.9520    3.4320    0.6830 hc        1 C5D      0.037033
     61 H9B        -0.3660    3.4450   -0.5680 hc        1 C5D      0.037033
     62 C7          4.5190    0.2700   -0.0870 ce        1 C5D     -0.137000
     63 O1          8.6770    1.0710    1.1760 oh        1 C5D     -0.599300
     64 H7          4.7830    1.3210   -0.2940 ha        1 C5D      0.120000
     65 HO1         7.9400    1.6570    1.3850 ho        1 C5D      0.400000
@<TRIPOS>BOND
     1    1    2 1   
     2    1   29 1   
     3    1   32 1   
     4    1   33 1   
     5    2    3 1   
     6    2   34 1   
     7    2   35 1   
     8    3    4 3   
     9    4    5 1   
    10    5    6 1   
    11    5    7 1   
    12    5    8 1   
    13    6    9 1   
    14    6   10 1   
    15    6   11 1   
    16    7   12 1   
    17    7   13 1   
    18    7   14 1   
    19    8   36 1   
    20   15   18 1   
    21   15   37 1   
    22   16   17 1   
    23   16   23 1   
    24   16   38 1   
    25   16   63 1   
    26   17   18 1   
    27   17   39 1   
    28   17   40 1   
    29   18   19 1   
    30   18   41 1   
    31   19   20 1   
    32   19   42 1   
    33   19   43 1   
    34   20   21 2   
    35   20   23 1   
    36   21   44 1   
    37   21   62 1   
    38   22   26 1   
    39   22   45 1   
    40   22   62 2   
    41   23   46 1   
    42   23   47 1   
    43   24   25 1   
    44   24   48 1   
    45   24   49 1   
    46   24   50 1   
    47   25   26 1   
    48   25   29 1   
    49   25   30 1   
    50   26   27 1   
    51   26   51 1   
    52   27   28 1   
    53   27   52 1   
    54   27   53 1   
    55   28   29 1   
    56   28   54 1   
    57   28   55 1   
    58   29   31 1   
    59   30   56 1   
    60   30   57 1   
    61   30   58 1   
    62   31   59 1   
    63   31   60 1   
    64   31   61 1   
    65   62   64 1   
    66   63   65 1   
@<TRIPOS>SUBSTRUCTURE
     1 C5D         1 TEMP              0 ****  ****    0 ROOT
