@<TRIPOS>MOLECULE
C5D
   65    63     1     0     0
SMALL
bcc


@<TRIPOS>ATOM
      1 C20         1.7730   -1.2470   -1.8230 c3        1 C5D     -0.149000
      2 C22         2.2940   -1.6930   -3.1710 c3        1 C5D     -0.076000
      3 C23         3.8070   -1.7120   -3.1450 c1        1 C5D     -0.005000
      4 C24         4.9980   -1.7270   -3.1240 c1        1 C5D     -0.241000
      5 C25         6.5110   -1.7460   -3.0980 c2        1 C5D      0.177000
      6 C27         7.0320   -2.2040   -4.4410 c3        1 C5D      0.390000
      7 C26         6.9860   -2.6980   -2.0210 c3        1 C5D      0.390000
      8 O3          6.9910   -0.4520   -2.8250 oh        1 C5D     -0.267000
      9 F11         6.7720   -1.2690   -5.3630 f         1 C5D     -0.147500
     10 F19         8.3550   -2.3990   -4.3640 f         1 C5D     -0.147500
     11 F21         6.4310   -3.3500   -4.7860 f         1 C5D     -0.147500
     12 F28         6.4290   -3.9010   -2.2110 f         1 C5D     -0.147500
     13 F29         6.6290   -2.2260   -0.8190 f         1 C5D     -0.147500
     14 F30         8.3200   -2.8090   -2.0790 f         1 C5D     -0.147500
     15 O2         -3.1100    4.8570    3.6390 oh        1 C5D     -0.324500
     16 C1         -5.2790    2.8290    3.7480 c3        1 C5D      0.037500
     17 C2         -4.6520    3.5510    4.9000 c3        1 C5D     -0.227000
     18 C3         -3.2070    3.8710    4.6820 c3        1 C5D      0.037500
     19 C4         -2.3610    2.6640    4.2880 c3        1 C5D     -0.122500
     20 C5         -3.0320    1.9440    3.1020 c2        1 C5D     -0.088000
     21 C6         -2.3720    1.6600    1.9630 c1        1 C5D     -0.132000
     22 C7         -3.0860    0.9490    0.8320 c1        1 C5D     -0.139500
     23 C8         -2.3790    0.2510   -0.0780 c1        1 C5D     -0.139500
     24 C10        -4.5140    1.5710    3.3150 c3        1 C5D     -0.122500
     25 C12        -1.5730   -2.2680   -0.4410 c3        1 C5D     -0.204500
     26 C13        -0.4080   -1.3010   -0.4200 c3        1 C5D     -0.034000
     27 C14        -0.9190    0.1780    0.0270 c2        1 C5D     -0.077000
     28 C15        -0.3440    0.9670   -0.9400 c3        1 C5D     -0.154000
     29 C16        -0.1650    0.0390   -2.2810 c3        1 C5D     -0.157000
     30 C17         0.1960   -1.1470   -1.8750 c3        1 C5D     -0.042000
     31 C18         0.6570   -1.7930    0.5350 c3        1 C5D     -0.204500
     32 O1         -6.6100    2.4490    4.1190 oh        1 C5D     -0.324500
     33 C9         -0.3680   -2.2100   -2.7930 c3        1 C5D     -0.206000
     34 H20         2.0360   -1.8970   -1.1410 hc        1 C5D      0.094500
     35 H20A        2.1480   -0.3720   -1.6010 hc        1 C5D      0.094500
     36 H22         1.9600   -2.5910   -3.3690 hc        1 C5D      0.117000
     37 H22A        1.9880   -1.0710   -3.8610 hc        1 C5D      0.117000
     38 HO3         7.8160   -0.3690   -3.1450 ho        1 C5D      0.236000
     39 HO2        -2.9950    5.6600    4.0010 ho        1 C5D      0.196500
     40 H1         -5.3290    3.4410    2.9880 h1        1 C5D      0.079000
     41 H2         -5.1390    4.3860    5.0490 hc        1 C5D      0.091000
     42 H2A        -4.7330    2.9930    5.7010 hc        1 C5D      0.091000
     43 H3         -2.8440    4.2500    5.5050 h1        1 C5D      0.079000
     44 H4         -1.4130    2.8290    4.1090 hc        1 C5D      0.101250
     45 H4A        -2.2980    2.0750    5.0670 hc        1 C5D      0.101250
     46 H6         -1.4340    1.9120    1.8660 ha        1 C5D      0.127000
     47 H7         -4.0590    0.9980    0.7610 ha        1 C5D      0.123000
     48 H8         -2.8380   -0.2070   -0.8070 ha        1 C5D      0.123000
     49 H10        -5.0340    1.0820    2.6460 hc        1 C5D      0.101250
     50 H10A       -4.4900    0.9070    4.0330 hc        1 C5D      0.101250
     51 H12        -2.0550   -2.2170    0.4110 hc        1 C5D      0.076833
     52 H12A       -2.1780   -2.0330   -1.1730 hc        1 C5D      0.076833
     53 H12B       -1.2380   -3.1800   -0.5740 hc        1 C5D      0.076833
     54 H14        -0.7840    0.4380    0.9590 ha        1 C5D      0.095000
     55 H15         0.5310    1.2850   -0.6360 hc        1 C5D      0.085000
     56 H15A       -0.9270    1.7300   -1.1380 hc        1 C5D      0.085000
     57 H16        -1.0150   -0.0180   -2.7650 hc        1 C5D      0.082500
     58 H16A        0.5260    0.4190   -2.8610 hc        1 C5D      0.082500
     59 H18         1.0170   -2.6460    0.2130 hc        1 C5D      0.076833
     60 H18A        1.3800   -1.1320    0.5870 hc        1 C5D      0.076833
     61 H18B        0.2650   -1.9200    1.4250 hc        1 C5D      0.076833
     62 HO1        -7.1960    2.9430    3.6670 ho        1 C5D      0.196500
     63 H9         -1.3410   -2.1090   -2.8510 hc        1 C5D      0.076667
     64 H9A        -0.1540   -3.0970   -2.4360 hc        1 C5D      0.076667
     65 H9B         0.0250   -2.1130   -3.6850 hc        1 C5D      0.076667
@<TRIPOS>BOND
     1    1    2 1   
     2    1   30 1   
     3    1   34 1   
     4    1   35 1   
     5    2    3 1   
     6    2   36 1   
     7    2   37 1   
     8    3    4 1   
     9    5    6 1   
    10    5    7 1   
    11    5    8 1   
    12    6    9 1   
    13    6   10 1   
    14    6   11 1   
    15    7   12 1   
    16    7   13 1   
    17    7   14 1   
    18    8   38 1   
    19   15   18 1   
    20   15   39 1   
    21   16   17 1   
    22   16   24 1   
    23   16   32 1   
    24   16   40 1   
    25   17   18 1   
    26   17   41 1   
    27   17   42 1   
    28   18   19 1   
    29   18   43 1   
    30   19   20 1   
    31   19   44 1   
    32   19   45 1   
    33   20   21 1   
    34   20   24 1   
    35   21   46 1   
    36   22   23 1   
    37   22   47 1   
    38   23   48 1   
    39   24   49 1   
    40   24   50 1   
    41   25   26 1   
    42   25   51 1   
    43   25   52 1   
    44   25   53 1   
    45   26   27 1   
    46   26   30 1   
    47   26   31 1   
    48   27   28 1   
    49   27   54 1   
    50   28   29 1   
    51   28   55 1   
    52   28   56 1   
    53   29   30 1   
    54   29   57 1   
    55   29   58 1   
    56   30   33 1   
    57   31   59 1   
    58   31   60 1   
    59   31   61 1   
    60   32   62 1   
    61   33   63 1   
    62   33   64 1   
    63   33   65 1   
@<TRIPOS>SUBSTRUCTURE
     1 C5D         1 TEMP              0 ****  ****    0 ROOT
