@<TRIPOS>MOLECULE
C5E
   28    30     1     0     0
SMALL
bcc


@<TRIPOS>ATOM
      1 O          -0.0750   -0.2770   -0.0530 o         1 C5E     -0.653500
      2 C           1.1660   -0.1490   -0.0920 c         1 C5E      0.685700
      3 N           1.8700    0.0010    1.1340 n         1 C5E     -0.320000
      4 C5          1.0780   -0.0210    2.3520 c3        1 C5E      0.095000
      5 C6          1.8340    0.2710    3.6490 c3        1 C5E     -0.075700
      6 C10         1.9430    1.7780    3.9200 c3        1 C5E      0.165800
      7 N1          2.7880    2.4700    2.9690 n3        1 C5E     -0.823200
      8 C9          4.0790    1.8520    2.7470 c3        1 C5E      0.169800
      9 C8          3.9700    0.3450    2.4500 c3        1 C5E     -0.035500
     10 C7          3.2260   -0.3360    3.5890 c3        1 C5E     -0.081400
     11 C4          3.2450    0.1400    1.1410 cc        1 C5E      0.096400
     12 C3          3.9750    0.1160   -0.0320 cd        1 C5E     -0.270000
     13 C2          3.3090   -0.0320   -1.2800 cd        1 C5E     -0.032000
     14 C1          1.9570   -0.1570   -1.3180 cc        1 C5E     -0.266200
     15 H1          1.3850   -0.2680   -2.2490 ha        1 C5E      0.160000
     16 H51C        0.2390    0.7260    2.2270 h1        1 C5E      0.068700
     17 H52C        0.6110   -1.0470    2.4240 h1        1 C5E      0.068700
     18 H6          1.2470   -0.1860    4.4920 hc        1 C5E      0.067700
     19 H101        0.9180    2.2420    3.8510 h1        1 C5E      0.034200
     20 H102        2.3060    1.9050    4.9830 h1        1 C5E      0.034200
     21 H71C        3.7680   -0.1680    4.5540 hc        1 C5E      0.055700
     22 H72C        3.1650   -1.4400    3.4140 hc        1 C5E      0.055700
     23 HA          2.9050    3.4280    3.2410 hn        1 C5E      0.371800
     24 H91C        4.5510    2.3680    1.8640 h1        1 C5E      0.037200
     25 H92C        4.7720    1.9700    3.6320 h1        1 C5E      0.037200
     26 H8          5.0080   -0.0740    2.3570 hc        1 C5E      0.074700
     27 H2          3.9100   -0.0410   -2.2020 ha        1 C5E      0.136000
     28 H3          5.0660    0.2210   -0.0030 ha        1 C5E      0.143000
@<TRIPOS>BOND
     1    1    2 2   
     2    2    3 1   
     3    2   14 1   
     4    3    4 1   
     5    3   11 1   
     6    4    5 1   
     7    4   16 1   
     8    4   17 1   
     9    5    6 1   
    10    5   10 1   
    11    5   18 1   
    12    6    7 1   
    13    6   19 1   
    14    6   20 1   
    15    7    8 1   
    16    7   23 1   
    17    8    9 1   
    18    8   24 1   
    19    8   25 1   
    20    9   10 1   
    21    9   11 1   
    22    9   26 1   
    23   10   21 1   
    24   10   22 1   
    25   11   12 2   
    26   12   13 1   
    27   12   28 1   
    28   13   14 2   
    29   13   27 1   
    30   14   15 1   
@<TRIPOS>SUBSTRUCTURE
     1 C5E         1 TEMP              0 ****  ****    0 ROOT
