@<TRIPOS>MOLECULE
C5E
   28    30     1     0     0
SMALL
bcc


@<TRIPOS>ATOM
      1 O          -0.0710   -0.2990   -0.0490 o         1 C5E     -0.653500
      2 C           1.1700   -0.1640   -0.0890 c         1 C5E      0.685700
      3 N           1.8730   -0.0060    1.1360 n         1 C5E     -0.320000
      4 C5          1.0820   -0.0300    2.3540 c3        1 C5E      0.095000
      5 C6          1.8370    0.2700    3.6510 c3        1 C5E     -0.075700
      6 C10         1.9360    1.7790    3.9170 c3        1 C5E      0.165800
      7 N1          2.7760    2.4740    2.9640 n3        1 C5E     -0.823200
      8 C9          4.0710    1.8630    2.7430 c3        1 C5E      0.169800
      9 C8          3.9710    0.3550    2.4500 c3        1 C5E     -0.035500
     10 C7          3.2330   -0.3280    3.5910 c3        1 C5E     -0.081400
     11 C4          3.2470    0.1410    1.1420 cc        1 C5E      0.096400
     12 C3          3.9770    0.1200   -0.0310 cd        1 C5E     -0.270000
     13 C2          3.3110   -0.0360   -1.2780 cd        1 C5E     -0.032000
     14 C1          1.9600   -0.1690   -1.3160 cc        1 C5E     -0.266200
     15 H1          1.3880   -0.2860   -2.2460 ha        1 C5E      0.160000
     16 H51C        0.6210   -1.0590    2.4290 h1        1 C5E      0.068700
     17 H52C        0.2380    0.7110    2.2280 h1        1 C5E      0.068700
     18 H6          1.2530   -0.1880    4.4950 hc        1 C5E      0.067700
     19 H101        0.9080    2.2360    3.8470 h1        1 C5E      0.034200
     20 H102        2.2990    1.9110    4.9800 h1        1 C5E      0.034200
     21 H71C        3.7740   -0.1530    4.5560 hc        1 C5E      0.055700
     22 H72C        3.1790   -1.4330    3.4200 hc        1 C5E      0.055700
     23 HA          2.8870    3.4330    3.2330 hn        1 C5E      0.371800
     24 H91C        4.5390    2.3800    1.8590 h1        1 C5E      0.037200
     25 H92C        4.7640    1.9880    3.6270 h1        1 C5E      0.037200
     26 H8          5.0120   -0.0580    2.3580 hc        1 C5E      0.074700
     27 H2          3.9120   -0.0430   -2.2010 ha        1 C5E      0.136000
     28 H3          5.0670    0.2310   -0.0030 ha        1 C5E      0.143000
@<TRIPOS>BOND
     1    1    2 2   
     2    2    3 1   
     3    2   14 1   
     4    3    4 1   
     5    3   11 1   
     6    4    5 1   
     7    4   16 1   
     8    4   17 1   
     9    5    6 1   
    10    5   10 1   
    11    5   18 1   
    12    6    7 1   
    13    6   19 1   
    14    6   20 1   
    15    7    8 1   
    16    7   23 1   
    17    8    9 1   
    18    8   24 1   
    19    8   25 1   
    20    9   10 1   
    21    9   11 1   
    22    9   26 1   
    23   10   21 1   
    24   10   22 1   
    25   11   12 2   
    26   12   13 1   
    27   12   28 1   
    28   13   14 2   
    29   13   27 1   
    30   14   15 1   
@<TRIPOS>SUBSTRUCTURE
     1 C5E         1 TEMP              0 ****  ****    0 ROOT
