@<TRIPOS>MOLECULE
C5E
   28    30     1     0     0
SMALL
bcc


@<TRIPOS>ATOM
      1 O          -2.2780   -2.0440    0.0720 o         1 C5E     -0.646500
      2 C          -1.9940   -0.8310   -0.0100 c         1 C5E      0.681700
      3 N          -0.6400   -0.4670   -0.2380 n         1 C5E     -0.339000
      4 C5          0.3030   -1.5520   -0.4590 c3        1 C5E      0.083000
      5 C6          1.7710   -1.1460   -0.5870 c3        1 C5E     -0.113700
      6 C10         2.4370   -0.9700    0.7880 c3        1 C5E      0.154800
      7 N1          1.9680    0.1570    1.5690 n3        1 C5E     -0.800200
      8 C9          1.8650    1.3800    0.8020 c3        1 C5E      0.160800
      9 C8          1.1670    1.2330   -0.5680 c3        1 C5E     -0.073500
     10 C7          1.8810    0.1530   -1.3690 c3        1 C5E     -0.075400
     11 C4         -0.2810    0.8660   -0.3560 cc        1 C5E      0.071400
     12 C3         -1.2190    1.8720   -0.2410 cd        1 C5E     -0.259000
     13 C2         -2.5860    1.5490   -0.0030 cd        1 C5E     -0.035000
     14 C1         -2.9660    0.2520    0.1150 cc        1 C5E     -0.261200
     15 H1         -4.0020   -0.0630    0.2990 ha        1 C5E      0.163000
     16 H51C        0.1840   -2.2830    0.3940 h1        1 C5E      0.069700
     17 H52C       -0.0140   -2.0850   -1.4030 h1        1 C5E      0.069700
     18 H6          2.3040   -1.9720   -1.1310 hc        1 C5E      0.072700
     19 H101        2.2940   -1.9070    1.3930 h1        1 C5E      0.057700
     20 H102        3.5420   -0.8260    0.6220 h1        1 C5E      0.057700
     21 H71C        2.9560    0.4330   -1.5090 hc        1 C5E      0.056200
     22 H72C        1.4160    0.0430   -2.3810 hc        1 C5E      0.056200
     23 HA          1.0820   -0.0610    1.9900 hn        1 C5E      0.362800
     24 H91C        1.3180    2.1470    1.4150 h1        1 C5E      0.060200
     25 H92C        2.9110    1.7560    0.6140 h1        1 C5E      0.060200
     26 H8          1.2170    2.2150   -1.1090 hc        1 C5E      0.078700
     27 H2         -3.3150    2.3700    0.0820 ha        1 C5E      0.139000
     28 H3         -0.9150    2.9220   -0.3290 ha        1 C5E      0.147000
@<TRIPOS>BOND
     1    1    2 2   
     2    2    3 1   
     3    2   14 1   
     4    3    4 1   
     5    3   11 1   
     6    4    5 1   
     7    4   16 1   
     8    4   17 1   
     9    5    6 1   
    10    5   10 1   
    11    5   18 1   
    12    6    7 1   
    13    6   19 1   
    14    6   20 1   
    15    7    8 1   
    16    7   23 1   
    17    8    9 1   
    18    8   24 1   
    19    8   25 1   
    20    9   10 1   
    21    9   11 1   
    22    9   26 1   
    23   10   21 1   
    24   10   22 1   
    25   11   12 2   
    26   12   13 1   
    27   12   28 1   
    28   13   14 2   
    29   13   27 1   
    30   14   15 1   
@<TRIPOS>SUBSTRUCTURE
     1 C5E         1 TEMP              0 ****  ****    0 ROOT
