@<TRIPOS>MOLECULE
C5E
   28    30     1     0     0
SMALL
bcc


@<TRIPOS>ATOM
      1 O          -0.0570   -0.2780   -0.0780 o         1 C5E     -0.653500
      2 C           1.1850   -0.1520   -0.1040 c         1 C5E      0.685700
      3 N           1.8770   -0.0000    1.1270 n         1 C5E     -0.320000
      4 C5          1.0730   -0.0190    2.3380 c3        1 C5E      0.095000
      5 C6          1.8170    0.2750    3.6420 c3        1 C5E     -0.075700
      6 C10         1.9250    1.7830    3.9100 c3        1 C5E      0.165800
      7 N1          2.7800    2.4720    2.9660 n7        1 C5E     -0.823200
      8 C9          4.0720    1.8520    2.7580 c3        1 C5E      0.169800
      9 C8          3.9640    0.3450    2.4630 c3        1 C5E     -0.035500
     10 C7          3.2090   -0.3330    3.5960 c3        1 C5E     -0.081400
     11 C4          3.2520    0.1380    1.1480 cc        1 C5E      0.096400
     12 C3          3.9930    0.1110   -0.0180 cd        1 C5E     -0.270000
     13 C2          3.3400   -0.0390   -1.2720 cd        1 C5E     -0.032000
     14 C1          1.9880   -0.1620   -1.3240 cc        1 C5E     -0.266200
     15 H1          1.4250   -0.2740   -2.2600 ha        1 C5E      0.160000
     16 H51C        0.6050   -1.0440    2.4070 h1        1 C5E      0.068700
     17 H52C        0.2370    0.7280    2.2030 h1        1 C5E      0.068700
     18 H6          1.2220   -0.1800    4.4790 hc        1 C5E      0.067700
     19 H101        0.9010    2.2470    3.8310 h1        1 C5E      0.034200
     20 H102        2.2770    1.9110    4.9770 h1        1 C5E      0.034200
     21 H71C        3.1490   -1.4380    3.4230 hc        1 C5E      0.055700
     22 H72C        3.7420   -0.1630    4.5660 hc        1 C5E      0.055700
     23 HA          2.8950    3.4310    3.2370 hn        1 C5E      0.371800
     24 H91C        4.7570    1.9710    3.6500 h1        1 C5E      0.037200
     25 H92C        4.5530    2.3660    1.8790 h1        1 C5E      0.037200
     26 H8          5.0030   -0.0750    2.3810 hc        1 C5E      0.074700
     27 H2          3.9500   -0.0500   -2.1880 ha        1 C5E      0.136000
     28 H3          5.0840    0.2150    0.0210 ha        1 C5E      0.143000
@<TRIPOS>BOND
     1    1    2 2   
     2    2    3 1   
     3    2   14 1   
     4    3    4 1   
     5    3   11 1   
     6    4    5 1   
     7    4   16 1   
     8    4   17 1   
     9    5    6 1   
    10    5   10 1   
    11    5   18 1   
    12    6    7 1   
    13    6   19 1   
    14    6   20 1   
    15    7    8 1   
    16    7   23 1   
    17    8    9 1   
    18    8   24 1   
    19    8   25 1   
    20    9   10 1   
    21    9   11 1   
    22    9   26 1   
    23   10   21 1   
    24   10   22 1   
    25   11   12 2   
    26   12   13 1   
    27   12   28 1   
    28   13   14 2   
    29   13   27 1   
    30   14   15 1   
@<TRIPOS>SUBSTRUCTURE
     1 C5E         1 TEMP              0 ****  ****    0 ROOT
