@<TRIPOS>MOLECULE
C5E
   28    28     1     0     0
SMALL
bcc


@<TRIPOS>ATOM
      1 O          -2.6530    0.3830   -2.0280 o         1 C5E     -0.378000
      2 C          -1.4390    0.3830   -2.0280 c1        1 C5E      0.324000
      3 N          -0.6950    0.3830   -0.7390 n2        1 C5E     -0.213000
      4 C5         -1.1330   -0.9000   -0.1280 c3        1 C5E     -0.021000
      5 C6         -0.5420   -1.1580    1.1900 c3        1 C5E     -0.115000
      6 C10        -1.1220   -0.1390    2.2040 c3        1 C5E     -0.071000
      7 N1         -0.6050    1.3010    1.8550 n3        1 C5E     -0.302000
      8 C9          0.9440    1.2840    1.7160 c3        1 C5E     -0.067000
      9 C8          1.3630    0.1810    0.6910 c3        1 C5E     -0.079000
     10 C7          0.9800   -1.0220    1.1860 c3        1 C5E     -0.160000
     11 C4          0.6970    0.5370   -0.7370 c2        1 C5E      0.098000
     12 C3          1.4910    0.3220   -2.0300 c1        1 C5E     -0.270000
     13 C2          0.7770    0.2110   -3.3110 c1        1 C5E     -0.032000
     14 C1         -0.6860    0.2590   -3.3260 c2        1 C5E     -0.247000
     15 H1         -1.1710    0.1860   -4.1700 ha        1 C5E      0.160000
     16 H51C       -2.1050   -0.8840   -0.0360 h1        1 C5E      0.108000
     17 H52C       -0.8880   -1.6300   -0.7280 h1        1 C5E      0.108000
     18 H6         -0.7800   -2.0610    1.4740 hc        1 C5E      0.107000
     19 H101       -0.8350   -0.3780    3.1060 h1        1 C5E      0.073500
     20 H102       -2.0970   -0.1540    2.1590 h1        1 C5E      0.073500
     21 H71C        1.3110   -1.1120    2.1000 hc        1 C5E      0.095000
     22 H72C        1.3620   -1.7310    0.6350 hc        1 C5E      0.095000
     23 HA         -0.8450    1.8800    2.5180 hn        1 C5E      0.167000
     24 H91C        1.3460    1.0910    2.5850 h1        1 C5E      0.076500
     25 H92C        1.2520    2.1550    1.4020 h1        1 C5E      0.076500
     26 H8          2.3340    0.1890    0.5970 hc        1 C5E      0.114000
     27 H2          1.2750    0.1300   -4.1470 ha        1 C5E      0.136000
     28 H3          2.4660    0.2920   -2.0080 ha        1 C5E      0.143000
@<TRIPOS>BOND
     1    1    2 1   
     2    2   14 1   
     3    3    4 1   
     4    3   11 1   
     5    4    5 1   
     6    4   16 1   
     7    4   17 1   
     8    5    6 1   
     9    5   10 1   
    10    5   18 1   
    11    6    7 1   
    12    6   19 1   
    13    6   20 1   
    14    7    8 1   
    15    7   23 1   
    16    8    9 1   
    17    8   24 1   
    18    8   25 1   
    19    9   10 1   
    20    9   11 1   
    21    9   26 1   
    22   10   21 1   
    23   10   22 1   
    24   11   12 1   
    25   12   28 1   
    26   13   14 1   
    27   13   27 1   
    28   14   15 1   
@<TRIPOS>SUBSTRUCTURE
     1 C5E         1 TEMP              0 ****  ****    0 ROOT
