@<TRIPOS>MOLECULE
C5I
   38    41     1     0     0
SMALL
bcc


@<TRIPOS>ATOM
      1 C1         -0.0700   -0.3000   -0.1150 cc        1 C5I     -0.162200
      2 C2          1.3190   -0.4310   -0.0920 cd        1 C5I     -0.114100
      3 N3          1.7930   -0.3460    1.2170 na        1 C5I     -0.267100
      4 C5          0.7030   -0.1650    2.0760 ca        1 C5I      0.432800
      5 C6         -0.4970   -0.1280    1.2440 ca        1 C5I     -0.198100
      6 C7         -1.6920    0.0460    1.9430 ca        1 C5I      0.012800
      7 C8         -1.6510    0.1640    3.3880 ca        1 C5I     -0.145900
      8 C9         -0.4100    0.1110    4.0740 ca        1 C5I      0.502200
      9 N10         0.7500   -0.0470    3.4500 nb        1 C5I     -0.681000
     10 N11        -2.9950    0.3230    3.8140 nc        1 C5I     -0.187400
     11 N12        -3.7550    0.3090    2.8070 nd        1 C5I     -0.156400
     12 N13        -3.0560    0.1520    1.6410 na        1 C5I      0.060900
     13 C14        -3.6490    0.1050    0.3140 c3        1 C5I      0.054000
     14 C16        -4.5500    1.3150    0.0230 c3        1 C5I     -0.093400
     15 C17        -5.1370    1.2060   -1.3680 c3        1 C5I     -0.107400
     16 C18        -5.8730   -0.1230   -1.5510 c3        1 C5I      0.075000
     17 N19        -5.0670   -1.2770   -1.2160 n         1 C5I     -0.451800
     18 C20        -4.4680   -1.2060    0.1020 c3        1 C5I      0.060000
     19 C21        -4.4510   -2.0630   -2.1950 c         1 C5I      0.650100
     20 O22        -3.4870   -2.7950   -1.9070 o         1 C5I     -0.569100
     21 C23        -5.0520   -2.0650   -3.5950 c3        1 C5I     -0.086300
     22 C24        -4.4510   -3.0760   -4.4330 c1        1 C5I      0.214700
     23 N25        -3.9750   -3.8850   -5.1170 n1        1 C5I     -0.338800
     24 H1         -0.7050   -0.3390   -0.9950 ha        1 C5I      0.161000
     25 H2          2.0130   -0.5820   -0.9220 h4        1 C5I      0.174000
     26 HN3         2.7350   -0.4240    1.5040 hn        1 C5I      0.313700
     27 H9         -0.3710    0.2020    5.1760 h4        1 C5I      0.043100
     28 H14        -2.7810    0.1110   -0.4120 h1        1 C5I      0.077700
     29 H16        -5.3810    1.3620    0.7760 hc        1 C5I      0.066200
     30 H16A       -3.9580    2.2630    0.1090 hc        1 C5I      0.066200
     31 H17        -5.8660    2.0420   -1.5320 hc        1 C5I      0.055200
     32 H17A       -4.3270    1.3070   -2.1360 hc        1 C5I      0.055200
     33 H18        -6.7690   -0.1360   -0.8630 h1        1 C5I      0.058200
     34 H18A       -6.2550   -0.1950   -2.6060 h1        1 C5I      0.058200
     35 H20        -3.7990   -2.0980    0.2580 h1        1 C5I      0.087700
     36 H20A       -5.3050   -1.2430    0.8550 h1        1 C5I      0.087700
     37 H23        -6.1610   -2.2560   -3.5330 hc        1 C5I      0.095700
     38 H23A       -4.8890   -1.0560   -4.0680 hc        1 C5I      0.095700
@<TRIPOS>BOND
     1    1    2 2   
     2    1    5 1   
     3    1   24 1   
     4    2    3 1   
     5    2   25 1   
     6    3    4 1   
     7    3   26 1   
     8    4    5 ar  
     9    4    9 ar  
    10    5    6 ar  
    11    6    7 ar  
    12    6   12 1   
    13    7    8 ar  
    14    7   10 1   
    15    8    9 ar  
    16    8   27 1   
    17   10   11 2   
    18   11   12 1   
    19   12   13 1   
    20   13   14 1   
    21   13   18 1   
    22   13   28 1   
    23   14   15 1   
    24   14   29 1   
    25   14   30 1   
    26   15   16 1   
    27   15   31 1   
    28   15   32 1   
    29   16   17 1   
    30   16   33 1   
    31   16   34 1   
    32   17   18 1   
    33   17   19 1   
    34   18   35 1   
    35   18   36 1   
    36   19   20 2   
    37   19   21 1   
    38   21   22 1   
    39   21   37 1   
    40   21   38 1   
    41   22   23 3   
@<TRIPOS>SUBSTRUCTURE
     1 C5I         1 TEMP              0 ****  ****    0 ROOT
