@<TRIPOS>MOLECULE
C5I
   38    41     1     0     0
SMALL
bcc


@<TRIPOS>ATOM
      1 C1         -0.0960   -0.2440   -0.1020 cc        1 C5I     -0.162200
      2 C2          1.2950   -0.3510   -0.0970 cd        1 C5I     -0.114100
      3 N3          1.7850   -0.2590    1.2060 na        1 C5I     -0.267100
      4 C5          0.7030   -0.0980    2.0790 ca        1 C5I      0.432800
      5 C6         -0.5080   -0.0810    1.2620 ca        1 C5I     -0.198100
      6 C7         -1.6970    0.0720    1.9770 ca        1 C5I      0.012800
      7 C8         -1.6400    0.1890    3.4200 ca        1 C5I     -0.145900
      8 C9         -0.3890    0.1570    4.0920 ca        1 C5I      0.502200
      9 N10         0.7650    0.0190    3.4520 nb        1 C5I     -0.681000
     10 N11        -2.9810    0.3240    3.8640 nc        1 C5I     -0.187400
     11 N12        -3.7530    0.2980    2.8660 nd        1 C5I     -0.156400
     12 N13        -3.0660    0.1550    1.6920 na        1 C5I      0.060900
     13 C14        -3.6750    0.0990    0.3720 c3        1 C5I      0.054000
     14 C16        -4.5950    1.2980    0.0920 c3        1 C5I     -0.093400
     15 C17        -5.1980    1.1810   -1.2920 c3        1 C5I     -0.107400
     16 C18        -5.9200   -0.1580   -1.4640 c3        1 C5I      0.075000
     17 N19        -5.0960   -1.3010   -1.1380 n         1 C5I     -0.451800
     18 C20        -4.4810   -1.2220    0.1710 c3        1 C5I      0.060000
     19 C21        -4.4840   -2.0810   -2.1240 c         1 C5I      0.650100
     20 O22        -3.5080   -2.8020   -1.8490 o         1 C5I     -0.569100
     21 C23        -5.1030   -2.0920   -3.5160 c3        1 C5I     -0.086300
     22 C24        -4.5010   -3.0970   -4.3610 c1        1 C5I      0.214700
     23 N25        -4.0240   -3.9010   -5.0510 n1        1 C5I     -0.338800
     24 H1         -0.7410   -0.2930   -0.9750 ha        1 C5I      0.161000
     25 H2          1.9820   -0.4890   -0.9360 h4        1 C5I      0.174000
     26 HN3         2.7310   -0.3210    1.4810 hn        1 C5I      0.313700
     27 H9         -0.3380    0.2470    5.1920 h4        1 C5I      0.043100
     28 H14        -2.8160    0.1150   -0.3650 h1        1 C5I      0.077700
     29 H16        -5.4160    1.3360    0.8550 hc        1 C5I      0.066200
     30 H16A       -4.0130    2.2520    0.1700 hc        1 C5I      0.066200
     31 H17        -5.9390    2.0070   -1.4470 hc        1 C5I      0.055200
     32 H17A       -4.3990    1.2910   -2.0700 hc        1 C5I      0.055200
     33 H18        -6.3140   -0.2340   -2.5140 h1        1 C5I      0.058200
     34 H18A       -6.8070   -0.1800   -0.7650 h1        1 C5I      0.058200
     35 H20        -5.3080   -1.2680    0.9360 h1        1 C5I      0.087700
     36 H20A       -3.7990   -2.1060    0.3200 h1        1 C5I      0.087700
     37 H23        -6.2080   -2.2960   -3.4410 hc        1 C5I      0.095700
     38 H23A       -4.9560   -1.0820   -3.9930 hc        1 C5I      0.095700
@<TRIPOS>BOND
     1    1    2 2   
     2    1    5 1   
     3    1   24 1   
     4    2    3 1   
     5    2   25 1   
     6    3    4 1   
     7    3   26 1   
     8    4    5 ar  
     9    4    9 ar  
    10    5    6 ar  
    11    6    7 ar  
    12    6   12 1   
    13    7    8 ar  
    14    7   10 1   
    15    8    9 ar  
    16    8   27 1   
    17   10   11 2   
    18   11   12 1   
    19   12   13 1   
    20   13   14 1   
    21   13   18 1   
    22   13   28 1   
    23   14   15 1   
    24   14   29 1   
    25   14   30 1   
    26   15   16 1   
    27   15   31 1   
    28   15   32 1   
    29   16   17 1   
    30   16   33 1   
    31   16   34 1   
    32   17   18 1   
    33   17   19 1   
    34   18   35 1   
    35   18   36 1   
    36   19   20 2   
    37   19   21 1   
    38   21   22 1   
    39   21   37 1   
    40   21   38 1   
    41   22   23 3   
@<TRIPOS>SUBSTRUCTURE
     1 C5I         1 TEMP              0 ****  ****    0 ROOT
