@<TRIPOS>MOLECULE
C5I
   38    32     1     0     0
SMALL
bcc


@<TRIPOS>ATOM
      1 C1          2.7720   -1.7350   -0.5210 c1        1 C5I     -0.187000
      2 C2          4.0610   -2.1750   -0.7710 c1        1 C5I     -0.085000
      3 N3          4.8490   -1.8050    0.2880 n2        1 C5I     -0.179000
      4 C5          4.0520   -1.1320    1.2030 c1        1 C5I      0.042000
      5 C6          2.7710   -1.0900    0.7010 c1        1 C5I     -0.121000
      6 C7          1.7450   -0.4710    1.4430 c1        1 C5I      0.055000
      7 C8          2.0210    0.0820    2.6490 c1        1 C5I     -0.221000
      8 C9          3.3370    0.0370    3.1600 c1        1 C5I      0.039000
      9 N10         4.3330   -0.5640    2.4390 n1        1 C5I     -0.154000
     10 N11         0.8690    0.6200    3.1400 n1        1 C5I     -0.116000
     11 N12        -0.1190    0.3970    2.2330 n2        1 C5I      0.029000
     12 N13         0.4180   -0.2760    1.1850 n1        1 C5I     -0.116000
     13 C14        -0.9130    0.1100    0.7450 c2        1 C5I      0.028000
     14 C16        -1.8850   -0.9410    1.1640 c3        1 C5I     -0.179000
     15 C17        -3.2430   -0.7070    0.5930 c3        1 C5I     -0.184000
     16 C18        -3.2060   -0.5000   -0.9200 c3        1 C5I     -0.043000
     17 N19        -2.2360    0.5200   -1.3170 n         1 C5I     -0.316000
     18 C20        -0.8960    0.3110   -0.7700 c3        1 C5I     -0.052000
     19 C21        -2.5720    1.6320   -2.1700 c2        1 C5I      0.299000
     20 O22        -3.7080    1.7530   -2.5950 o         1 C5I     -0.330000
     21 C23        -1.4850    2.6090   -2.6120 c3        1 C5I     -0.089000
     22 C24        -2.1230    3.7860   -3.3300 c1        1 C5I     -0.137000
     23 N25        -2.6030    4.6710   -3.8690 n1        1 C5I     -0.013000
     24 H1          1.9960   -1.8590   -1.1070 DU        1 C5I      0.200000
     25 H2          4.3560   -2.6730   -1.5630 DU        1 C5I      0.200000
     26 HN3         5.7470   -1.9730    0.3770 DU        1 C5I      0.200000
     27 H9          3.5400    0.4480    4.0280 ha        1 C5I      0.182000
     28 H14        -1.1580    0.9600    1.1770 ha        1 C5I      0.130000
     29 H16        -1.9470   -0.9450    2.1460 hc        1 C5I      0.102500
     30 H16A       -1.5570   -1.8170    0.8610 hc        1 C5I      0.102500
     31 H17        -3.8120   -1.4850    0.7950 hc        1 C5I      0.100500
     32 H17A       -3.6330    0.0920    1.0150 hc        1 C5I      0.100500
     33 H18        -2.9690   -1.3510   -1.3520 h1        1 C5I      0.111500
     34 H18A       -4.1000   -0.2250   -1.2250 h1        1 C5I      0.111500
     35 H20        -0.3410    1.0930   -0.9820 h1        1 C5I      0.107500
     36 H20A       -0.5010   -0.4850   -1.1930 h1        1 C5I      0.107500
     37 H23        -0.8620    2.1530   -3.2200 hc        1 C5I      0.137000
     38 H23A       -0.9960    2.9320   -1.8250 hc        1 C5I      0.137000
@<TRIPOS>BOND
     1    1    2 1   
     2    1    5 1   
     3    2    3 1   
     4    3    4 1   
     5    4    9 1   
     6    5    6 1   
     7    7    8 1   
     8    8   27 1   
     9   10   11 1   
    10   11   12 1   
    11   13   14 1   
    12   13   18 1   
    13   13   28 1   
    14   14   15 1   
    15   14   29 1   
    16   14   30 1   
    17   15   16 1   
    18   15   31 1   
    19   15   32 1   
    20   16   17 1   
    21   16   33 1   
    22   16   34 1   
    23   17   18 1   
    24   17   19 1   
    25   18   35 1   
    26   18   36 1   
    27   19   20 1   
    28   19   21 1   
    29   21   22 1   
    30   21   37 1   
    31   21   38 1   
    32   22   23 1   
@<TRIPOS>SUBSTRUCTURE
     1 C5I         1 TEMP              0 ****  ****    0 ROOT
