@<TRIPOS>MOLECULE
C5I
   38    41     1     0     0
SMALL
bcc


@<TRIPOS>ATOM
      1 C1          1.5180   -2.0830   -0.7340 cc        1 C5I     -0.162200
      2 C2          2.3510   -3.2030   -0.7530 cd        1 C5I     -0.114100
      3 N3          3.6220   -2.8700   -0.2810 na        1 C5I     -0.267100
      4 C5          3.6290   -1.5140    0.0640 ca        1 C5I      0.432800
      5 C6          2.2950   -0.9910   -0.2240 ca        1 C5I     -0.198100
      6 C7          2.1200    0.3630    0.0650 ca        1 C5I      0.012800
      7 C8          3.2310    1.1150    0.6150 ca        1 C5I     -0.145900
      8 C9          4.4800    0.4800    0.8460 ca        1 C5I      0.502200
      9 N10         4.6930   -0.8030    0.5810 nb        1 C5I     -0.681000
     10 N11         2.7610    2.4390    0.8090 nc        1 C5I     -0.187400
     11 N12         1.5550    2.5100    0.4410 nd        1 C5I     -0.156400
     12 N13         1.0910    1.3100   -0.0250 na        1 C5I      0.060900
     13 C14        -0.2530    1.0750   -0.5260 c3        1 C5I      0.054000
     14 C16        -0.6540    2.0590   -1.6350 c3        1 C5I     -0.093400
     15 C17        -2.0610    1.7650   -2.1120 c3        1 C5I     -0.107400
     16 C18        -3.0490    1.7720   -0.9430 c3        1 C5I      0.075000
     17 N19        -2.6570    0.9040    0.1460 n         1 C5I     -0.451800
     18 C20        -1.3090    1.1380    0.6210 c3        1 C5I      0.060000
     19 C21        -3.2280   -0.3590    0.3320 c         1 C5I      0.650100
     20 O22        -2.6460   -1.2240    1.0100 o         1 C5I     -0.569100
     21 C23        -4.6170   -0.6090   -0.2420 c3        1 C5I     -0.086300
     22 C24        -5.1610   -1.8690    0.2080 c1        1 C5I      0.214700
     23 N25        -5.6110   -2.8800    0.5630 n1        1 C5I     -0.338800
     24 H1          0.4750   -2.0540   -1.0350 ha        1 C5I      0.161000
     25 H2          2.1300   -4.2240   -1.0690 h4        1 C5I      0.174000
     26 HN3         4.3870   -3.4850   -0.1790 hn        1 C5I      0.313700
     27 H9          5.3320    1.0480    1.2630 h4        1 C5I      0.043100
     28 H14        -0.2440    0.0260   -0.9520 h1        1 C5I      0.077700
     29 H16        -0.6040    3.1110   -1.2480 hc        1 C5I      0.066200
     30 H16A        0.0600    1.9790   -2.4950 hc        1 C5I      0.066200
     31 H17        -2.3760    2.5470   -2.8500 hc        1 C5I      0.055200
     32 H17A       -2.0890    0.7730   -2.6350 hc        1 C5I      0.055200
     33 H18        -3.1050    2.8210   -0.5260 h1        1 C5I      0.058200
     34 H18A       -4.0730    1.5030   -1.3210 h1        1 C5I      0.058200
     35 H20        -1.0520    0.3790    1.4130 h1        1 C5I      0.087700
     36 H20A       -1.2880    2.1660    1.0840 h1        1 C5I      0.087700
     37 H23        -5.3130    0.2200    0.0700 hc        1 C5I      0.095700
     38 H23A       -4.5550   -0.6220   -1.3670 hc        1 C5I      0.095700
@<TRIPOS>BOND
     1    1    2 2   
     2    1    5 1   
     3    1   24 1   
     4    2    3 1   
     5    2   25 1   
     6    3    4 1   
     7    3   26 1   
     8    4    5 ar  
     9    4    9 ar  
    10    5    6 ar  
    11    6    7 ar  
    12    6   12 1   
    13    7    8 ar  
    14    7   10 1   
    15    8    9 ar  
    16    8   27 1   
    17   10   11 2   
    18   11   12 1   
    19   12   13 1   
    20   13   14 1   
    21   13   18 1   
    22   13   28 1   
    23   14   15 1   
    24   14   29 1   
    25   14   30 1   
    26   15   16 1   
    27   15   31 1   
    28   15   32 1   
    29   16   17 1   
    30   16   33 1   
    31   16   34 1   
    32   17   18 1   
    33   17   19 1   
    34   18   35 1   
    35   18   36 1   
    36   19   20 2   
    37   19   21 1   
    38   21   22 1   
    39   21   37 1   
    40   21   38 1   
    41   22   23 3   
@<TRIPOS>SUBSTRUCTURE
     1 C5I         1 TEMP              0 ****  ****    0 ROOT
