@<TRIPOS>MOLECULE
C5I
   38    41     1     0     0
SMALL
bcc


@<TRIPOS>ATOM
      1 C1         -0.0160   -0.3110   -0.1100 cc        1 C5I     -0.162200
      2 C2          1.3720   -0.4520   -0.0840 cd        1 C5I     -0.114100
      3 N3          1.8450   -0.3680    1.2260 na        1 C5I     -0.267100
      4 C5          0.7540   -0.1780    2.0820 ca        1 C5I      0.432800
      5 C6         -0.4440   -0.1330    1.2480 ca        1 C5I     -0.198100
      6 C7         -1.6390    0.0510    1.9440 ca        1 C5I      0.012800
      7 C8         -1.6010    0.1700    3.3890 ca        1 C5I     -0.145900
      8 C9         -0.3610    0.1090    4.0780 ca        1 C5I      0.502200
      9 N10         0.7990   -0.0590    3.4560 nb        1 C5I     -0.681000
     10 N11        -2.9440    0.3390    3.8120 nc        1 C5I     -0.187400
     11 N12        -3.7020    0.3290    2.8030 nd        1 C5I     -0.156400
     12 N13        -3.0020    0.1660    1.6390 na        1 C5I      0.060900
     13 C14        -3.5920    0.1210    0.3110 c3        1 C5I      0.054000
     14 C16        -4.4850    1.3370    0.0170 c3        1 C5I     -0.093400
     15 C17        -5.0700    1.2310   -1.3760 c3        1 C5I     -0.107400
     16 C18        -5.8140   -0.0940   -1.5590 c3        1 C5I      0.075000
     17 N19        -5.0160   -1.2530   -1.2200 n         1 C5I     -0.451800
     18 C20        -4.4190   -1.1840    0.0980 c3        1 C5I      0.060000
     19 C21        -4.4030   -2.0430   -2.1980 c         1 C5I      0.650100
     20 O22        -3.4450   -2.7810   -1.9080 o         1 C5I     -0.569100
     21 C23        -5.0010   -2.0420   -3.5990 c3        1 C5I     -0.086300
     22 C24        -4.4040   -3.0570   -4.4350 c1        1 C5I      0.214700
     23 N25        -3.9310   -3.8700   -5.1180 n1        1 C5I     -0.338800
     24 H1         -0.6490   -0.3460   -0.9920 ha        1 C5I      0.161000
     25 H2          2.0670   -0.6090   -0.9120 h4        1 C5I      0.174000
     26 HN3         2.7850   -0.4530    1.5150 hn        1 C5I      0.313700
     27 H9         -0.3240    0.2010    5.1790 h4        1 C5I      0.043100
     28 H14        -2.7230    0.1210   -0.4140 h1        1 C5I      0.077700
     29 H16        -5.3170    1.3900    0.7680 hc        1 C5I      0.066200
     30 H16A       -3.8870    2.2810    0.1030 hc        1 C5I      0.066200
     31 H17        -5.7930    2.0710   -1.5420 hc        1 C5I      0.055200
     32 H17A       -4.2580    1.3250   -2.1420 hc        1 C5I      0.055200
     33 H18        -6.7120   -0.1010   -0.8720 h1        1 C5I      0.058200
     34 H18A       -6.1940   -0.1640   -2.6140 h1        1 C5I      0.058200
     35 H20        -3.7560   -2.0810    0.2570 h1        1 C5I      0.087700
     36 H20A       -5.2580   -1.2150    0.8500 h1        1 C5I      0.087700
     37 H23        -6.1110   -2.2270   -3.5400 hc        1 C5I      0.095700
     38 H23A       -4.8300   -1.0350   -4.0730 hc        1 C5I      0.095700
@<TRIPOS>BOND
     1    1    2 2   
     2    1    5 1   
     3    1   24 1   
     4    2    3 1   
     5    2   25 1   
     6    3    4 1   
     7    3   26 1   
     8    4    5 ar  
     9    4    9 ar  
    10    5    6 ar  
    11    6    7 ar  
    12    6   12 1   
    13    7    8 ar  
    14    7   10 1   
    15    8    9 ar  
    16    8   27 1   
    17   10   11 2   
    18   11   12 1   
    19   12   13 1   
    20   13   14 1   
    21   13   18 1   
    22   13   28 1   
    23   14   15 1   
    24   14   29 1   
    25   14   30 1   
    26   15   16 1   
    27   15   31 1   
    28   15   32 1   
    29   16   17 1   
    30   16   33 1   
    31   16   34 1   
    32   17   18 1   
    33   17   19 1   
    34   18   35 1   
    35   18   36 1   
    36   19   20 2   
    37   19   21 1   
    38   21   22 1   
    39   21   37 1   
    40   21   38 1   
    41   22   23 3   
@<TRIPOS>SUBSTRUCTURE
     1 C5I         1 TEMP              0 ****  ****    0 ROOT
