@<TRIPOS>MOLECULE
C5L
   46    47     1     0     0
SMALL
bcc


@<TRIPOS>ATOM
      1 P           3.0920   -0.7770   -0.6040 p5        1 C5L      1.342900
      2 N1         -2.0850   -0.4820   -0.3070 n         1 C5L     -0.370000
      3 C2         -3.4700   -0.8160   -0.1250 c         1 C5L      0.823900
      4 O2         -4.3120    0.1190   -0.0800 o         1 C5L     -0.711500
      5 N3         -3.8660   -2.1470    0.0350 nc        1 C5L     -0.766100
      6 C4         -2.9190   -3.1100    0.0060 cd        1 C5L      0.713500
      7 N4         -3.3210   -4.4520    0.0670 nh        1 C5L     -0.898800
      8 C5         -1.5100   -2.8110   -0.1260 cd        1 C5L     -0.382800
      9 C6         -1.1480   -1.4800   -0.2850 cc        1 C5L      0.078600
     10 C7         -0.4550   -3.8420   -0.1050 c3        1 C5L     -0.056900
     11 C1'        -1.7020    0.9150   -0.5350 c3        1 C5L      0.261500
     12 C2'        -0.8090    1.4970    0.6100 c3        1 C5L      0.098100
     13 O2'        -1.2000    2.8420    0.8600 os        1 C5L     -0.387600
     14 C3'         0.6110    1.4410    0.0170 c3        1 C5L      0.122100
     15 O3'         1.3980    2.5380    0.4010 oh        1 C5L     -0.623800
     16 C4'         0.4120    1.3750   -1.5100 c3        1 C5L      0.064100
     17 O4'        -0.9830    1.0680   -1.7560 os        1 C5L     -0.432600
     18 C5'         1.2680    0.3000   -2.2270 c3        1 C5L      0.222400
     19 O5'         2.5800    0.3130   -1.8490 os        1 C5L     -0.568200
     20 CA'        -2.3890    2.9360    1.6410 c3        1 C5L      0.086400
     21 CB'        -3.1320    4.1810    1.1600 c3        1 C5L      0.120400
     22 OC'        -4.5180    4.1100    1.4760 os        1 C5L     -0.445600
     23 CD'        -5.2670    3.3170    0.5670 c3        1 C5L      0.101700
     24 OP1         3.2260    0.2510    0.4930 o         1 C5L     -0.924500
     25 OP2         1.8450   -1.6230   -0.4120 o         1 C5L     -0.924500
     26 OP3         4.3010   -1.4620   -1.1470 o         1 C5L     -0.924500
     27 H6         -0.0420   -1.2160   -0.3810 h4        1 C5L      0.302000
     28 H5'         0.8000   -0.7110   -2.0620 h1        1 C5L     -0.000800
     29 H1'        -2.6530    1.5130   -0.6650 h2        1 C5L      0.094700
     30 H2'        -0.8700    0.9000    1.5550 h1        1 C5L      0.056700
     31 H3'         1.1160    0.4740    0.3590 h1        1 C5L      0.149700
     32 H4'         0.5840    2.3850   -1.9680 h1        1 C5L      0.048700
     33 H41        -4.2290   -4.6270    0.4310 hn        1 C5L      0.395300
     34 H42        -2.6130   -5.0650    0.4060 hn        1 C5L      0.395300
     35 H5''        1.2050    0.5390   -3.3310 h1        1 C5L     -0.000800
     36 H71        -0.5930   -4.5710   -0.9410 hc        1 C5L      0.055033
     37 H72         0.5610   -3.3500   -0.2170 hc        1 C5L      0.055033
     38 H73        -0.4710   -4.4090    0.8600 hc        1 C5L      0.055033
     39 HCA1       -3.0370    2.0260    1.5290 h1        1 C5L      0.041200
     40 HCA2       -2.0910    3.0410    2.7170 h1        1 C5L      0.041200
     41 HCB1       -2.7730    5.0910    1.7080 h1        1 C5L      0.050700
     42 HCB2       -2.9780    4.3200    0.0580 h1        1 C5L      0.050700
     43 HCD1       -6.2820    3.2450    1.0300 h1        1 C5L      0.039700
     44 HCD2       -5.3280    3.8330   -0.4240 h1        1 C5L      0.039700
     45 HCD3       -4.8220    2.2970    0.4390 h1        1 C5L      0.039700
     46 HO3'        2.2990    2.1640    0.5180 ho        1 C5L      0.475000
@<TRIPOS>BOND
     1    1   19 1   
     2    1   24 1   
     3    1   25 1   
     4    1   26 1   
     5    2    3 1   
     6    2    9 1   
     7    2   11 1   
     8    3    4 2   
     9    3    5 1   
    10    5    6 2   
    11    6    7 1   
    12    6    8 1   
    13    7   33 1   
    14    7   34 1   
    15    8    9 2   
    16    8   10 1   
    17    9   27 1   
    18   10   36 1   
    19   10   37 1   
    20   10   38 1   
    21   11   12 1   
    22   11   17 1   
    23   11   29 1   
    24   12   13 1   
    25   12   14 1   
    26   12   30 1   
    27   13   20 1   
    28   14   15 1   
    29   14   16 1   
    30   14   31 1   
    31   15   46 1   
    32   16   17 1   
    33   16   18 1   
    34   16   32 1   
    35   18   19 1   
    36   18   28 1   
    37   18   35 1   
    38   20   21 1   
    39   20   39 1   
    40   20   40 1   
    41   21   22 1   
    42   21   41 1   
    43   21   42 1   
    44   22   23 1   
    45   23   43 1   
    46   23   44 1   
    47   23   45 1   
@<TRIPOS>SUBSTRUCTURE
     1 C5L         1 TEMP              0 ****  ****    0 ROOT
