@<TRIPOS>MOLECULE
C5L
   46    45     1     0     0
SMALL
bcc


@<TRIPOS>ATOM
      1 P          -5.2690   -3.1610    1.9540 p3        1 C5L      2.537000
      2 N1         -0.1660   -0.1510   -1.4790 n         1 C5L     -0.265000
      3 C2         -1.2990    0.7240   -1.8260 c2        1 C5L      0.343000
      4 O2         -2.0970    1.0490   -0.9730 o         1 C5L     -0.410000
      5 N3         -1.4760    1.1780   -3.1960 n2        1 C5L     -0.337000
      6 C4         -0.4580    0.9360   -4.1640 c1        1 C5L      0.184000
      7 N4         -0.5310    1.5620   -5.4520 n2        1 C5L     -0.334000
      8 C5          0.7100    0.1190   -3.8070 c2        1 C5L     -0.291000
      9 C6          0.8540   -0.3930   -2.4260 c2        1 C5L      0.070000
     10 C7          1.7540   -0.2030   -4.8450 c3        1 C5L     -0.179000
     11 C1'        -0.1570   -0.8290   -0.2520 c3        1 C5L      0.144000
     12 C2'        -0.0420    0.0330    0.7420 c3        1 C5L     -0.007000
     13 O2'         1.3700    0.1730    1.1330 os        1 C5L     -0.288000
     14 C3'        -0.8610   -0.5800    1.9000 c3        1 C5L     -0.027000
     15 O3'        -0.0460   -1.0460    2.8390 oh        1 C5L     -0.385000
     16 C4'        -1.6890   -1.7610    1.2580 c3        1 C5L     -0.045000
     17 O4'        -1.5710   -1.6020   -0.0240 os        1 C5L     -0.290000
     18 C5'        -3.1610   -1.6620    1.6720 c3        1 C5L      0.070000
     19 O5'        -3.8450   -2.8480    1.2830 o         1 C5L     -0.732000
     20 CA'         1.6910    1.4370    1.6900 c3        1 C5L     -0.033000
     21 CB'         3.1610    1.4510    2.1050 c3        1 C5L     -0.038000
     22 OC'         3.4950    2.7520    2.6480 os        1 C5L     -0.309000
     23 CD'         4.8800    2.8750    3.0830 c3        1 C5L     -0.071000
     24 OP1        -6.1360   -1.9170    1.9080 o         1 C5L     -1.245333
     25 OP2        -5.9500   -4.2770    1.1940 o         1 C5L     -1.245333
     26 OP3        -5.0670   -3.5770    3.3870 o         1 C5L     -1.245333
     27 H6          1.6160   -0.9810   -2.1920 h4        1 C5L      0.292000
     28 H5'        -3.5720   -0.8900    1.2340 h1        1 C5L      0.039000
     29 H1'         0.5940   -1.4790   -0.2260 h2        1 C5L      0.154000
     30 H2'        -0.4180    0.9130    0.4800 h1        1 C5L      0.091000
     31 H3'        -1.4550    0.0770    2.2720 h1        1 C5L      0.189000
     32 H4'        -1.3100   -2.6360    1.5330 h1        1 C5L      0.089000
     33 H41        -1.2510    2.1130   -5.6600 hn        1 C5L      0.188500
     34 H42         0.1420    1.4580   -6.0420 hn        1 C5L      0.188500
     35 H5''       -3.2200   -1.5550    2.6430 h1        1 C5L      0.039000
     36 H71         2.4620   -0.7530   -4.4390 hc        1 C5L      0.094333
     37 H72         1.3380   -0.6980   -5.5860 hc        1 C5L      0.094333
     38 H73         2.1430    0.6280   -5.1860 hc        1 C5L      0.094333
     39 HCA1        1.5330    2.1360    1.0280 h1        1 C5L      0.086000
     40 HCA2        1.1250    1.5990    2.4800 h1        1 C5L      0.086000
     41 HCB1        3.3140    0.7650    2.7850 h1        1 C5L      0.105000
     42 HCB2        3.7230    1.2680    1.3240 h1        1 C5L      0.105000
     43 HCD1        5.1400    2.0650    3.5880 h1        1 C5L      0.069333
     44 HCD2        5.4680    2.9730    2.2920 h1        1 C5L      0.069333
     45 HCD3        4.9750    3.6770    3.6700 h1        1 C5L      0.069333
     46 HO3'       -0.4400   -0.9640    3.6470 ho        1 C5L      0.287000
@<TRIPOS>BOND
     1    1   24 1   
     2    1   25 1   
     3    1   26 1   
     4    2    3 1   
     5    2    9 1   
     6    2   11 1   
     7    3    4 1   
     8    3    5 1   
     9    5    6 1   
    10    6    8 1   
    11    7   33 1   
    12    7   34 1   
    13    8    9 1   
    14    8   10 1   
    15    9   27 1   
    16   10   36 1   
    17   10   37 1   
    18   10   38 1   
    19   11   12 1   
    20   11   17 1   
    21   11   29 1   
    22   12   13 1   
    23   12   14 1   
    24   12   30 1   
    25   13   20 1   
    26   14   15 1   
    27   14   16 1   
    28   14   31 1   
    29   15   46 1   
    30   16   17 1   
    31   16   18 1   
    32   16   32 1   
    33   18   19 1   
    34   18   28 1   
    35   18   35 1   
    36   20   21 1   
    37   20   39 1   
    38   20   40 1   
    39   21   22 1   
    40   21   41 1   
    41   21   42 1   
    42   22   23 1   
    43   23   43 1   
    44   23   44 1   
    45   23   45 1   
@<TRIPOS>SUBSTRUCTURE
     1 C5L         1 TEMP              0 ****  ****    0 ROOT
