@<TRIPOS>MOLECULE
C5M
   70    71     1     0     0
SMALL
bcc


@<TRIPOS>ATOM
      1 C1          3.8570   -1.5140   -1.5770 c3        1 C5M      0.097700
      2 O2          4.0580   -1.8090   -0.1840 os        1 C5M     -0.269900
      3 C3          3.3450   -1.1250    0.7290 ca        1 C5M      0.307100
      4 C4          2.4240   -0.1030    0.4080 ca        1 C5M     -0.258000
      5 C5          1.6900    0.5180    1.3950 ca        1 C5M      0.137700
      6 C6          0.7420    1.5870    0.9880 c3        1 C5M     -0.116800
      7 C7          1.8160    0.1320    2.7770 ca        1 C5M     -0.685500
      8 C8          2.8610   -0.8210    3.0830 ca        1 C5M      0.096700
      9 C9          3.1630   -1.1210    4.5070 c3        1 C5M     -0.110800
     10 C10         3.5800   -1.4700    2.0970 ca        1 C5M     -0.125300
     11 C11         4.5910   -2.5110    2.4130 c3        1 C5M     -0.066800
     12 S12         0.8370    0.6280    3.8470 s4        1 C5M      1.679300
     13 O13         0.8150    0.0660    5.0870 o         1 C5M     -0.449400
     14 O14        -0.1630    1.4900    3.5110 o         1 C5M     -0.449400
     15 N15         2.0960    2.5630    4.8380 n3        1 C5M     -0.987800
     16 C16         1.1490    3.2480    5.6950 c3        1 C5M      0.089800
     17 C17         1.6900    4.4630    6.4730 c3        1 C5M      0.098100
     18 O18         1.8610    5.5820    5.6190 oh        1 C5M     -0.603800
     19 C19         0.6710    4.9000    7.5610 c3        1 C5M      0.135500
     20 C20        -0.7310    5.1030    6.9600 c3        1 C5M     -0.051100
     21 C21        -1.6900    5.6700    7.9450 ca        1 C5M     -0.171300
     22 C22        -2.0370    7.0270    7.8870 ca        1 C5M     -0.131000
     23 C23        -2.9720    7.5490    8.7800 ca        1 C5M     -0.112500
     24 C24        -3.5680    6.7220    9.7330 ca        1 C5M     -0.092000
     25 C25        -3.2280    5.3690    9.7910 ca        1 C5M     -0.112500
     26 C26        -2.2950    4.8430    8.9000 ca        1 C5M     -0.131000
     27 N27         1.1330    6.1520    8.2570 n4        1 C5M     -0.770000
     28 C28         2.1190    5.8910    9.3570 c3        1 C5M      0.178100
     29 C29         2.6020    7.1710    9.9490 ca        1 C5M     -0.183300
     30 C30         2.1340    7.5880   11.1990 ca        1 C5M     -0.092000
     31 C31         2.6260    8.7660   11.7630 ca        1 C5M     -0.105000
     32 C32         3.5740    9.5310   11.0870 ca        1 C5M     -0.070000
     33 C33         4.0380    9.1120    9.8320 ca        1 C5M      0.020400
     34 CL34        5.1890   10.0320    9.0020 cl        1 C5M     -0.032400
     35 C35         3.5570    7.9300    9.2620 ca        1 C5M     -0.117000
     36 H1C1        4.5480   -2.2440   -2.0780 h1        1 C5M      0.081367
     37 H1C2        2.7960   -1.7060   -1.8620 h1        1 C5M      0.081367
     38 H1C3        4.1610   -0.4620   -1.7930 h1        1 C5M      0.081367
     39 H4          2.2900    0.1980   -0.6450 ha        1 C5M      0.181000
     40 H6C1        0.8950    2.5150    1.5940 hc        1 C5M      0.086700
     41 H6C2        0.8770    1.8560   -0.0910 hc        1 C5M      0.086700
     42 H6C3       -0.3210    1.2530    1.1210 hc        1 C5M      0.086700
     43 H9C1        2.4180   -1.8520    4.9210 hc        1 C5M      0.081700
     44 H9C2        3.1380   -0.1950    5.1350 hc        1 C5M      0.081700
     45 H9C3        4.1830   -1.5710    4.6270 hc        1 C5M      0.081700
     46 H111        4.9060   -3.0660    1.4930 hc        1 C5M      0.074700
     47 H112        4.1750   -3.2560    3.1380 hc        1 C5M      0.074700
     48 H113        5.5040   -2.0430    2.8630 hc        1 C5M      0.074700
     49 H15         2.4420    3.1770    4.1220 hn        1 C5M      0.388800
     50 H161        0.2930    3.5960    5.0420 h1        1 C5M      0.104700
     51 H162        0.7530    2.4960    6.4390 h1        1 C5M      0.104700
     52 H17         2.6710    4.2020    6.9670 h1        1 C5M      0.055700
     53 H18         2.6040    5.4020    5.0290 ho        1 C5M      0.434000
     54 H19         0.6210    4.0830    8.3420 hx        1 C5M      0.108700
     55 H201       -0.6540    5.7610    6.0530 hc        1 C5M      0.090700
     56 H202       -1.1020    4.0960    6.6230 hc        1 C5M      0.090700
     57 H22        -1.6020    7.6770    7.1120 ha        1 C5M      0.135500
     58 H23        -3.2520    8.6140    8.7210 ha        1 C5M      0.160500
     59 H24        -4.3150    7.1340   10.4310 ha        1 C5M      0.164000
     60 H25        -3.7100    4.7120   10.5340 ha        1 C5M      0.160500
     61 H26        -2.0500    3.7710    8.9340 ha        1 C5M      0.135500
     62 H27         1.5580    6.7820    7.5610 hn        1 C5M      0.468800
     63 H281        1.6080    5.2550   10.1360 hx        1 C5M      0.100200
     64 H282        2.9790    5.3100    8.9170 hx        1 C5M      0.100200
     65 H30         1.3920    6.9880   11.7490 ha        1 C5M      0.147000
     66 H31         2.2650    9.0910   12.7540 ha        1 C5M      0.171000
     67 H32         3.9610   10.4610   11.5390 ha        1 C5M      0.180000
     68 H35         3.9410    7.5940    8.2870 ha        1 C5M      0.140000
     69 H152        2.8740    2.2080    5.3670 hn        1 C5M      0.388800
     70 H272        0.3070    6.6320    8.6530 hn        1 C5M      0.468800
@<TRIPOS>BOND
     1    1    2 1   
     2    1   36 1   
     3    1   37 1   
     4    1   38 1   
     5    2    3 1   
     6    3    4 ar  
     7    3   10 ar  
     8    4    5 ar  
     9    4   39 1   
    10    5    6 1   
    11    5    7 ar  
    12    6   40 1   
    13    6   41 1   
    14    6   42 1   
    15    7    8 ar  
    16    7   12 1   
    17    8    9 1   
    18    8   10 ar  
    19    9   43 1   
    20    9   44 1   
    21    9   45 1   
    22   10   11 1   
    23   11   46 1   
    24   11   47 1   
    25   11   48 1   
    26   12   13 1   
    27   12   14 1   
    28   15   16 1   
    29   15   49 1   
    30   15   69 1   
    31   16   17 1   
    32   16   50 1   
    33   16   51 1   
    34   17   18 1   
    35   17   19 1   
    36   17   52 1   
    37   18   53 1   
    38   19   20 1   
    39   19   27 1   
    40   19   54 1   
    41   20   21 1   
    42   20   55 1   
    43   20   56 1   
    44   21   22 ar  
    45   21   26 ar  
    46   22   23 ar  
    47   22   57 1   
    48   23   24 ar  
    49   23   58 1   
    50   24   25 ar  
    51   24   59 1   
    52   25   26 ar  
    53   25   60 1   
    54   26   61 1   
    55   27   28 1   
    56   27   62 1   
    57   27   70 1   
    58   28   29 1   
    59   28   63 1   
    60   28   64 1   
    61   29   30 ar  
    62   29   35 ar  
    63   30   31 ar  
    64   30   65 1   
    65   31   32 ar  
    66   31   66 1   
    67   32   33 ar  
    68   32   67 1   
    69   33   34 1   
    70   33   35 ar  
    71   35   68 1   
@<TRIPOS>SUBSTRUCTURE
     1 C5M         1 TEMP              0 ****  ****    0 ROOT
