@<TRIPOS>MOLECULE
C5M
   70    71     1     0     0
SMALL
bcc


@<TRIPOS>ATOM
      1 C1          3.8970   -1.5830   -1.5070 c3        1 C5M      0.097700
      2 O2          4.0740   -1.8790   -0.1110 os        1 C5M     -0.269900
      3 C3          3.3570   -1.1830    0.7910 ca        1 C5M      0.307100
      4 C4          2.4550   -0.1500    0.4560 ca        1 C5M     -0.258000
      5 C5          1.7150    0.4830    1.4320 ca        1 C5M      0.137700
      6 C6          0.7890    1.5640    1.0090 c3        1 C5M     -0.116800
      7 C7          1.8170    0.0980    2.8160 ca        1 C5M     -0.684500
      8 C8          2.8440   -0.8700    3.1380 ca        1 C5M      0.096700
      9 C9          3.1220   -1.1720    4.5660 c3        1 C5M     -0.110800
     10 C10         3.5680   -1.5310    2.1630 ca        1 C5M     -0.125300
     11 C11         4.5590   -2.5850    2.4940 c3        1 C5M     -0.066800
     12 S12         0.8310    0.6090    3.8720 s4        1 C5M      1.679300
     13 O13         0.7840    0.0500    5.1120 o         1 C5M     -0.449400
     14 O14        -0.1510    1.4860    3.5200 o         1 C5M     -0.449400
     15 N15         2.1060    2.5260    4.8780 n3        1 C5M     -0.987800
     16 C16         1.1530    3.2410    5.7030 c3        1 C5M      0.089800
     17 C17         1.7010    4.4510    6.4840 c3        1 C5M      0.098100
     18 O18         1.9240    5.5570    5.6240 oh        1 C5M     -0.603800
     19 C19         0.6630    4.9230    7.5380 c3        1 C5M      0.135500
     20 C20        -0.7170    5.1550    6.8950 c3        1 C5M     -0.051100
     21 C21        -1.6890    5.7560    7.8460 ca        1 C5M     -0.171300
     22 C22        -1.9990    7.1210    7.7660 ca        1 C5M     -0.131000
     23 C23        -2.9460    7.6750    8.6260 ca        1 C5M     -0.112500
     24 C24        -3.5900    6.8730    9.5690 ca        1 C5M     -0.092000
     25 C25        -3.2870    5.5130    9.6500 ca        1 C5M     -0.112500
     26 C26        -2.3410    4.9550    8.7910 ca        1 C5M     -0.131000
     27 N27         1.1360    6.1700    8.2350 n4        1 C5M     -0.770000
     28 C28         2.0820    5.8970    9.3660 c3        1 C5M      0.178100
     29 C29         2.5790    7.1700    9.9600 ca        1 C5M     -0.183300
     30 C30         2.0850    7.6120   11.1910 ca        1 C5M     -0.092000
     31 C31         2.5890    8.7830   11.7590 ca        1 C5M     -0.105000
     32 C32         3.5760    9.5180   11.1040 ca        1 C5M     -0.070000
     33 C33         4.0680    9.0730    9.8670 ca        1 C5M      0.020400
     34 CL34        5.2650    9.9550    9.0650 cl        1 C5M     -0.032400
     35 C35         3.5740    7.8980    9.2950 ca        1 C5M     -0.117000
     36 H1C1        4.2170   -0.5350   -1.7200 h1        1 C5M      0.081033
     37 H1C2        4.5840   -2.3230   -1.9980 h1        1 C5M      0.081033
     38 H1C3        2.8360   -1.7600   -1.8070 h1        1 C5M      0.081033
     39 H4          2.3390    0.1510   -0.6000 ha        1 C5M      0.181000
     40 H6C1       -0.2810    1.2450    1.1300 hc        1 C5M      0.086700
     41 H6C2        0.9420    1.8290   -0.0680 hc        1 C5M      0.086700
     42 H6C3        0.9470    2.4920    1.6150 hc        1 C5M      0.086700
     43 H9C1        2.3610   -1.8910    4.9710 hc        1 C5M      0.081700
     44 H9C2        3.1020   -0.2450    5.1920 hc        1 C5M      0.081700
     45 H9C3        4.1330   -1.6370    4.7010 hc        1 C5M      0.081700
     46 H111        5.4720   -2.1300    2.9570 hc        1 C5M      0.074700
     47 H112        4.1220   -3.3240    3.2130 hc        1 C5M      0.074700
     48 H113        4.8800   -3.1450    1.5790 hc        1 C5M      0.074700
     49 H15         2.8600    2.1580    5.4310 hn        1 C5M      0.389300
     50 H161        0.3230    3.6030    5.0230 h1        1 C5M      0.104700
     51 H162        0.7190    2.5060    6.4420 h1        1 C5M      0.104700
     52 H17         2.6600    4.1710    7.0080 h1        1 C5M      0.055700
     53 H18         2.6810    5.3540    5.0600 ho        1 C5M      0.434000
     54 H19         0.5690    4.1160    8.3250 hx        1 C5M      0.108700
     55 H201       -0.5970    5.8010    5.9840 hc        1 C5M      0.090700
     56 H202       -1.1030    4.1540    6.5580 hc        1 C5M      0.090700
     57 H22        -1.5250    7.7520    6.9980 ha        1 C5M      0.135500
     58 H23        -3.1960    8.7460    8.5490 ha        1 C5M      0.160500
     59 H24        -4.3460    7.3110   10.2410 ha        1 C5M      0.164000
     60 H25        -3.8060    4.8750   10.3840 ha        1 C5M      0.160500
     61 H26        -2.1260    3.8770    8.8430 ha        1 C5M      0.135500
     62 H27         1.5960    6.7830    7.5470 hn        1 C5M      0.468800
     63 H281        1.5330    5.2810   10.1360 hx        1 C5M      0.100200
     64 H282        2.9400    5.2900    8.9570 hx        1 C5M      0.100200
     65 H30         1.3120    7.0370   11.7240 ha        1 C5M      0.147000
     66 H31         2.2080    9.1280   12.7340 ha        1 C5M      0.171000
     67 H32         3.9730   10.4420   11.5580 ha        1 C5M      0.180000
     68 H35         3.9790    7.5420    8.3360 ha        1 C5M      0.140000
     69 H152        2.4860    3.1260    4.1660 hn        1 C5M      0.389300
     70 H272        0.3110    6.6750    8.6020 hn        1 C5M      0.468800
@<TRIPOS>BOND
     1    1    2 1   
     2    1   36 1   
     3    1   37 1   
     4    1   38 1   
     5    2    3 1   
     6    3    4 ar  
     7    3   10 ar  
     8    4    5 ar  
     9    4   39 1   
    10    5    6 1   
    11    5    7 ar  
    12    6   40 1   
    13    6   41 1   
    14    6   42 1   
    15    7    8 ar  
    16    7   12 1   
    17    8    9 1   
    18    8   10 ar  
    19    9   43 1   
    20    9   44 1   
    21    9   45 1   
    22   10   11 1   
    23   11   46 1   
    24   11   47 1   
    25   11   48 1   
    26   12   13 1   
    27   12   14 1   
    28   15   16 1   
    29   15   49 1   
    30   15   69 1   
    31   16   17 1   
    32   16   50 1   
    33   16   51 1   
    34   17   18 1   
    35   17   19 1   
    36   17   52 1   
    37   18   53 1   
    38   19   20 1   
    39   19   27 1   
    40   19   54 1   
    41   20   21 1   
    42   20   55 1   
    43   20   56 1   
    44   21   22 ar  
    45   21   26 ar  
    46   22   23 ar  
    47   22   57 1   
    48   23   24 ar  
    49   23   58 1   
    50   24   25 ar  
    51   24   59 1   
    52   25   26 ar  
    53   25   60 1   
    54   26   61 1   
    55   27   28 1   
    56   27   62 1   
    57   27   70 1   
    58   28   29 1   
    59   28   63 1   
    60   28   64 1   
    61   29   30 ar  
    62   29   35 ar  
    63   30   31 ar  
    64   30   65 1   
    65   31   32 ar  
    66   31   66 1   
    67   32   33 ar  
    68   32   67 1   
    69   33   34 1   
    70   33   35 ar  
    71   35   68 1   
@<TRIPOS>SUBSTRUCTURE
     1 C5M         1 TEMP              0 ****  ****    0 ROOT
