@<TRIPOS>MOLECULE
C5M
   68    63     1     0     0
SMALL
bcc


@<TRIPOS>ATOM
      1 C1          2.3100   -8.4260   -0.4370 c3        1 C5M     -0.078000
      2 O2          2.8710   -7.2310   -0.9750 os        1 C5M     -0.205000
      3 C3          1.9960   -6.0990   -0.9120 c2        1 C5M      0.150000
      4 C4          0.8650   -6.0510   -1.7190 c1        1 C5M     -0.246000
      5 C5          0.0130   -4.9390   -1.6720 c1        1 C5M      0.090000
      6 C6         -1.3210   -4.9720   -2.4330 c3        1 C5M     -0.212000
      7 C7          0.3010   -3.8720   -0.8090 c1        1 C5M     -0.860000
      8 C8          1.4340   -3.9200   -0.0000 c1        1 C5M      0.082000
      9 C9          1.6680   -2.8230    1.0820 c3        1 C5M     -0.210000
     10 C10         2.2870   -5.0440   -0.0540 c2        1 C5M     -0.130000
     11 C11         3.5810   -5.0450    0.7280 c3        1 C5M     -0.170000
     12 S12        -0.7640   -2.4050   -0.8030 s4        1 C5M      2.073800
     13 O13        -1.2910   -2.1510    0.4970 o         1 C5M     -0.552400
     14 O14        -1.9620   -2.6360   -1.5510 o         1 C5M     -0.552400
     15 N15         0.0780   -1.0630   -1.3940 n2        1 C5M     -0.891000
     16 C16        -0.6370    0.1560   -1.7170 c3        1 C5M     -0.001000
     17 C17         0.1280    1.3340   -1.2080 c3        1 C5M     -0.029000
     18 O18         0.9870    1.8310   -2.2450 oh        1 C5M     -0.326000
     19 C19        -0.8380    2.4260   -0.7850 c3        1 C5M     -0.052000
     20 C20        -1.0910    3.3550   -1.9490 c3        1 C5M     -0.112000
     21 C21        -2.0780    4.4550   -1.5250 c2        1 C5M     -0.071000
     22 C22        -1.6330    5.7540   -1.3560 c2        1 C5M     -0.107000
     23 C23        -2.5410    6.7730   -1.0910 c1        1 C5M     -0.132000
     24 C24        -3.8870    6.4910   -0.9950 c1        1 C5M     -0.131000
     25 C25        -4.3380    5.1880   -1.1640 c1        1 C5M     -0.131000
     26 C26        -3.4310    4.1690   -1.4290 c1        1 C5M     -0.131000
     27 N27        -0.2680    3.1660    0.3160 n3        1 C5M     -0.302000
     28 C28        -0.6630    2.5440    1.5630 c3        1 C5M     -0.038000
     29 C29         0.0950    3.1980    2.7300 c2        1 C5M     -0.083000
     30 C30         1.4570    2.9880    2.8760 c2        1 C5M     -0.123000
     31 C31         2.1230    3.5320    3.9410 c1        1 C5M     -0.123000
     32 C32         1.4330    4.2930    4.8750 c1        1 C5M     -0.121000
     33 C33         0.0770    4.5020    4.7290 c1        1 C5M     -0.065000
     34 CL34       -0.7990    5.4920    5.9030 cl        1 C5M     -0.017000
     35 C35        -0.5910    3.9560    3.6600 c2        1 C5M     -0.107000
     36 H1C1        1.4640   -8.6390   -0.9130 h1        1 C5M      0.088667
     37 H1C2        2.9610   -9.1840   -0.5540 h1        1 C5M      0.088667
     38 H1C3        2.1290   -8.3010    0.4960 h1        1 C5M      0.088667
     39 H4          0.6320   -6.8390   -2.3050 ha        1 C5M      0.143000
     40 H6C1       -1.3950   -5.8100   -2.9170 hc        1 C5M      0.103333
     41 H6C2       -1.3560   -4.2360   -3.0580 hc        1 C5M      0.103333
     42 H6C3       -2.0750   -4.8940   -1.7870 hc        1 C5M      0.103333
     43 H9C1        2.0770   -2.0590    0.6760 hc        1 C5M      0.103333
     44 H9C2        0.8040   -2.5620    1.4780 hc        1 C5M      0.103333
     45 H9C3        2.2580   -3.1760    1.7860 hc        1 C5M      0.103333
     46 H111        3.9930   -4.1360    0.6900 hc        1 C5M      0.089333
     47 H112        4.2110   -5.7160    0.3300 hc        1 C5M      0.089333
     48 H113        3.4020   -5.2780    1.6470 hc        1 C5M      0.089333
     49 H15         0.9900   -1.1090   -1.5170 hn        1 C5M      0.252000
     50 H161       -1.4970    0.1380   -1.3110 h1        1 C5M      0.101000
     51 H162       -0.7350    0.2250   -2.6750 h1        1 C5M      0.101000
     52 H17         0.6950    1.0500   -0.4010 h1        1 C5M      0.085000
     53 H18         1.8070    1.8080   -1.9760 ho        1 C5M      0.203000
     54 H19        -1.7210    2.0040   -0.4910 h1        1 C5M      0.116000
     55 H201       -1.4780    2.8400   -2.7040 hc        1 C5M      0.096000
     56 H202       -0.2360    3.7680   -2.2340 hc        1 C5M      0.096000
     57 H22        -0.6940    5.9530   -1.4230 ha        1 C5M      0.140000
     58 H23        -2.2190    7.7060   -0.9700 ha        1 C5M      0.131000
     59 H24        -4.5320    7.2190   -0.8050 ha        1 C5M      0.129500
     60 H25        -5.2790    4.9900   -1.0970 ha        1 C5M      0.129500
     61 H26        -3.7410    3.2710   -1.5440 ha        1 C5M      0.126000
     62 H27         0.6520    3.1570    0.2460 hn        1 C5M      0.154000
     63 H281       -0.4570    1.6230    1.5340 h1        1 C5M      0.086500
     64 H282       -1.6340    2.6590    1.6940 h1        1 C5M      0.086500
     65 H30         1.9520    2.4410    2.2030 ha        1 C5M      0.139000
     66 H31         3.0800    3.3850    4.0440 ha        1 C5M      0.139000
     67 H32         1.8980    4.6750    5.6180 ha        1 C5M      0.148000
     68 H35        -1.5300    4.1010    3.5600 ha        1 C5M      0.160000
@<TRIPOS>BOND
     1    1    2 1   
     2    1   36 1   
     3    1   37 1   
     4    1   38 1   
     5    2    3 1   
     6    3    4 1   
     7    3   10 1   
     8    4   39 1   
     9    5    6 1   
    10    5    7 1   
    11    6   40 1   
    12    6   41 1   
    13    6   42 1   
    14    7   12 1   
    15    8    9 1   
    16    8   10 1   
    17    9   43 1   
    18    9   44 1   
    19    9   45 1   
    20   10   11 1   
    21   11   46 1   
    22   11   47 1   
    23   11   48 1   
    24   12   13 1   
    25   12   14 1   
    26   15   16 1   
    27   15   49 1   
    28   16   17 1   
    29   16   50 1   
    30   16   51 1   
    31   17   18 1   
    32   17   19 1   
    33   17   52 1   
    34   18   53 1   
    35   19   20 1   
    36   19   27 1   
    37   19   54 1   
    38   20   21 1   
    39   20   55 1   
    40   20   56 1   
    41   21   22 1   
    42   21   26 1   
    43   22   23 1   
    44   22   57 1   
    45   23   58 1   
    46   24   25 1   
    47   24   59 1   
    48   25   60 1   
    49   26   61 1   
    50   27   28 1   
    51   27   62 1   
    52   28   29 1   
    53   28   63 1   
    54   28   64 1   
    55   29   30 1   
    56   29   35 1   
    57   30   31 1   
    58   30   65 1   
    59   31   66 1   
    60   32   33 1   
    61   32   67 1   
    62   33   35 1   
    63   35   68 1   
@<TRIPOS>SUBSTRUCTURE
     1 C5M         1 TEMP              0 ****  ****    0 ROOT
