@<TRIPOS>MOLECULE
C5M
   70    71     1     0     0
SMALL
bcc


@<TRIPOS>ATOM
      1 C1          3.9170   -1.5090   -1.5580 c3        1 C5M      0.097700
      2 O2          4.1040   -1.8090   -0.1640 os        1 C5M     -0.269900
      3 C3          3.3830   -1.1250    0.7440 ca        1 C5M      0.307100
      4 C4          2.4690   -0.0990    0.4170 ca        1 C5M     -0.258000
      5 C5          1.7270    0.5210    1.3980 ca        1 C5M      0.137700
      6 C6          0.7870    1.5940    0.9850 c3        1 C5M     -0.116800
      7 C7          1.8390    0.1320    2.7800 ca        1 C5M     -0.685500
      8 C8          2.8780   -0.8260    3.0940 ca        1 C5M      0.096700
      9 C9          3.1660   -1.1310    4.5200 c3        1 C5M     -0.110800
     10 C10         3.6050   -1.4750    2.1130 ca        1 C5M     -0.125300
     11 C11         4.6090   -2.5190    2.4360 c3        1 C5M     -0.066800
     12 S12         0.8510    0.6270    3.8420 s4        1 C5M      1.679300
     13 O13         0.8150    0.0620    5.0800 o         1 C5M     -0.449400
     14 O14        -0.1420    1.4940    3.4990 o         1 C5M     -0.449400
     15 N15         2.1070    2.5550    4.8520 n8        1 C5M     -0.987800
     16 C16         1.1520    3.2460    5.6950 c3        1 C5M      0.089800
     17 C17         1.6890    4.4570    6.4820 c3        1 C5M      0.098100
     18 O18         1.8820    5.5750    5.6310 oh        1 C5M     -0.603800
     19 C19         0.6570    4.9010    7.5530 c3        1 C5M      0.135500
     20 C20        -0.7350    5.1140    6.9310 c3        1 C5M     -0.051100
     21 C21        -1.7050    5.6890    7.9000 ca        1 C5M     -0.171300
     22 C22        -2.0400    7.0480    7.8380 ca        1 C5M     -0.131000
     23 C23        -2.9850    7.5770    8.7160 ca        1 C5M     -0.112500
     24 C24        -3.6020    6.7540    9.6590 ca        1 C5M     -0.092000
     25 C25        -3.2740    5.3980    9.7220 ca        1 C5M     -0.112500
     26 C26        -2.3310    4.8660    8.8450 ca        1 C5M     -0.131000
     27 N27         1.1170    6.1490    8.2570 ny        1 C5M     -0.770000
     28 C28         2.0830    5.8800    9.3730 c3        1 C5M      0.178100
     29 C29         2.5660    7.1560    9.9740 ca        1 C5M     -0.183300
     30 C30         2.0810    7.5760   11.2170 ca        1 C5M     -0.092000
     31 C31         2.5720    8.7490   11.7900 ca        1 C5M     -0.105000
     32 C32         3.5370    9.5080   11.1300 ca        1 C5M     -0.070000
     33 C33         4.0180    9.0860    9.8810 ca        1 C5M      0.020400
     34 Cl34        5.1880    9.9980    9.0720 cl        1 C5M     -0.032400
     35 C35         3.5370    7.9090    9.3030 ca        1 C5M     -0.117000
     36 H1C1        2.8570   -1.6970   -1.8540 h1        1 C5M      0.081033
     37 H1C2        4.6100   -2.2400   -2.0550 h1        1 C5M      0.081033
     38 H1C3        4.2250   -0.4580   -1.7680 h1        1 C5M      0.081033
     39 H4          2.3450    0.2050   -0.6370 ha        1 C5M      0.181000
     40 H6C1       -0.2780    1.2630    1.1080 hc        1 C5M      0.086700
     41 H6C2        0.9330    1.8660   -0.0920 hc        1 C5M      0.086700
     42 H6C3        0.9370    2.5210    1.5940 hc        1 C5M      0.086700
     43 H9C1        4.1820   -1.5840    4.6490 hc        1 C5M      0.081700
     44 H9C2        3.1370   -0.2060    5.1500 hc        1 C5M      0.081700
     45 H9C3        2.4140   -1.8600    4.9250 hc        1 C5M      0.081700
     46 H111        5.5190   -2.0560    2.8960 hc        1 C5M      0.074700
     47 H112        4.9310   -3.0730    1.5180 hc        1 C5M      0.074700
     48 H113        4.1840   -3.2660    3.1540 hc        1 C5M      0.074700
     49 H15         2.4680    3.1670    4.1410 hn        1 C5M      0.388800
     50 H161        0.3090    3.6000    5.0290 h1        1 C5M      0.104700
     51 H162        0.7390    2.4970    6.4320 h1        1 C5M      0.104700
     52 H17         2.6600    4.1890    6.9910 h1        1 C5M      0.055700
     53 H18         2.6330    5.3900    5.0530 ho        1 C5M      0.434000
     54 H19         0.5870    4.0840    8.3330 hx        1 C5M      0.108700
     55 H201       -1.1070    4.1110    6.5870 hc        1 C5M      0.090700
     56 H202       -0.6380    5.7730    6.0250 hc        1 C5M      0.090700
     57 H22        -1.5880    7.6960    7.0710 ha        1 C5M      0.135500
     58 H23        -3.2560    8.6440    8.6540 ha        1 C5M      0.160500
     59 H24        -4.3580    7.1710   10.3450 ha        1 C5M      0.164000
     60 H25        -3.7720    4.7450   10.4560 ha        1 C5M      0.160500
     61 H26        -2.0950    3.7920    8.8830 ha        1 C5M      0.135500
     62 H27         1.5570    6.7760    7.5690 hn        1 C5M      0.468800
     63 H281        2.9460    5.2930    8.9470 hx        1 C5M      0.100200
     64 H282        1.5550    5.2470   10.1440 hx        1 C5M      0.100200
     65 H30         1.3260    6.9810   11.7540 ha        1 C5M      0.147000
     66 H31         2.1990    9.0770   12.7750 ha        1 C5M      0.171000
     67 H32         3.9240   10.4350   11.5880 ha        1 C5M      0.180000
     68 H35         3.9350    7.5700    8.3340 ha        1 C5M      0.140000
     69 H152        2.8740    2.1940    5.3930 hn        1 C5M      0.388800
     70 H272        0.2880    6.6350    8.6400 hn        1 C5M      0.468800
@<TRIPOS>BOND
     1    1    2 1   
     2    1   36 1   
     3    1   37 1   
     4    1   38 1   
     5    2    3 1   
     6    3    4 ar  
     7    3   10 ar  
     8    4    5 ar  
     9    4   39 1   
    10    5    6 1   
    11    5    7 ar  
    12    6   40 1   
    13    6   41 1   
    14    6   42 1   
    15    7    8 ar  
    16    7   12 1   
    17    8    9 1   
    18    8   10 ar  
    19    9   43 1   
    20    9   44 1   
    21    9   45 1   
    22   10   11 1   
    23   11   46 1   
    24   11   47 1   
    25   11   48 1   
    26   12   13 1   
    27   12   14 1   
    28   15   16 1   
    29   15   49 1   
    30   15   69 1   
    31   16   17 1   
    32   16   50 1   
    33   16   51 1   
    34   17   18 1   
    35   17   19 1   
    36   17   52 1   
    37   18   53 1   
    38   19   20 1   
    39   19   27 1   
    40   19   54 1   
    41   20   21 1   
    42   20   55 1   
    43   20   56 1   
    44   21   22 ar  
    45   21   26 ar  
    46   22   23 ar  
    47   22   57 1   
    48   23   24 ar  
    49   23   58 1   
    50   24   25 ar  
    51   24   59 1   
    52   25   26 ar  
    53   25   60 1   
    54   26   61 1   
    55   27   28 1   
    56   27   62 1   
    57   27   70 1   
    58   28   29 1   
    59   28   63 1   
    60   28   64 1   
    61   29   30 ar  
    62   29   35 ar  
    63   30   31 ar  
    64   30   65 1   
    65   31   32 ar  
    66   31   66 1   
    67   32   33 ar  
    68   32   67 1   
    69   33   34 1   
    70   33   35 ar  
    71   35   68 1   
@<TRIPOS>SUBSTRUCTURE
     1 C5M         1 TEMP              0 ****  ****    0 ROOT
