@<TRIPOS>MOLECULE
C5M
   68    70     1     0     0
SMALL
bcc


@<TRIPOS>ATOM
      1 C1         -8.5100   -1.7020    0.5060 c3        1 C5M      0.110700
      2 O2         -7.9850   -0.4570    0.9560 os        1 C5M     -0.321900
      3 C3         -6.7280   -0.1170    0.5090 ca        1 C5M      0.195100
      4 C4         -5.9440   -0.9470   -0.2940 ca        1 C5M     -0.247000
      5 C5         -4.6860   -0.5190   -0.7210 ca        1 C5M      0.080700
      6 C6         -3.9050   -1.4550   -1.5710 c3        1 C5M     -0.085800
      7 C7         -4.1920    0.7500   -0.3590 ca        1 C5M     -0.416500
      8 C8         -4.9720    1.5460    0.5130 ca        1 C5M      0.074700
      9 C9         -4.4500    2.8490    1.0060 c3        1 C5M     -0.084800
     10 C10        -6.2480    1.1450    0.9270 ca        1 C5M     -0.137300
     11 C11        -7.0980    2.0090    1.7820 c3        1 C5M     -0.045800
     12 S12        -2.7280    1.3190   -0.9950 sy        1 C5M      1.519200
     13 O13        -2.7460    2.7280   -1.0530 o         1 C5M     -0.661800
     14 O14        -2.4470    0.6880   -2.2300 o         1 C5M     -0.661800
     15 N15        -1.6470    0.8400    0.1140 n3        1 C5M     -0.919100
     16 C16        -0.7190   -0.2350   -0.0640 c3        1 C5M      0.199800
     17 C17         0.6930    0.0950    0.4610 c3        1 C5M      0.081100
     18 O18         0.6860    0.2830    1.8630 oh        1 C5M     -0.594800
     19 C19         1.7280   -0.9790    0.0270 c3        1 C5M      0.154500
     20 C20         1.4350   -2.3240    0.7230 c3        1 C5M     -0.033100
     21 C21         2.1540   -3.4530    0.0740 ca        1 C5M     -0.075300
     22 C22         3.4550   -3.7850    0.4690 ca        1 C5M     -0.118000
     23 C23         4.1190   -4.8540   -0.1310 ca        1 C5M     -0.132000
     24 C24         3.4910   -5.5990   -1.1290 ca        1 C5M     -0.129000
     25 C25         2.1950   -5.2710   -1.5270 ca        1 C5M     -0.132000
     26 C26         1.5290   -4.2030   -0.9290 ca        1 C5M     -0.118000
     27 N27         3.1040   -0.5740    0.2750 n3        1 C5M     -0.817200
     28 C28         3.6470    0.3260   -0.7270 c3        1 C5M      0.208100
     29 C29         4.9900    0.8790   -0.3480 ca        1 C5M     -0.085300
     30 C30         6.0400    0.0160   -0.0130 ca        1 C5M     -0.108000
     31 C31         7.2950    0.5330    0.3040 ca        1 C5M     -0.127000
     32 C32         7.5170    1.9090    0.2880 ca        1 C5M     -0.122000
     33 C33         6.4650    2.7670   -0.0470 ca        1 C5M      0.015400
     34 CL34        6.7240    4.4480   -0.0700 cl        1 C5M     -0.095400
     35 C35         5.2010    2.2600   -0.3630 ca        1 C5M     -0.118000
     36 H1C1       -7.8870   -2.5490    0.8820 h1        1 C5M      0.049700
     37 H1C2       -9.5310   -1.7300    0.9640 h1        1 C5M      0.049700
     38 H1C3       -8.5750   -1.7240   -0.6090 h1        1 C5M      0.049700
     39 H4         -6.3070   -1.9390   -0.6000 ha        1 C5M      0.143000
     40 H6C1       -3.8840   -1.0880   -2.6310 hc        1 C5M      0.063367
     41 H6C2       -2.8470   -1.5320   -1.2150 hc        1 C5M      0.063367
     42 H6C3       -4.3520   -2.4790   -1.5600 hc        1 C5M      0.063367
     43 H9C1       -4.5850    3.6350    0.2160 hc        1 C5M      0.064367
     44 H9C2       -4.9720    3.1830    1.9350 hc        1 C5M      0.064367
     45 H9C3       -3.3590    2.7880    1.2440 hc        1 C5M      0.064367
     46 H111       -7.1350    3.0500    1.3730 hc        1 C5M      0.050033
     47 H112       -8.1460    1.6200    1.8360 hc        1 C5M      0.050033
     48 H113       -6.6890    2.0490    2.8230 hc        1 C5M      0.050033
     49 H15        -1.5510    1.2950    0.9920 hn        1 C5M      0.453800
     50 H161       -1.1040   -1.1460    0.4820 h1        1 C5M      0.054700
     51 H162       -0.6460   -0.4870   -1.1620 h1        1 C5M      0.054700
     52 H17         1.0160    1.1020    0.0620 h1        1 C5M      0.088700
     53 H18         0.4040   -0.5480    2.2680 ho        1 C5M      0.401000
     54 H19         1.5990   -1.1330   -1.0860 h1        1 C5M      0.072700
     55 H201        1.7230   -2.2650    1.8070 hc        1 C5M      0.048700
     56 H202        0.3300   -2.5140    0.6760 hc        1 C5M      0.048700
     57 H22         3.9570   -3.1890    1.2460 ha        1 C5M      0.132500
     58 H23         5.1420   -5.1090    0.1830 ha        1 C5M      0.130000
     59 H24         4.0160   -6.4430   -1.6010 ha        1 C5M      0.131000
     60 H25         1.6980   -5.8550   -2.3150 ha        1 C5M      0.130000
     61 H26         0.5070   -3.9490   -1.2470 ha        1 C5M      0.132500
     62 H27         3.1860   -0.1810    1.1960 hn        1 C5M      0.373800
     63 H281        3.7640   -0.2680   -1.6810 h1        1 C5M      0.042200
     64 H282        2.9470    1.1860   -0.9540 h1        1 C5M      0.042200
     65 H30         5.8680   -1.0710   -0.0020 ha        1 C5M      0.150000
     66 H31         8.1180   -0.1480    0.5680 ha        1 C5M      0.137000
     67 H32         8.5090    2.3140    0.5370 ha        1 C5M      0.147000
     68 H35         4.3800    2.9460   -0.6240 ha        1 C5M      0.148000
@<TRIPOS>BOND
     1    1    2 1   
     2    1   36 1   
     3    1   37 1   
     4    1   38 1   
     5    2    3 1   
     6    3    4 ar  
     7    3   10 ar  
     8    4    5 ar  
     9    4   39 1   
    10    5    6 1   
    11    5    7 ar  
    12    6   40 1   
    13    6   41 1   
    14    6   42 1   
    15    7    8 ar  
    16    7   12 1   
    17    8    9 1   
    18    8   10 ar  
    19    9   43 1   
    20    9   44 1   
    21    9   45 1   
    22   10   11 1   
    23   11   46 1   
    24   11   47 1   
    25   11   48 1   
    26   12   13 2   
    27   12   14 2   
    28   12   15 1   
    29   15   16 1   
    30   15   49 1   
    31   16   17 1   
    32   16   50 1   
    33   16   51 1   
    34   17   18 1   
    35   17   19 1   
    36   17   52 1   
    37   18   53 1   
    38   19   20 1   
    39   19   27 1   
    40   19   54 1   
    41   20   21 1   
    42   20   55 1   
    43   20   56 1   
    44   21   22 ar  
    45   21   26 ar  
    46   22   23 ar  
    47   22   57 1   
    48   23   24 ar  
    49   23   58 1   
    50   24   25 ar  
    51   24   59 1   
    52   25   26 ar  
    53   25   60 1   
    54   26   61 1   
    55   27   28 1   
    56   27   62 1   
    57   28   29 1   
    58   28   63 1   
    59   28   64 1   
    60   29   30 ar  
    61   29   35 ar  
    62   30   31 ar  
    63   30   65 1   
    64   31   32 ar  
    65   31   66 1   
    66   32   33 ar  
    67   32   67 1   
    68   33   34 1   
    69   33   35 ar  
    70   35   68 1   
@<TRIPOS>SUBSTRUCTURE
     1 C5M         1 TEMP              0 ****  ****    0 ROOT
