@<TRIPOS>MOLECULE
C5P
   33    33     1     0     0
SMALL
bcc


@<TRIPOS>ATOM
      1 O3P        -2.4920   -3.1770    4.6540 o         1 C5P     -0.928167
      2 P          -2.6140   -3.2860    3.1580 p5        1 C5P      1.566500
      3 O1P        -1.8000   -4.4820    2.6650 o         1 C5P     -0.928167
      4 O2P        -4.0950   -3.4800    2.7760 o         1 C5P     -0.928167
      5 O5'        -2.0680   -1.9700    2.4870 os        1 C5P     -0.717000
      6 C5'        -1.8770   -1.9580    1.0620 c3        1 C5P      0.075000
      7 C4'        -1.8130   -0.4940    0.5630 c3        1 C5P     -0.063000
      8 O4'        -0.6520    0.0180    0.8310 os        1 C5P     -0.294000
      9 C3'        -1.9280   -0.4420   -0.9660 c3        1 C5P      0.012000
     10 O3'        -3.1270    0.0940   -1.3340 oh        1 C5P     -0.406000
     11 C2'        -0.7660    0.4640   -1.4360 c3        1 C5P     -0.011000
     12 O2'        -1.2800    1.5200   -2.3960 oh        1 C5P     -0.339000
     13 C1'        -0.3190    1.0170   -0.3660 c3        1 C5P      0.107000
     14 N1          1.1160    1.1980   -0.4660 n         1 C5P     -0.259000
     15 C2          2.0180    0.1470    0.0210 c2        1 C5P      0.345000
     16 N3          3.4770    0.3670    0.0210 n2        1 C5P     -0.323000
     17 C4          4.0050    1.6210   -0.3690 c1        1 C5P      0.190000
     18 C5          3.1030    2.6670   -0.8960 c1        1 C5P     -0.374000
     19 C6          1.6480    2.4280   -0.9450 c2        1 C5P      0.095000
     20 O2          1.5550   -0.9580    0.3640 o         1 C5P     -0.380000
     21 N4          5.3890    1.8430   -0.3330 n3        1 C5P     -0.337000
     22 H5'1       -1.0300   -2.4220    0.8380 h1        1 C5P      0.039000
     23 H5'2       -2.6290   -2.4210    0.6280 h1        1 C5P      0.039000
     24 H4'        -2.5480    0.0560    0.9890 h1        1 C5P      0.111000
     25 H3'        -1.8300   -1.3280   -1.3390 h1        1 C5P      0.153000
     26 HO3'       -3.6160   -0.5330   -1.7810 ho        1 C5P      0.313000
     27 H2'1       -0.0870   -0.0560   -1.8490 h1        1 C5P      0.102000
     28 HO2'       -1.2090    1.2320   -3.2050 ho        1 C5P      0.227000
     29 H1'        -0.7420    1.8450   -0.2250 h2        1 C5P      0.148000
     30 H5          3.4820    3.5070   -1.2720 ha        1 C5P      0.159000
     31 H6          1.0350    3.1560   -1.2310 h4        1 C5P      0.221000
     32 HN41        5.7270    2.6840   -0.5210 hn        1 C5P      0.193000
     33 HN42        5.9670    1.1450   -0.1260 hn        1 C5P      0.193000
@<TRIPOS>BOND
     1    1    2 1   
     2    2    3 1   
     3    2    4 1   
     4    2    5 1   
     5    5    6 1   
     6    6    7 1   
     7    6   22 1   
     8    6   23 1   
     9    7    8 1   
    10    7    9 1   
    11    7   24 1   
    12    8   13 1   
    13    9   10 1   
    14    9   11 1   
    15    9   25 1   
    16   10   26 1   
    17   11   12 1   
    18   11   13 1   
    19   11   27 1   
    20   12   28 1   
    21   13   14 1   
    22   13   29 1   
    23   14   15 1   
    24   14   19 1   
    25   15   16 1   
    26   15   20 1   
    27   16   17 1   
    28   17   21 1   
    29   18   19 1   
    30   18   30 1   
    31   19   31 1   
    32   21   32 1   
    33   21   33 1   
@<TRIPOS>SUBSTRUCTURE
     1 C5P         1 TEMP              0 ****  ****    0 ROOT
