@<TRIPOS>MOLECULE
C5P
   33    34     1     0     0
SMALL
bcc


@<TRIPOS>ATOM
      1 O3P        -3.5860    1.9090   -0.2460 o         1 C5P     -0.925167
      2 P          -2.5860    0.8750    0.1530 p5        1 C5P      1.339900
      3 O1P        -1.1690    1.3320    0.4440 o         1 C5P     -0.925167
      4 O2P        -2.9860   -0.2480    1.0820 o         1 C5P     -0.925167
      5 O5'        -2.3340   -0.0960   -1.2620 os        1 C5P     -0.569200
      6 C5'        -1.0490   -0.3450   -1.6550 c3        1 C5P      0.225400
      7 C4'        -0.4830   -1.6680   -1.0820 c3        1 C5P      0.062100
      8 O4'         0.9140   -1.7710   -1.4470 os        1 C5P     -0.437600
      9 C3'        -0.5730   -1.7820    0.4530 c3        1 C5P      0.075100
     10 O3'        -1.5400   -2.7300    0.8410 oh        1 C5P     -0.664800
     11 C2'         0.8270   -2.2120    0.9190 c3        1 C5P      0.107100
     12 O2'         0.9710   -3.5960    1.1710 oh        1 C5P     -0.616800
     13 C1'         1.7450   -1.8280   -0.2880 c3        1 C5P      0.260500
     14 N1          2.4650   -0.5650   -0.0840 n         1 C5P     -0.367000
     15 C2          3.8960   -0.5410   -0.2260 c         1 C5P      0.822900
     16 N3          4.6150    0.6500   -0.0480 nc        1 C5P     -0.764100
     17 C4          3.9270    1.7800    0.2070 cd        1 C5P      0.707500
     18 C5          2.4930    1.7920    0.3510 cd        1 C5P     -0.459600
     19 C6          1.8030    0.6040    0.1900 cc        1 C5P      0.085600
     20 O2          4.5000   -1.6120   -0.4830 o         1 C5P     -0.683500
     21 N4          4.6160    3.0010    0.2970 nh        1 C5P     -0.897800
     22 H5'1       -0.3610    0.5000   -1.3740 h1        1 C5P     -0.001300
     23 H5'2       -1.0280   -0.4590   -2.7800 h1        1 C5P     -0.001300
     24 H4'        -0.9850   -2.5470   -1.5680 h1        1 C5P      0.045700
     25 H3'        -0.8450   -0.7610    0.8860 h1        1 C5P      0.161700
     26 HO3'       -2.3500   -2.2000    1.0230 ho        1 C5P      0.494000
     27 H2'1        1.1280   -1.6980    1.8690 h1        1 C5P      0.072700
     28 HO2'        0.2080   -4.0400    0.7790 ho        1 C5P      0.420000
     29 H1'         2.5100   -2.6330   -0.4960 h2        1 C5P      0.109700
     30 H5          1.9290    2.7090    0.5550 ha        1 C5P      0.170000
     31 H6          0.6680    0.6040    0.2980 h4        1 C5P      0.299000
     32 HN41        5.5940    2.9410    0.4680 hn        1 C5P      0.390300
     33 HN42        4.1460    3.6770    0.8560 hn        1 C5P      0.390300
@<TRIPOS>BOND
     1    1    2 1   
     2    2    3 1   
     3    2    4 1   
     4    2    5 1   
     5    5    6 1   
     6    6    7 1   
     7    6   22 1   
     8    6   23 1   
     9    7    8 1   
    10    7    9 1   
    11    7   24 1   
    12    8   13 1   
    13    9   10 1   
    14    9   11 1   
    15    9   25 1   
    16   10   26 1   
    17   11   12 1   
    18   11   13 1   
    19   11   27 1   
    20   12   28 1   
    21   13   14 1   
    22   13   29 1   
    23   14   15 1   
    24   14   19 1   
    25   15   16 1   
    26   15   20 2   
    27   16   17 2   
    28   17   18 1   
    29   17   21 1   
    30   18   19 2   
    31   18   30 1   
    32   19   31 1   
    33   21   32 1   
    34   21   33 1   
@<TRIPOS>SUBSTRUCTURE
     1 C5P         1 TEMP              0 ****  ****    0 ROOT
