@<TRIPOS>MOLECULE
C5Q
   34    37     1     0     0
SMALL
bcc


@<TRIPOS>ATOM
      1 C1          0.0810    1.0500   -0.0490 ca        1 C5Q     -0.173000
      2 C2          1.4810    0.9420   -0.0640 ca        1 C5Q     -0.137000
      3 C3         -0.6590    0.6750    1.0650 ca        1 C5Q     -0.090000
      4 C4         -2.8630   -2.4800    3.2630 ca        1 C5Q     -0.144000
      5 C5          2.1830    0.4580    1.0300 ca        1 C5Q     -0.151000
      6 C6         -3.3390   -3.7890    3.4470 ca        1 C5Q     -0.145000
      7 C7          0.0030    0.1820    2.1880 ca        1 C5Q     -0.073800
      8 C8         -2.2450   -1.7580    4.2870 ca        1 C5Q     -0.060300
      9 C9         -2.0560   -2.3110    5.5790 ca        1 C5Q     -0.074600
     10 C10         1.4510    0.0750    2.1630 ca        1 C5Q     -0.061200
     11 C11        -3.1590   -4.3240    4.7050 ca        1 C5Q      0.030100
     12 C12        -2.5300   -3.5990    5.7490 ca        1 C5Q      0.063100
     13 C13         0.7350   -0.6540    4.1880 cc        1 C5Q     -0.070100
     14 C14        -0.4190   -0.2900    3.4890 cd        1 C5Q     -0.152400
     15 C15        -1.7930   -0.3580    4.0130 c3        1 C5Q      0.034100
     16 C16        -1.3770   -1.5260    6.6950 c         1 C5Q      0.925200
     17 C17        -3.1190   -5.6500    6.5520 c3        1 C5Q      0.319200
     18 N18         1.8640   -0.4310    3.3960 na        1 C5Q     -0.199400
     19 O19        -0.1530   -1.7580    6.9150 o         1 C5Q     -0.820800
     20 O20        -2.0640   -0.6710    7.3130 o         1 C5Q     -0.820800
     21 O21        -3.5320   -5.5870    5.1700 os        1 C5Q     -0.358900
     22 O22        -2.4990   -4.3990    6.8960 os        1 C5Q     -0.315900
     23 H1         -0.4340    1.4380   -0.9390 ha        1 C5Q      0.112000
     24 H2          2.0310    1.2480   -0.9660 ha        1 C5Q      0.111000
     25 H3         -1.7550    0.7620    1.0700 ha        1 C5Q      0.127000
     26 H5          3.2770    0.3770    1.0100 ha        1 C5Q      0.117000
     27 H13         0.8050   -1.0630    5.2140 h4        1 C5Q      0.244000
     28 H15        -1.8520    0.2300    4.9760 hc        1 C5Q      0.064200
     29 H15A       -2.4940    0.1220    3.2770 hc        1 C5Q      0.064200
     30 H17        -4.0280   -5.7900    7.1880 h2        1 C5Q      0.048700
     31 H17A       -2.3670   -6.4700    6.6620 h2        1 C5Q      0.048700
     32 HN18        2.7920   -0.6340    3.6480 hn        1 C5Q      0.289700
     33 H4         -2.9830   -2.0150    2.2740 ha        1 C5Q      0.119000
     34 H6         -3.8210   -4.3470    2.6380 ha        1 C5Q      0.128000
@<TRIPOS>BOND
     1    1    2 ar  
     2    1    3 ar  
     3    1   23 1   
     4    2    5 ar  
     5    2   24 1   
     6    3    7 ar  
     7    3   25 1   
     8    4    6 ar  
     9    4    8 ar  
    10    4   33 1   
    11    5   10 ar  
    12    5   26 1   
    13    6   11 ar  
    14    6   34 1   
    15    7   10 ar  
    16    7   14 1   
    17    8    9 ar  
    18    8   15 1   
    19    9   12 ar  
    20    9   16 1   
    21   10   18 1   
    22   11   12 ar  
    23   11   21 1   
    24   12   22 1   
    25   13   14 2   
    26   13   18 1   
    27   13   27 1   
    28   14   15 1   
    29   15   28 1   
    30   15   29 1   
    31   16   19 1   
    32   16   20 1   
    33   17   21 1   
    34   17   22 1   
    35   17   30 1   
    36   17   31 1   
    37   18   32 1   
@<TRIPOS>SUBSTRUCTURE
     1 C5Q         1 TEMP              0 ****  ****    0 ROOT
