@<TRIPOS>MOLECULE
C5Q
   34    37     1     0     0
SMALL
bcc


@<TRIPOS>ATOM
      1 C1          0.1230    1.0200   -0.0570 ca        1 C5Q     -0.173000
      2 C2          1.5210    0.8930   -0.0690 ca        1 C5Q     -0.137000
      3 C3         -0.6250    0.6600    1.0570 ca        1 C5Q     -0.090000
      4 C4         -2.8750   -2.4560    3.2630 ca        1 C5Q     -0.144000
      5 C5          2.2150    0.4040    1.0290 ca        1 C5Q     -0.151000
      6 C6         -3.3690   -3.7580    3.4510 ca        1 C5Q     -0.145000
      7 C7          0.0290    0.1620    2.1830 ca        1 C5Q     -0.073800
      8 C8         -2.2490   -1.7390    4.2850 ca        1 C5Q     -0.060300
      9 C9         -2.0700   -2.2890    5.5800 ca        1 C5Q     -0.074600
     10 C10         1.4760    0.0360    2.1610 ca        1 C5Q     -0.061200
     11 C11        -3.1990   -4.2910    4.7110 ca        1 C5Q      0.030100
     12 C12        -2.5620   -3.5700    5.7540 ca        1 C5Q      0.063100
     13 C13         0.7460   -0.6760    4.1880 cc        1 C5Q     -0.070100
     14 C14        -0.4010   -0.2990    3.4860 cd        1 C5Q     -0.152400
     15 C15        -1.7780   -0.3460    4.0070 c3        1 C5Q      0.034100
     16 C16        -1.3830   -1.5090    6.6940 c         1 C5Q      0.925200
     17 C17        -3.1800   -5.6090    6.5640 c3        1 C5Q      0.319200
     18 N18         1.8790   -0.4720    3.3970 na        1 C5Q     -0.199400
     19 O19        -0.1630   -1.7570    6.9180 o         1 C5Q     -0.820800
     20 O20        -2.0590   -0.6420    7.3080 o         1 C5Q     -0.820800
     21 O21        -3.5900   -5.5460    5.1810 os        1 C5Q     -0.358900
     22 O22        -2.5440   -4.3660    6.9040 os        1 C5Q     -0.315900
     23 H1         -0.3850    1.4120   -0.9490 ha        1 C5Q      0.112000
     24 H2          2.0770    1.1880   -0.9710 ha        1 C5Q      0.111000
     25 H3         -1.7190    0.7620    1.0590 ha        1 C5Q      0.127000
     26 H5          3.3080    0.3080    1.0110 ha        1 C5Q      0.117000
     27 H13         0.8080   -1.0820    5.2150 h4        1 C5Q      0.244000
     28 H15        -2.4710    0.1410    3.2680 hc        1 C5Q      0.064200
     29 H15A       -1.8300    0.2460    4.9680 hc        1 C5Q      0.064200
     30 H17        -2.4390   -6.4390    6.6780 h2        1 C5Q      0.048700
     31 H17A       -4.0920   -5.7350    7.1990 h2        1 C5Q      0.048700
     32 HN18        2.8040   -0.6860    3.6510 hn        1 C5Q      0.289700
     33 H4         -2.9860   -1.9930    2.2720 ha        1 C5Q      0.119000
     34 H6         -3.8580   -4.3120    2.6430 ha        1 C5Q      0.128000
@<TRIPOS>BOND
     1    1    2 ar  
     2    1    3 ar  
     3    1   23 1   
     4    2    5 ar  
     5    2   24 1   
     6    3    7 ar  
     7    3   25 1   
     8    4    6 ar  
     9    4    8 ar  
    10    4   33 1   
    11    5   10 ar  
    12    5   26 1   
    13    6   11 ar  
    14    6   34 1   
    15    7   10 ar  
    16    7   14 1   
    17    8    9 ar  
    18    8   15 1   
    19    9   12 ar  
    20    9   16 1   
    21   10   18 1   
    22   11   12 ar  
    23   11   21 1   
    24   12   22 1   
    25   13   14 2   
    26   13   18 1   
    27   13   27 1   
    28   14   15 1   
    29   15   28 1   
    30   15   29 1   
    31   16   19 1   
    32   16   20 1   
    33   17   21 1   
    34   17   22 1   
    35   17   30 1   
    36   17   31 1   
    37   18   32 1   
@<TRIPOS>SUBSTRUCTURE
     1 C5Q         1 TEMP              0 ****  ****    0 ROOT
