@<TRIPOS>MOLECULE
C5Q
   34    37     1     0     0
SMALL
bcc


@<TRIPOS>ATOM
      1 C1          4.7670    1.6450    0.8550 ca        1 C5Q     -0.173000
      2 C2          5.4600    1.0750   -0.2250 ca        1 C5Q     -0.137000
      3 C3          3.4780    1.2420    1.1790 ca        1 C5Q     -0.090000
      4 C4         -0.8940    1.7650    0.6720 ca        1 C5Q     -0.144000
      5 C5          4.8880    0.0880   -1.0140 ca        1 C5Q     -0.151000
      6 C6         -2.0340    2.3660    0.1120 ca        1 C5Q     -0.145000
      7 C7          2.8620    0.2540    0.4130 ca        1 C5Q     -0.073800
      8 C8         -0.7540    0.3790    0.7770 ca        1 C5Q     -0.060300
      9 C9         -1.7600   -0.5080    0.3180 ca        1 C5Q     -0.074600
     10 C10         3.5870   -0.3300   -0.7020 ca        1 C5Q     -0.061200
     11 C11        -3.0140    1.5030   -0.3290 ca        1 C5Q      0.030100
     12 C12        -2.8790    0.0950   -0.2290 ca        1 C5Q      0.063100
     13 C13         1.5500   -1.3250   -0.6000 cc        1 C5Q     -0.070100
     14 C14         1.5720   -0.4010    0.4480 cd        1 C5Q     -0.152400
     15 C15         0.4810   -0.1770    1.4130 c3        1 C5Q      0.034100
     16 C16        -1.6070   -2.0200    0.4280 c         1 C5Q      0.925200
     17 C17        -4.8930    0.5560   -1.1930 c3        1 C5Q      0.319200
     18 N18         2.7630   -1.2890   -1.2930 na        1 C5Q     -0.199400
     19 O19        -1.2240   -2.6470   -0.6020 o         1 C5Q     -0.820800
     20 O20        -1.8400   -2.5550    1.5440 o         1 C5Q     -0.820800
     21 O21        -4.2420    1.8150   -0.9170 os        1 C5Q     -0.358900
     22 O22        -4.0290   -0.5060   -0.7530 os        1 C5Q     -0.315900
     23 H1          5.2600    2.4240    1.4530 ha        1 C5Q      0.112000
     24 H2          6.4790    1.4220   -0.4500 ha        1 C5Q      0.111000
     25 H3          2.9420    1.6920    2.0260 ha        1 C5Q      0.127000
     26 H5          5.4360   -0.3520   -1.8570 ha        1 C5Q      0.117000
     27 H13         0.7260   -2.0050   -0.8870 h4        1 C5Q      0.244000
     28 H15         0.8360    0.5270    2.2150 hc        1 C5Q      0.064200
     29 H15A        0.2170   -1.1570    1.9080 hc        1 C5Q      0.064200
     30 H17        -5.8450    0.5120   -0.6080 h2        1 C5Q      0.048700
     31 H17A       -5.0430    0.4670   -2.2970 h2        1 C5Q      0.048700
     32 HN18        2.9860   -1.8220   -2.0880 hn        1 C5Q      0.289700
     33 H4         -0.0850    2.4160    1.0350 ha        1 C5Q      0.119000
     34 H6         -2.1340    3.4530    0.0340 ha        1 C5Q      0.128000
@<TRIPOS>BOND
     1    1    2 ar  
     2    1    3 ar  
     3    1   23 1   
     4    2    5 ar  
     5    2   24 1   
     6    3    7 ar  
     7    3   25 1   
     8    4    6 ar  
     9    4    8 ar  
    10    4   33 1   
    11    5   10 ar  
    12    5   26 1   
    13    6   11 ar  
    14    6   34 1   
    15    7   10 ar  
    16    7   14 1   
    17    8    9 ar  
    18    8   15 1   
    19    9   12 ar  
    20    9   16 1   
    21   10   18 1   
    22   11   12 ar  
    23   11   21 1   
    24   12   22 1   
    25   13   14 2   
    26   13   18 1   
    27   13   27 1   
    28   14   15 1   
    29   15   28 1   
    30   15   29 1   
    31   16   19 1   
    32   16   20 1   
    33   17   21 1   
    34   17   22 1   
    35   17   30 1   
    36   17   31 1   
    37   18   32 1   
@<TRIPOS>SUBSTRUCTURE
     1 C5Q         1 TEMP              0 ****  ****    0 ROOT
