@<TRIPOS>MOLECULE
C5Q
   34    26     1     0     0
SMALL
bcc


@<TRIPOS>ATOM
      1 C1          1.7210    1.0910   -4.4620 c1        1 C5Q     -0.137750
      2 C2          3.1080    0.8740   -4.3800 c1        1 C5Q     -0.137750
      3 C3          0.9370    1.0470   -3.3020 c1        1 C5Q     -0.137750
      4 C4         -1.3600   -1.2600    0.0490 c1        1 C5Q     -0.144000
      5 C5          3.7050    0.6130   -3.1400 c1        1 C5Q     -0.137750
      6 C6         -1.9330   -2.2350    0.8550 c1        1 C5Q     -0.145000
      7 C7          1.5490    0.7810   -2.0400 c1        1 C5Q     -0.039000
      8 C8         -1.0870    0.0100    0.5720 c1        1 C5Q     -0.053000
      9 C9         -1.3910    0.2950    1.8980 c1        1 C5Q     -0.054000
     10 C10         2.9150    0.5670   -1.9650 c1        1 C5Q     -0.039000
     11 C11        -2.2390   -1.9560    2.1810 c1        1 C5Q     -0.015000
     12 C12        -1.9710   -0.6940    2.7100 c2        1 C5Q      0.018000
     13 C13         2.0510    0.2470    0.0690 c1        1 C5Q     -0.043000
     14 C14         1.0170    0.5830   -0.7810 c1        1 C5Q     -0.160000
     15 C15        -0.4100    1.0890   -0.3220 c2        1 C5Q     -0.056000
     16 C16        -1.7690    1.4480    2.8570 c2        1 C5Q      0.374000
     17 C17        -3.1240   -1.8850    4.2760 c3        1 C5Q      0.097000
     18 N18         3.2210    0.2380   -0.6640 n1        1 C5Q     -0.222000
     19 O19        -0.9260    1.8630    3.7170 o         1 C5Q     -0.555500
     20 O20        -2.9200    2.0220    2.7530 o         1 C5Q     -0.555500
     21 O21        -3.0500   -2.6540    3.1120 o         1 C5Q     -0.242000
     22 O22        -2.5670   -0.6310    4.0030 os        1 C5Q     -0.199000
     23 H1          1.2820    1.2820   -5.3760 ha        1 C5Q      0.116750
     24 H2          3.6750    0.9600   -5.1960 ha        1 C5Q      0.116750
     25 H3         -0.0070    1.1660   -3.3600 ha        1 C5Q      0.116750
     26 H4         -1.1500   -1.4590   -0.8760 ha        1 C5Q      0.119000
     27 H5          4.6800    0.4590   -3.0850 ha        1 C5Q      0.116750
     28 H6         -2.1190   -3.1030    0.4960 ha        1 C5Q      0.128000
     29 H13         1.9830    0.1420    1.0400 DU        1 C5Q      0.242000
     30 H15        -0.3090    1.9420    0.1990 ha        1 C5Q      0.103500
     31 H15A       -0.9500    1.2470   -1.0870 ha        1 C5Q      0.103500
     32 H17        -4.0520   -1.7830    4.5420 h2        1 C5Q      0.088000
     33 H17A       -2.5920   -2.3470    5.0350 h2        1 C5Q      0.088000
     34 HN18        4.0810    0.0390   -0.3290 DU        1 C5Q      0.242000
@<TRIPOS>BOND
     1    1    3 1   
     2    1   23 1   
     3    2    5 1   
     4    2   24 1   
     5    3   25 1   
     6    4    8 1   
     7    4   26 1   
     8    5   27 1   
     9    6   11 1   
    10    6   28 1   
    11    7   10 1   
    12    8   15 1   
    13    9   12 1   
    14    9   16 1   
    15   11   12 1   
    16   12   22 1   
    17   13   14 1   
    18   13   18 1   
    19   15   30 1   
    20   15   31 1   
    21   16   19 1   
    22   16   20 1   
    23   17   21 1   
    24   17   22 1   
    25   17   32 1   
    26   17   33 1   
@<TRIPOS>SUBSTRUCTURE
     1 C5Q         1 TEMP              0 ****  ****    0 ROOT
