@<TRIPOS>MOLECULE
C5X
   34    35     1     0     0
SMALL
bcc


@<TRIPOS>ATOM
      1 C1          0.0070    0.4210    0.9370 c3        1 C5X      0.297900
      2 C2         -1.0240   -0.0620    1.9810 c3        1 C5X      0.130100
      3 C3         -0.5130    0.1990    3.4050 c3        1 C5X      0.154100
      4 C4          0.9320   -0.3150    3.5480 c3        1 C5X      0.065100
      5 C5          1.8250    0.2490    2.4430 c3        1 C5X      0.106400
      6 O1         -0.3560   -0.1780   -0.2870 os        1 C5X     -0.420600
      7 O2         -2.2090    0.6980    1.8220 oh        1 C5X     -0.583800
      8 O3         -1.3600   -0.5230    4.2820 oh        1 C5X     -0.585800
      9 O4          1.3710    0.1280    4.8240 oh        1 C5X     -0.599800
     10 O5          1.3170   -0.0910    1.1630 os        1 C5X     -0.433600
     11 C1'         0.4070    0.2890   -1.4050 c3        1 C5X      0.136400
     12 C2'        -0.1860   -0.3840   -2.6300 c3        1 C5X     -0.083400
     13 C3'         0.6140   -0.0210   -3.8630 c3        1 C5X     -0.074400
     14 C4'         0.0280   -0.6460   -5.0920 cx        1 C5X      0.063100
     15 C5'         0.3720   -0.1330   -6.4450 cx        1 C5X      0.051400
     16 O'         -0.8940    0.1670   -5.8430 os        1 C5X     -0.406600
     17 H1          0.0330    1.5450    0.8710 h2        1 C5X      0.053700
     18 H2         -1.2280   -1.1590    1.8400 h1        1 C5X      0.080700
     19 H3         -0.5580    1.2980    3.6390 h1        1 C5X      0.067700
     20 H4          0.9300   -1.4400    3.5090 h1        1 C5X      0.065700
     21 H51         1.9140    1.3630    2.5460 h1        1 C5X      0.057700
     22 H52         2.8440   -0.2180    2.4700 h1        1 C5X      0.057700
     23 HO2        -2.6200    0.3890    1.0050 ho        1 C5X      0.416000
     24 HO3        -1.0660   -0.3070    5.1770 ho        1 C5X      0.417000
     25 HO4         2.2380   -0.2670    4.9730 ho        1 C5X      0.409000
     26 H1'1        0.3220    1.4060   -1.4750 h1        1 C5X      0.039200
     27 H1'2        1.4820    0.0050   -1.2630 h1        1 C5X      0.039200
     28 H2'1       -0.1860   -1.4950   -2.4790 hc        1 C5X      0.060700
     29 H2'2       -1.2530   -0.0650   -2.7570 hc        1 C5X      0.060700
     30 H3'1        0.6420    1.0950   -3.9810 hc        1 C5X      0.055700
     31 H3'2        1.6710   -0.3800   -3.7510 hc        1 C5X      0.055700
     32 H4'        -0.3050   -1.6960   -4.9670 h1        1 C5X      0.092700
     33 H5'1        1.0400    0.7400   -6.5630 h1        1 C5X      0.077200
     34 H5'2        0.3160   -0.7920   -7.3300 h1        1 C5X      0.077200
@<TRIPOS>BOND
     1    1    2 1   
     2    1    6 1   
     3    1   10 1   
     4    1   17 1   
     5    2    3 1   
     6    2    7 1   
     7    2   18 1   
     8    3    4 1   
     9    3    8 1   
    10    3   19 1   
    11    4    5 1   
    12    4    9 1   
    13    4   20 1   
    14    5   10 1   
    15    5   21 1   
    16    5   22 1   
    17    6   11 1   
    18    7   23 1   
    19    8   24 1   
    20    9   25 1   
    21   11   12 1   
    22   11   26 1   
    23   11   27 1   
    24   12   13 1   
    25   12   28 1   
    26   12   29 1   
    27   13   14 1   
    28   13   30 1   
    29   13   31 1   
    30   14   15 1   
    31   14   16 1   
    32   14   32 1   
    33   15   16 1   
    34   15   33 1   
    35   15   34 1   
@<TRIPOS>SUBSTRUCTURE
     1 C5X         1 TEMP              0 ****  ****    0 ROOT
