@<TRIPOS>MOLECULE
C61
   84    84     1     0     0
SMALL
bcc


@<TRIPOS>ATOM
      1 C2         11.4030    0.0930    5.7220 c3        1 C61      0.113700
      2 O3         10.4050    0.0790    6.7350 os        1 C61     -0.473600
      3 C4          9.1930    0.7130    6.3180 c3        1 C61      0.127400
      4 C5          8.3040    0.7440    7.5480 c3        1 C61     -0.085400
      5 C6          6.8740    1.1130    7.2020 c3        1 C61      0.132400
      6 O7          6.0830    0.4780    8.2290 os        1 C61     -0.387900
      7 C9          4.2960    4.2440    8.6750 c3        1 C61      0.105700
      8 C10         3.9520   -0.4770    7.8050 ca        1 C61     -0.147000
      9 C11         4.7170    0.6560    8.0910 ca        1 C61      0.045100
     10 C12         4.0850    1.8930    8.3580 ca        1 C61      0.117100
     11 C13         2.6840    1.9490    8.3830 ca        1 C61     -0.179000
     12 C14         1.9360    0.7910    8.1830 ca        1 C61     -0.090000
     13 C15         2.5590   -0.4340    7.9140 ca        1 C61     -0.118300
     14 C16         1.7520   -1.6740    7.7460 c3        1 C61     -0.035100
     15 C17         2.3100   -2.8500    8.5440 c3        1 C61     -0.056700
     16 C18         1.5930   -4.1640    8.2180 c3        1 C61     -0.061700
     17 C19         0.0850   -4.0280    8.1900 c3        1 C61     -0.099600
     18 C20         2.0880   -4.7340    6.9030 c3        1 C61     -0.099600
     19 C21         2.2480   -2.5550   10.0440 c3        1 C61     -0.109400
     20 C22         3.4860   -3.1150   10.7640 c3        1 C61      0.100500
     21 N23         3.1450   -3.5420   12.1660 n4        1 C61     -0.835600
     22 C24         4.6290   -2.0550   10.7660 c3        1 C61      0.114100
     23 O25         4.4090   -1.1620   11.8450 oh        1 C61     -0.622800
     24 C26         6.0020   -2.7080   10.9310 c3        1 C61     -0.098400
     25 C27         7.1400   -1.7040   10.7110 c3        1 C61     -0.127700
     26 C28         7.4790   -0.9850   11.9970 c3        1 C61     -0.130100
     27 C29         8.3090   -2.4230   10.0710 c         1 C61      0.541100
     28 O30         8.2350   -3.2800    9.2010 o         1 C61     -0.415100
     29 N31         9.7110   -2.0800   10.5020 n4        1 C61     -0.673800
     30 C32        10.2460   -0.8570    9.8170 c3        1 C61      0.094800
     31 C33        11.6500   -0.5040   10.2910 c3        1 C61     -0.106400
     32 C34        12.1150    0.7470    9.5670 c3        1 C61     -0.079400
     33 C35        13.5400    1.0760    9.9310 c3        1 C61     -0.101100
     34 H2C1       11.0470   -0.4580    4.8170 h1        1 C61      0.049033
     35 H2C2       12.2760   -0.4310    6.1850 h1        1 C61      0.049033
     36 H2C3       11.6720    1.1440    5.4540 h1        1 C61      0.049033
     37 H4C1        8.7300    0.1130    5.4900 h1        1 C61      0.052700
     38 H4C2        9.4100    1.7500    5.9490 h1        1 C61      0.052700
     39 H5C1        8.3100   -0.2730    8.0280 hc        1 C61      0.037700
     40 H5C2        8.7170    1.4690    8.2950 hc        1 C61      0.037700
     41 H6C1        6.5650    0.7100    6.2030 h1        1 C61      0.067700
     42 H6C2        6.7020    2.2200    7.2390 h1        1 C61      0.067700
     43 H9C1        3.6380    4.3020    9.5750 h1        1 C61      0.061033
     44 H9C2        3.7180    4.4610    7.7440 h1        1 C61      0.061033
     45 H9C3        5.1670    4.9420    8.7750 h1        1 C61      0.061033
     46 H13         2.1680    2.9050    8.5620 ha        1 C61      0.164000
     47 H14         0.8360    0.8480    8.2260 ha        1 C61      0.155000
     48 H161        0.6890   -1.4840    8.0550 hc        1 C61      0.078200
     49 H162        1.7360   -1.9590    6.6570 hc        1 C61      0.078200
     50 H17         3.3910   -2.9830    8.2500 hc        1 C61      0.045700
     51 H18         1.8630   -4.8990    9.0320 hc        1 C61      0.018700
     52 H211        1.3000   -2.9940   10.4580 hc        1 C61      0.077700
     53 H212        2.2010   -1.4460   10.2180 hc        1 C61      0.077700
     54 H191       -0.2920   -3.5210    9.1100 hc        1 C61      0.049867
     55 H192       -0.3860   -5.0400    8.1250 hc        1 C61      0.049867
     56 H193       -0.2430   -3.4370    7.3000 hc        1 C61      0.049867
     57 H201        3.1900   -4.9060    6.9350 hc        1 C61      0.049867
     58 H202        1.8590   -4.0430    6.0570 hc        1 C61      0.049867
     59 H203        1.5830   -5.7110    6.7000 hc        1 C61      0.049867
     60 H22         3.8450   -4.0440   10.2250 hx        1 C61      0.116700
     61 H231        3.9380   -4.0310   12.5870 hn        1 C61      0.465467
     62 H232        2.3240   -4.1540   12.1570 hn        1 C61      0.465467
     63 H24         4.5850   -1.5210    9.7690 h1        1 C61      0.123700
     64 H25         4.1500   -0.3030   11.4800 ho        1 C61      0.454000
     65 H261        6.0950   -3.1430   11.9600 hc        1 C61      0.073700
     66 H262        6.0790   -3.5420   10.1820 hc        1 C61      0.073700
     67 H27         6.8160   -0.9350    9.9330 hc        1 C61      0.152700
     68 H281        8.1920   -0.1430   11.8220 hc        1 C61      0.071700
     69 H282        6.5390   -0.5430   12.4220 hc        1 C61      0.071700
     70 H283        7.8990   -1.6810   12.7630 hc        1 C61      0.071700
     71 H31         9.7350   -1.9310   11.5170 hn        1 C61      0.462300
     72 H321        9.5370   -0.0050   10.0250 hx        1 C61      0.124200
     73 H322       10.2560   -1.0500    8.6990 hx        1 C61      0.124200
     74 H331       12.3610   -1.3450   10.0710 hc        1 C61      0.066200
     75 H332       11.6630   -0.3220   11.3980 hc        1 C61      0.066200
     76 H341       11.4460    1.6060    9.8380 hc        1 C61      0.061200
     77 H342       12.0270    0.5930    8.4560 hc        1 C61      0.061200
     78 H351       14.2290    0.2480    9.6340 hc        1 C61      0.053033
     79 H352       13.6420    1.2440   11.0300 hc        1 C61      0.053033
     80 H353       13.8600    2.0070    9.4010 hc        1 C61      0.053033
     81 O8          4.9180    2.9590    8.5970 os        1 C61     -0.327900
     82 H233        2.9410   -2.7030   12.7280 hn        1 C61      0.465467
     83 H312       10.3320   -2.8700   10.2740 hn        1 C61      0.462300
     84 H10         4.4690   -1.3960    7.4880 ha        1 C61      0.142000
@<TRIPOS>BOND
     1    1    2 1   
     2    1   34 1   
     3    1   35 1   
     4    1   36 1   
     5    2    3 1   
     6    3    4 1   
     7    3   37 1   
     8    3   38 1   
     9    4    5 1   
    10    4   39 1   
    11    4   40 1   
    12    5    6 1   
    13    5   41 1   
    14    5   42 1   
    15    6    9 1   
    16    7   43 1   
    17    7   44 1   
    18    7   45 1   
    19    7   81 1   
    20    8    9 ar  
    21    8   13 ar  
    22    8   84 1   
    23    9   10 ar  
    24   10   11 ar  
    25   10   81 1   
    26   11   12 ar  
    27   11   46 1   
    28   12   13 ar  
    29   12   47 1   
    30   13   14 1   
    31   14   15 1   
    32   14   48 1   
    33   14   49 1   
    34   15   16 1   
    35   15   19 1   
    36   15   50 1   
    37   16   17 1   
    38   16   18 1   
    39   16   51 1   
    40   17   54 1   
    41   17   55 1   
    42   17   56 1   
    43   18   57 1   
    44   18   58 1   
    45   18   59 1   
    46   19   20 1   
    47   19   52 1   
    48   19   53 1   
    49   20   21 1   
    50   20   22 1   
    51   20   60 1   
    52   21   61 1   
    53   21   62 1   
    54   21   82 1   
    55   22   23 1   
    56   22   24 1   
    57   22   63 1   
    58   23   64 1   
    59   24   25 1   
    60   24   65 1   
    61   24   66 1   
    62   25   26 1   
    63   25   27 1   
    64   25   67 1   
    65   26   68 1   
    66   26   69 1   
    67   26   70 1   
    68   27   28 2   
    69   27   29 1   
    70   29   30 1   
    71   29   71 1   
    72   29   83 1   
    73   30   31 1   
    74   30   72 1   
    75   30   73 1   
    76   31   32 1   
    77   31   74 1   
    78   31   75 1   
    79   32   33 1   
    80   32   76 1   
    81   32   77 1   
    82   33   78 1   
    83   33   79 1   
    84   33   80 1   
@<TRIPOS>SUBSTRUCTURE
     1 C61         1 TEMP              0 ****  ****    0 ROOT
