@<TRIPOS>MOLECULE
C61
   82    80     1     0     0
SMALL
bcc


@<TRIPOS>ATOM
      1 C2          4.3060    4.1280   -9.5910 c3        1 C61     -0.071000
      2 O3          2.9540    3.8070   -9.3860 os        1 C61     -0.285000
      3 C4          2.6090    3.5940   -8.0070 c3        1 C61     -0.022000
      4 C5          1.2110    3.0470   -7.9150 c3        1 C61     -0.168000
      5 C6          0.8820    2.7240   -6.4250 c3        1 C61     -0.016000
      6 O7          0.8060    1.3180   -6.2440 os        1 C61     -0.221000
      7 O8          3.0580    0.9470   -4.6150 os        1 C61     -0.217000
      8 C9          3.7180    2.0220   -3.9770 c3        1 C61     -0.076000
      9 C10        -0.6390    0.6500   -4.3700 c1        1 C61     -0.125000
     10 C11         0.6490    0.9220   -4.8800 c1        1 C61      0.047000
     11 C12         1.7660    0.6800   -4.1010 c2        1 C61      0.028000
     12 C13         1.6200    0.1630   -2.7980 c2        1 C61     -0.176000
     13 C14         0.3500   -0.1060   -2.2920 c1        1 C61     -0.117000
     14 C15        -0.7840    0.1380   -3.0800 c1        1 C61     -0.076000
     15 C16        -2.2150   -0.0250   -2.4590 c3        1 C61     -0.122000
     16 C17        -2.2150   -1.1790   -1.5040 c3        1 C61     -0.088000
     17 C18        -3.2690   -2.1810   -1.9200 c3        1 C61     -0.102000
     18 C19        -4.4300   -1.4510   -2.6310 c3        1 C61     -0.209000
     19 C20        -2.6590   -3.1860   -2.8590 c3        1 C61     -0.209000
     20 C21        -2.5250   -0.6700   -0.0740 c3        1 C61     -0.152000
     21 C22        -1.6450   -1.4220    0.9430 c3        1 C61     -0.020000
     22 N23        -2.1160   -2.7320    1.0910 n3        1 C61     -0.326000
     23 C24        -1.6990   -0.7050    2.2890 c3        1 C61     -0.019000
     24 O25        -2.9690   -0.8510    2.8470 oh        1 C61     -0.332000
     25 C26        -0.6460   -1.3070    3.2380 c3        1 C61     -0.196000
     26 C27        -0.9520   -0.8820    4.6780 c3        1 C61     -0.125000
     27 C28        -1.5960   -2.0110    5.4060 c3        1 C61     -0.215000
     28 C29         0.3540   -0.4950    5.3850 c2        1 C61      0.299000
     29 O30         1.4040   -0.5410    4.7830 o         1 C61     -0.365000
     30 N31         0.3410   -0.1460    6.7920 n         1 C61     -0.375000
     31 C32         1.5240   -0.3590    7.6030 c3        1 C61     -0.034000
     32 C33         1.1370   -0.2810    9.1200 c3        1 C61     -0.184000
     33 C34         2.2480   -0.9130    9.9620 c3        1 C61     -0.157000
     34 C35         1.8980   -0.8070   11.4090 c3        1 C61     -0.211000
     35 H2C1        4.6330    4.6470   -8.8380 h1        1 C61      0.070667
     36 H2C2        4.3960    4.6580  -10.4220 h1        1 C61      0.070667
     37 H2C3        4.8270    3.3050   -9.6710 h1        1 C61      0.070667
     38 H4C1        2.6600    4.4550   -7.5170 h1        1 C61      0.074500
     39 H4C2        3.2350    2.9560   -7.6090 h1        1 C61      0.074500
     40 H5C1        0.5820    3.7090   -8.2500 hc        1 C61      0.100500
     41 H5C2        1.1430    2.2320   -8.4500 hc        1 C61      0.100500
     42 H6C1        0.0220    3.1310   -6.1830 h1        1 C61      0.091500
     43 H6C2        1.5750    3.0820   -5.8600 h1        1 C61      0.091500
     44 H9C1        3.5790    1.9640   -3.0190 h1        1 C61      0.084000
     45 H9C2        4.6860    1.9770   -4.1740 h1        1 C61      0.084000
     46 H9C3        3.3570    2.8680   -4.3080 h1        1 C61      0.084000
     47 H10        -1.4150    0.8170   -4.9100 ha        1 C61      0.148000
     48 H13         2.4040   -0.0050   -2.2530 ha        1 C61      0.138000
     49 H14         0.2500   -0.4650   -1.3870 ha        1 C61      0.137000
     50 H161       -2.4570    0.7880   -1.9850 hc        1 C61      0.090000
     51 H162       -2.8670   -0.1930   -3.1770 hc        1 C61      0.090000
     52 H17        -1.3390   -1.6070   -1.5130 hc        1 C61      0.104000
     53 H18        -3.6170   -2.6510   -1.1110 hc        1 C61      0.096000
     54 H211       -3.4790   -0.8290    0.1330 hc        1 C61      0.089500
     55 H212       -2.3320    0.3040   -0.0210 hc        1 C61      0.089500
     56 H191       -4.4580   -0.5180   -2.3380 hc        1 C61      0.071833
     57 H192       -5.2770   -1.8900   -2.4060 hc        1 C61      0.071833
     58 H193       -4.2910   -1.4850   -3.6120 hc        1 C61      0.071833
     59 H201       -2.5790   -2.7880   -3.7600 hc        1 C61      0.071833
     60 H202       -1.7780   -3.4370   -2.5360 hc        1 C61      0.071833
     61 H203       -3.2310   -3.9820   -2.9020 hc        1 C61      0.071833
     62 H22        -0.7250   -1.4430    0.6240 h1        1 C61      0.105000
     63 H231       -2.5070   -2.8230    1.9040 hn        1 C61      0.145500
     64 H232       -1.4180   -3.3130    1.0220 hn        1 C61      0.145500
     65 H24        -1.5130    0.2340    2.1580 h1        1 C61      0.080000
     66 H25        -3.2700   -0.0480    3.1200 ho        1 C61      0.198000
     67 H261        0.2410   -0.9840    2.9860 hc        1 C61      0.113500
     68 H262       -0.6690   -2.2890    3.1740 hc        1 C61      0.113500
     69 H27        -1.5720   -0.0960    4.6700 hc        1 C61      0.101000
     70 H281       -0.9040   -2.6850    5.6550 hc        1 C61      0.084000
     71 H282       -2.0260   -1.6730    6.2160 hc        1 C61      0.084000
     72 H283       -2.2730   -2.4330    4.8260 hc        1 C61      0.084000
     73 H31        -0.3640    0.2800    7.1380 hn        1 C61      0.216000
     74 H321        1.8980   -1.2420    7.4070 h1        1 C61      0.103000
     75 H322        2.1830    0.3240    7.4010 h1        1 C61      0.103000
     76 H331        0.2990   -0.7650    9.2690 hc        1 C61      0.083000
     77 H332        1.0210    0.6760    9.3850 hc        1 C61      0.083000
     78 H341        2.3470   -1.8510    9.7190 hc        1 C61      0.082000
     79 H342        3.0830   -0.4460    9.7970 hc        1 C61      0.082000
     80 H351        1.0510   -1.2980   11.5830 hc        1 C61      0.073667
     81 H352        1.7840    0.1450   11.6520 hc        1 C61      0.073667
     82 H353        2.6270   -1.2020   11.9550 hc        1 C61      0.073667
@<TRIPOS>BOND
     1    1    2 1   
     2    1   35 1   
     3    1   36 1   
     4    1   37 1   
     5    2    3 1   
     6    3    4 1   
     7    3   38 1   
     8    3   39 1   
     9    4    5 1   
    10    4   40 1   
    11    4   41 1   
    12    5    6 1   
    13    5   42 1   
    14    5   43 1   
    15    6   10 1   
    16    7    8 1   
    17    7   11 1   
    18    8   44 1   
    19    8   45 1   
    20    8   46 1   
    21    9   14 1   
    22    9   47 1   
    23   10   11 1   
    24   11   12 1   
    25   12   13 1   
    26   12   48 1   
    27   13   49 1   
    28   14   15 1   
    29   15   16 1   
    30   15   50 1   
    31   15   51 1   
    32   16   17 1   
    33   16   20 1   
    34   16   52 1   
    35   17   18 1   
    36   17   19 1   
    37   17   53 1   
    38   18   56 1   
    39   18   57 1   
    40   18   58 1   
    41   19   59 1   
    42   19   60 1   
    43   19   61 1   
    44   20   21 1   
    45   20   54 1   
    46   20   55 1   
    47   21   22 1   
    48   21   23 1   
    49   21   62 1   
    50   22   63 1   
    51   22   64 1   
    52   23   24 1   
    53   23   25 1   
    54   23   65 1   
    55   24   66 1   
    56   25   26 1   
    57   25   67 1   
    58   25   68 1   
    59   26   27 1   
    60   26   28 1   
    61   26   69 1   
    62   27   70 1   
    63   27   71 1   
    64   27   72 1   
    65   28   29 1   
    66   28   30 1   
    67   30   31 1   
    68   30   73 1   
    69   31   32 1   
    70   31   74 1   
    71   31   75 1   
    72   32   33 1   
    73   32   76 1   
    74   32   77 1   
    75   33   34 1   
    76   33   78 1   
    77   33   79 1   
    78   34   80 1   
    79   34   81 1   
    80   34   82 1   
@<TRIPOS>SUBSTRUCTURE
     1 C61         1 TEMP              0 ****  ****    0 ROOT
