@<TRIPOS>MOLECULE
C61
   82    82     1     0     0
SMALL
bcc


@<TRIPOS>ATOM
      1 C2         -9.6700    1.8990   -3.6220 c3        1 C61      0.116700
      2 O3         -9.1890    0.8670   -2.7810 os        1 C61     -0.418600
      3 C4         -7.8050    1.0160   -2.4690 c3        1 C61      0.129400
      4 C5         -7.4360   -0.1490   -1.5710 c3        1 C61     -0.089400
      5 C6         -5.9670   -0.0560   -1.1970 c3        1 C61      0.127400
      6 O7         -5.7140   -1.1830   -0.3500 os        1 C61     -0.305900
      7 C9         -5.0110   -4.4470    1.8900 c3        1 C61      0.110700
      8 C10        -3.3740   -0.4320   -0.1940 ca        1 C61     -0.180000
      9 C11        -4.4100   -1.3230    0.0820 ca        1 C61      0.105100
     10 C12        -4.1590   -2.4780    0.8720 ca        1 C61      0.096100
     11 C13        -2.8740   -2.7080    1.3630 ca        1 C61     -0.175000
     12 C14        -1.8460   -1.8090    1.0760 ca        1 C61     -0.128000
     13 C15        -2.0840   -0.6720    0.3040 ca        1 C61     -0.068300
     14 C16        -0.9690    0.2540   -0.0360 c3        1 C61     -0.033100
     15 C17        -0.3810    0.9970    1.1620 c3        1 C61     -0.050700
     16 C18        -1.2580    2.1350    1.6940 c3        1 C61     -0.055700
     17 C19        -1.8000    3.0340    0.6030 c3        1 C61     -0.092600
     18 C20        -2.3900    1.6160    2.5560 c3        1 C61     -0.092600
     19 C21         1.0040    1.5310    0.7950 c3        1 C61     -0.074400
     20 C22         2.1020    1.0880    1.7750 c3        1 C61      0.139500
     21 N23         1.8460    1.5100    3.1360 n3        1 C61     -0.907800
     22 C24         3.4670    1.5480    1.1890 c3        1 C61      0.088100
     23 O25         3.5620    2.9620    1.1300 oh        1 C61     -0.595800
     24 C26         4.6350    0.9400    1.9570 c3        1 C61     -0.103400
     25 C27         5.9520    1.1550    1.2260 c3        1 C61     -0.135700
     26 C28         7.1250    0.8940    2.1470 c3        1 C61     -0.093100
     27 C29         6.0470    0.2330    0.0100 c         1 C61      0.658100
     28 O30         5.3120   -0.7660   -0.1210 o         1 C61     -0.613100
     29 N31         6.9680    0.5790   -0.9610 n         1 C61     -0.566900
     30 C32         7.2410   -0.2460   -2.1040 c3        1 C61      0.084000
     31 C33         8.6320   -0.8840   -2.1070 c3        1 C61     -0.104400
     32 C34         8.8300   -1.6860   -3.3760 c3        1 C61     -0.078400
     33 C35        10.1920   -2.3290   -3.4120 c3        1 C61     -0.093100
     34 H2C1       -9.1240    1.9010   -4.5980 h1        1 C61      0.032700
     35 H2C2      -10.7500    1.6520   -3.7770 h1        1 C61      0.032700
     36 H2C3       -9.5630    2.8960   -3.1260 h1        1 C61      0.032700
     37 H4C1       -7.2030    1.0040   -3.4170 h1        1 C61      0.025700
     38 H4C2       -7.6410    1.9970   -1.9470 h1        1 C61      0.025700
     39 H5C1       -8.0690   -0.1380   -0.6470 hc        1 C61      0.073700
     40 H5C2       -7.6370   -1.1180   -2.0970 hc        1 C61      0.073700
     41 H6C1       -5.3130   -0.1110   -2.1070 h1        1 C61      0.036200
     42 H6C2       -5.7530    0.8910   -0.6360 h1        1 C61      0.036200
     43 H9C1       -4.2610   -5.1190    1.4090 h1        1 C61      0.042700
     44 H9C2       -4.6730   -4.1520    2.9130 h1        1 C61      0.042700
     45 H9C3       -6.0140   -4.9430    1.9340 h1        1 C61      0.042700
     46 H13        -2.6610   -3.5960    1.9750 ha        1 C61      0.138000
     47 H14        -0.8350   -2.0030    1.4660 ha        1 C61      0.136000
     48 H161       -0.1530   -0.3660   -0.5040 hc        1 C61      0.047700
     49 H162       -1.3000    0.9940   -0.8120 hc        1 C61      0.047700
     50 H17        -0.2720    0.2460    1.9980 hc        1 C61      0.068700
     51 H18        -0.5980    2.7670    2.3610 hc        1 C61      0.041700
     52 H211        1.3050    1.1650   -0.2230 hc        1 C61      0.050200
     53 H212        0.9970    2.6520    0.7400 hc        1 C61      0.050200
     54 H191       -2.6140    2.5220    0.0340 hc        1 C61      0.034033
     55 H192       -2.2230    3.9650    1.0520 hc        1 C61      0.034033
     56 H193       -0.9910    3.3200   -0.1120 hc        1 C61      0.034033
     57 H201       -1.9870    1.0340    3.4200 hc        1 C61      0.034033
     58 H202       -2.9920    2.4690    2.9520 hc        1 C61      0.034033
     59 H203       -3.0640    0.9500    1.9640 hc        1 C61      0.034033
     60 H22         2.1260   -0.0440    1.7910 h1        1 C61      0.071700
     61 H231        2.6390    1.3230    3.7170 hn        1 C61      0.347300
     62 H232        1.6280    2.4860    3.1750 hn        1 C61      0.347300
     63 H24         3.5240    1.2270    0.1090 h1        1 C61      0.096700
     64 H25         3.5910    3.2930    2.0350 ho        1 C61      0.388000
     65 H261        4.7120    1.4070    2.9740 hc        1 C61      0.059700
     66 H262        4.4530   -0.1600    2.0870 hc        1 C61      0.059700
     67 H27         5.9800    2.2280    0.8770 hc        1 C61      0.078700
     68 H281        7.0730    1.5710    3.0340 hc        1 C61      0.043033
     69 H282        7.1120   -0.1630    2.5080 hc        1 C61      0.043033
     70 H283        8.0920    1.0800    1.6210 hc        1 C61      0.043033
     71 H31         7.6070    1.3120   -0.7700 hn        1 C61      0.305500
     72 H321        6.4620   -1.0610   -2.1590 h1        1 C61      0.062700
     73 H322        7.1380    0.3960   -3.0270 h1        1 C61      0.062700
     74 H331        9.4220   -0.0920   -2.0370 hc        1 C61      0.043200
     75 H332        8.7480   -1.5550   -1.2170 hc        1 C61      0.043200
     76 H341        8.0370   -2.4780   -3.4460 hc        1 C61      0.042700
     77 H342        8.7070   -1.0150   -4.2670 hc        1 C61      0.042700
     78 H351       10.9960   -1.5550   -3.3680 hc        1 C61      0.034033
     79 H352       10.3250   -3.0210   -2.5450 hc        1 C61      0.034033
     80 H353       10.3180   -2.9160   -4.3540 hc        1 C61      0.034033
     81 H10        -3.5560    0.4680   -0.7990 ha        1 C61      0.138000
     82 O8         -5.2490   -3.2980    1.0860 os        1 C61     -0.304900
@<TRIPOS>BOND
     1    1    2 1   
     2    1   34 1   
     3    1   35 1   
     4    1   36 1   
     5    2    3 1   
     6    3    4 1   
     7    3   37 1   
     8    3   38 1   
     9    4    5 1   
    10    4   39 1   
    11    4   40 1   
    12    5    6 1   
    13    5   41 1   
    14    5   42 1   
    15    6    9 1   
    16    7   43 1   
    17    7   44 1   
    18    7   45 1   
    19    7   82 1   
    20    8    9 ar  
    21    8   13 ar  
    22    8   81 1   
    23    9   10 ar  
    24   10   11 ar  
    25   10   82 1   
    26   11   12 ar  
    27   11   46 1   
    28   12   13 ar  
    29   12   47 1   
    30   13   14 1   
    31   14   15 1   
    32   14   48 1   
    33   14   49 1   
    34   15   16 1   
    35   15   19 1   
    36   15   50 1   
    37   16   17 1   
    38   16   18 1   
    39   16   51 1   
    40   17   54 1   
    41   17   55 1   
    42   17   56 1   
    43   18   57 1   
    44   18   58 1   
    45   18   59 1   
    46   19   20 1   
    47   19   52 1   
    48   19   53 1   
    49   20   21 1   
    50   20   22 1   
    51   20   60 1   
    52   21   61 1   
    53   21   62 1   
    54   22   23 1   
    55   22   24 1   
    56   22   63 1   
    57   23   64 1   
    58   24   25 1   
    59   24   65 1   
    60   24   66 1   
    61   25   26 1   
    62   25   27 1   
    63   25   67 1   
    64   26   68 1   
    65   26   69 1   
    66   26   70 1   
    67   27   28 2   
    68   27   29 1   
    69   29   30 1   
    70   29   71 1   
    71   30   31 1   
    72   30   72 1   
    73   30   73 1   
    74   31   32 1   
    75   31   74 1   
    76   31   75 1   
    77   32   33 1   
    78   32   76 1   
    79   32   77 1   
    80   33   78 1   
    81   33   79 1   
    82   33   80 1   
@<TRIPOS>SUBSTRUCTURE
     1 C61         1 TEMP              0 ****  ****    0 ROOT
