@<TRIPOS>MOLECULE
C62
   34    36     1     0     0
SMALL
bcc


@<TRIPOS>ATOM
      1 O4         -0.0650    0.0360    0.0130 o         1 C62     -0.571800
      2 S2          1.3020    0.2140    0.0420 sy        1 C62      1.503200
      3 O3          2.0530   -0.1370    1.1440 o         1 C62     -0.571800
      4 N6          1.8190   -1.2290   -1.1520 nz        1 C62     -0.783500
      5 C16         1.8630    1.4160   -0.8210 ca        1 C62     -0.598500
      6 C15         1.0540    2.0780   -1.7800 ca        1 C62      0.022500
      7 C14         1.5120    3.1710   -2.4840 ca        1 C62     -0.156000
      8 C13         2.8160    3.6710   -2.2600 ca        1 C62      0.049500
      9 C18         3.6350    3.0280   -1.3040 ca        1 C62     -0.156000
     10 C17         3.1660    1.9340   -0.6080 ca        1 C62      0.022500
     11 C4          3.3010    4.8060   -2.9760 cc        1 C62      0.215200
     12 O2          2.4400    5.3710   -3.9370 os        1 C62     -0.344800
     13 C3          4.4940    5.5320   -2.9340 cd        1 C62     -0.145300
     14 C2          4.3800    6.5830   -3.8960 cd        1 C62     -0.237300
     15 C1          3.1200    6.4580   -4.4890 cc        1 C62      0.354500
     16 C6          2.4950    7.2420   -5.5080 ce        1 C62     -0.149800
     17 C7          1.2790    7.0620   -6.0560 cd        1 C62     -0.080600
     18 S1          0.0910    5.8870   -5.7510 ss        1 C62     -0.105200
     19 C9         -1.0460    6.5480   -6.9660 c         1 C62      0.721100
     20 N2         -0.4760    7.6670   -7.5770 ns        1 C62     -0.603500
     21 C8          0.8080    8.0110   -7.1240 c         1 C62      0.699700
     22 O1          1.4480    8.9700   -7.5630 o         1 C62     -0.541500
     23 O5         -2.1580    6.0960   -7.2320 o         1 C62     -0.519500
     24 H6N1        2.2890   -0.8890   -1.9840 hn        1 C62      0.451467
     25 H6N2        2.4470   -1.8720   -0.6750 hn        1 C62      0.451467
     26 H17         3.8120    1.4560    0.1540 ha        1 C62      0.167500
     27 H15         0.0210    1.7170   -1.9470 ha        1 C62      0.167500
     28 H18         4.6510    3.4130   -1.1120 ha        1 C62      0.178500
     29 H14         0.8630    3.6740   -3.2230 ha        1 C62      0.178500
     30 H3          5.3540    5.3440   -2.2920 ha        1 C62      0.179000
     31 H2          5.1330    7.3380   -4.1200 ha        1 C62      0.192000
     32 H6C1        3.1180    8.0920   -5.8650 ha        1 C62      0.190000
     33 HA         -0.9440    8.1910   -8.2830 hn        1 C62      0.370500
     34 H63         0.9980   -1.7540   -1.4440 hn        1 C62      0.451467
@<TRIPOS>BOND
     1    1    2 2   
     2    2    3 2   
     3    2    4 1   
     4    2    5 1   
     5    4   24 1   
     6    4   25 1   
     7    4   34 1   
     8    5    6 ar  
     9    5   10 ar  
    10    6    7 ar  
    11    6   27 1   
    12    7    8 ar  
    13    7   29 1   
    14    8    9 ar  
    15    8   11 1   
    16    9   10 ar  
    17    9   28 1   
    18   10   26 1   
    19   11   12 1   
    20   11   13 2   
    21   12   15 1   
    22   13   14 1   
    23   13   30 1   
    24   14   15 2   
    25   14   31 1   
    26   15   16 1   
    27   16   17 2   
    28   16   32 1   
    29   17   18 1   
    30   17   21 1   
    31   18   19 1   
    32   19   20 1   
    33   19   23 2   
    34   20   21 1   
    35   20   33 1   
    36   21   22 2   
@<TRIPOS>SUBSTRUCTURE
     1 C62         1 TEMP              0 ****  ****    0 ROOT
