@<TRIPOS>MOLECULE
C62
   34    36     1     0     0
SMALL
bcc


@<TRIPOS>ATOM
      1 O4         -0.0580    0.0420    0.0230 o         1 C62     -0.571800
      2 S2          1.3090    0.2170    0.0470 sy        1 C62      1.503200
      3 O3          2.0650   -0.1350    1.1460 o         1 C62     -0.571800
      4 N6          1.8200   -1.2270   -1.1490 n4        1 C62     -0.783500
      5 C16         1.8700    1.4180   -0.8190 ca        1 C62     -0.598500
      6 C15         1.0570    2.0810   -1.7740 ca        1 C62      0.022500
      7 C14         1.5140    3.1720   -2.4820 ca        1 C62     -0.156000
      8 C13         2.8190    3.6700   -2.2640 ca        1 C62      0.049500
      9 C18         3.6420    3.0270   -1.3110 ca        1 C62     -0.156000
     10 C17         3.1740    1.9340   -0.6110 ca        1 C62      0.022500
     11 C4          3.3030    4.8040   -2.9820 cc        1 C62      0.215200
     12 O2          2.4400    5.3700   -3.9400 os        1 C62     -0.344800
     13 C3          4.4980    5.5280   -2.9450 cd        1 C62     -0.145300
     14 C2          4.3810    6.5790   -3.9070 cd        1 C62     -0.237300
     15 C1          3.1190    6.4550   -4.4940 cc        1 C62      0.354500
     16 C6          2.4910    7.2400   -5.5120 ce        1 C62     -0.149800
     17 C7          1.2720    7.0620   -6.0550 cd        1 C62     -0.080600
     18 S1          0.0840    5.8880   -5.7450 ss        1 C62     -0.106200
     19 C9         -1.0560    6.5500   -6.9560 c         1 C62      0.721100
     20 N2         -0.4870    7.6680   -7.5700 n         1 C62     -0.603500
     21 C8          0.7990    8.0100   -7.1220 c         1 C62      0.699700
     22 O1          1.4380    8.9680   -7.5640 o         1 C62     -0.541500
     23 O5         -2.1710    6.0990   -7.2170 o         1 C62     -0.519500
     24 H6N1        2.2860   -0.8890   -1.9830 hn        1 C62      0.451467
     25 H6N2        2.4480   -1.8710   -0.6740 hn        1 C62      0.451467
     26 H17         3.8220    1.4550    0.1480 ha        1 C62      0.167500
     27 H15         0.0230    1.7210   -1.9380 ha        1 C62      0.167500
     28 H18         4.6590    3.4100   -1.1230 ha        1 C62      0.178500
     29 H14         0.8620    3.6760   -3.2180 ha        1 C62      0.178500
     30 H3          5.3600    5.3400   -2.3060 ha        1 C62      0.179000
     31 H2          5.1350    7.3330   -4.1340 ha        1 C62      0.192000
     32 H6C1        3.1140    8.0890   -5.8720 ha        1 C62      0.190000
     33 HA         -0.9570    8.1910   -8.2740 hn        1 C62      0.370500
     34 H63         0.9960   -1.7510   -1.4370 hn        1 C62      0.451467
@<TRIPOS>BOND
     1    1    2 2   
     2    2    3 2   
     3    2    4 1   
     4    2    5 1   
     5    4   24 1   
     6    4   25 1   
     7    4   34 1   
     8    5    6 ar  
     9    5   10 ar  
    10    6    7 ar  
    11    6   27 1   
    12    7    8 ar  
    13    7   29 1   
    14    8    9 ar  
    15    8   11 1   
    16    9   10 ar  
    17    9   28 1   
    18   10   26 1   
    19   11   12 1   
    20   11   13 2   
    21   12   15 1   
    22   13   14 1   
    23   13   30 1   
    24   14   15 2   
    25   14   31 1   
    26   15   16 1   
    27   16   17 2   
    28   16   32 1   
    29   17   18 1   
    30   17   21 1   
    31   18   19 1   
    32   19   20 1   
    33   19   23 2   
    34   20   21 1   
    35   20   33 1   
    36   21   22 2   
@<TRIPOS>SUBSTRUCTURE
     1 C62         1 TEMP              0 ****  ****    0 ROOT
