@<TRIPOS>MOLECULE
C62
   33    35     1     0     0
SMALL
bcc


@<TRIPOS>ATOM
      1 O4          5.1840   -2.0600    0.7870 o         1 C62     -0.655300
      2 S2          5.3240   -0.8490    0.0780 sy        1 C62      1.526200
      3 O3          6.2840    0.0770    0.5340 o         1 C62     -0.655300
      4 N6          5.5930   -1.1710   -1.4670 n3        1 C62     -1.027700
      5 C16         3.8160   -0.0730    0.0500 ca        1 C62     -0.370500
      6 C15         2.6300   -0.8120    0.1280 ca        1 C62     -0.020000
      7 C14         1.3900   -0.1810    0.1240 ca        1 C62     -0.133000
      8 C13         1.3170    1.2180    0.0450 ca        1 C62     -0.075500
      9 C18         2.5020    1.9690   -0.0210 ca        1 C62     -0.133000
     10 C17         3.7330    1.3220   -0.0180 ca        1 C62     -0.020000
     11 C4          0.0430    1.8960    0.0400 cc        1 C62      0.319200
     12 O2         -1.1060    1.0970    0.0190 os        1 C62     -0.345800
     13 C3         -0.3160    3.2400    0.0540 cd        1 C62     -0.241300
     14 C2         -1.7500    3.2900    0.0430 cd        1 C62     -0.201300
     15 C1         -2.2020    1.9730    0.0200 cc        1 C62      0.265500
     16 C6         -3.5290    1.4490   -0.0000 ce        1 C62     -0.094800
     17 C7         -3.9150    0.1600   -0.0380 cd        1 C62     -0.130600
     18 S1         -2.9850   -1.2700   -0.0740 ss        1 C62     -0.072200
     19 C9         -4.4070   -2.3320   -0.1150 c         1 C62      0.704100
     20 N2         -5.5770   -1.5620   -0.0980 n         1 C62     -0.611500
     21 C8         -5.3740   -0.1720   -0.0560 c         1 C62      0.705700
     22 O1         -6.3070    0.6400   -0.0370 o         1 C62     -0.574500
     23 O5         -4.4080   -3.5650   -0.1530 o         1 C62     -0.548500
     24 H6N1        5.3260   -2.0170   -1.9050 hn        1 C62      0.448800
     25 H6N2        6.0690   -0.5580   -2.0790 hn        1 C62      0.448800
     26 H17         4.6630    1.9170   -0.0500 ha        1 C62      0.157500
     27 H15         2.6820   -1.9120    0.2140 ha        1 C62      0.157500
     28 H18         2.4560    3.0670   -0.0730 ha        1 C62      0.151000
     29 H14         0.4640   -0.7740    0.1860 ha        1 C62      0.151000
     30 H3          0.3520    4.0980    0.0750 ha        1 C62      0.171000
     31 H2         -2.3600    4.1900    0.0510 ha        1 C62      0.172000
     32 H6C1       -4.3180    2.2330    0.0170 ha        1 C62      0.174000
     33 HA         -6.4850   -1.9630   -0.1130 hn        1 C62      0.357500
@<TRIPOS>BOND
     1    1    2 2   
     2    2    3 2   
     3    2    4 1   
     4    2    5 1   
     5    4   24 1   
     6    4   25 1   
     7    5    6 ar  
     8    5   10 ar  
     9    6    7 ar  
    10    6   27 1   
    11    7    8 ar  
    12    7   29 1   
    13    8    9 ar  
    14    8   11 1   
    15    9   10 ar  
    16    9   28 1   
    17   10   26 1   
    18   11   12 1   
    19   11   13 2   
    20   12   15 1   
    21   13   14 1   
    22   13   30 1   
    23   14   15 2   
    24   14   31 1   
    25   15   16 1   
    26   16   17 2   
    27   16   32 1   
    28   17   18 1   
    29   17   21 1   
    30   18   19 1   
    31   19   20 1   
    32   19   23 2   
    33   20   21 1   
    34   20   33 1   
    35   21   22 2   
@<TRIPOS>SUBSTRUCTURE
     1 C62         1 TEMP              0 ****  ****    0 ROOT
