@<TRIPOS>MOLECULE
C62
   33    26     1     0     0
SMALL
bcc


@<TRIPOS>ATOM
      1 O4         -2.5910   -5.2860    1.9290 o         1 C62     -0.934500
      2 S2         -2.5750   -4.1910    2.8580 ss        1 C62      2.865000
      3 O3         -3.9800   -3.9520    3.0320 o         1 C62     -0.934500
      4 N6         -1.8650   -4.6210    4.2720 n2        1 C62     -0.954000
      5 C16        -1.7620   -2.7760    2.1690 c1        1 C62     -0.815000
      6 C15        -0.6540   -2.9420    1.3540 c1        1 C62     -0.020000
      7 C14        -0.0350   -1.8370    0.7930 c1        1 C62     -0.129000
      8 C13        -0.5250   -0.5650    1.0460 c1        1 C62      0.032000
      9 C18        -1.6330   -0.3990    1.8610 c1        1 C62     -0.137000
     10 C17        -2.2520   -1.5040    2.4230 c2        1 C62     -0.021000
     11 C4          0.0980    0.5410    0.4900 c1        1 C62     -0.012500
     12 O2         -0.2270    1.1340   -0.7020 os        1 C62     -0.088000
     13 C3          1.1090    1.2800    1.0720 c1        1 C62     -0.154500
     14 C2          1.4020    2.3230    0.2390 c1        1 C62     -0.154500
     15 C1          0.5750    2.2340   -0.8620 c1        1 C62     -0.012500
     16 C6          0.5110    3.2230   -2.0070 c1        1 C62      0.026000
     17 C7          1.3660    3.1110   -3.0450 c1        1 C62     -0.359000
     18 S1          2.4900    2.0060   -3.2130 s         1 C62      0.312000
     19 C9          3.2520    2.2930   -4.6200 c2        1 C62      0.189000
     20 N2          2.6130    3.5100   -5.2590 n         1 C62     -0.391000
     21 C8          1.4240    4.0380   -4.2810 c2        1 C62      0.349000
     22 O1          0.7080    4.9970   -4.4860 o         1 C62     -0.293000
     23 O5          4.1480    1.6250   -5.0960 o         1 C62     -0.271000
     24 H6N1       -1.2890   -5.3290    4.2970 hn        1 C62      0.244000
     25 H6N2       -2.0510   -4.1560    5.0360 hn        1 C62      0.244000
     26 H17        -3.0340   -1.3870    2.9970 ha        1 C62      0.158000
     27 H15        -0.3090   -3.8380    1.1760 ha        1 C62      0.158000
     28 H18        -1.9780    0.4970    2.0400 ha        1 C62      0.144000
     29 H14         0.7460   -1.9540    0.2190 ha        1 C62      0.157000
     30 H3          1.5380    1.0910    1.9270 DU        1 C62      0.174500
     31 H2          2.0780    3.0080    0.3950 DU        1 C62      0.174500
     32 H6C1       -0.1500    3.9420   -1.9950 ha        1 C62      0.181000
     33 HA          2.8530    3.8830   -6.0560 hn        1 C62      0.271000
@<TRIPOS>BOND
     1    1    2 1   
     2    2    3 1   
     3    4   24 1   
     4    4   25 1   
     5    5    6 1   
     6    5   10 1   
     7    6   27 1   
     8    7    8 1   
     9    7   29 1   
    10    9   10 1   
    11    9   28 1   
    12   10   26 1   
    13   11   12 1   
    14   11   13 1   
    15   12   15 1   
    16   13   14 1   
    17   14   15 1   
    18   16   17 1   
    19   16   32 1   
    20   17   21 1   
    21   18   19 1   
    22   19   20 1   
    23   19   23 1   
    24   20   21 1   
    25   20   33 1   
    26   21   22 1   
@<TRIPOS>SUBSTRUCTURE
     1 C62         1 TEMP              0 ****  ****    0 ROOT
