@<TRIPOS>MOLECULE
C63
   68    64     1     0     0
SMALL
bcc


@<TRIPOS>ATOM
      1 P5          1.1610   -1.2780    1.5900 p5        1 C63      2.001000
      2 O11         2.5840   -1.5940    1.8510 o         1 C63     -0.868000
      3 C6         -1.1130   -0.8320    2.7060 c3        1 C63     -0.190000
      4 C7          0.3410   -0.9530    3.0450 c3        1 C63     -0.766000
      5 C8          0.9560    0.2470    3.7200 c3        1 C63     -0.118000
      6 C9          0.1820    1.5450    3.5860 c3        1 C63     -0.162000
      7 C10         0.8950    2.6750    4.2860 c3        1 C63     -0.206000
      8 O4          0.5760   -2.7880    1.2130 oh        1 C63     -0.852000
      9 C3         -1.0640   -1.3030   -1.7260 cu        1 C63     -0.217000
     10 C2         -2.2310   -1.8690   -1.9890 cu        1 C63     -0.217000
     11 O13        -0.7100   -3.7880   -1.4100 oh        1 C63     -0.373000
     12 C14        -2.3880   -7.9510   -5.2130 c3        1 C63     -0.225000
     13 C15        -1.9780   -8.3660   -1.6040 c3        1 C63     -0.222000
     14 C16        -2.5100   -7.6620   -0.3820 c3        1 C63     -0.134000
     15 C17        -1.5200   -6.6380    0.1370 c3        1 C63     -0.220000
     16 C1         -1.0200   -2.7040   -2.2350 cx        1 C63      0.010000
     17 O20        -0.1700   -6.0500   -3.4280 oh        1 C63     -0.354000
     18 C21         0.1810   -5.2220   -4.5120 c3        1 C63     -0.066000
     19 C22        -3.3120   -7.1220   -6.0670 c3        1 C63     -0.152000
     20 C23        -2.5660   -6.3020   -7.1030 c3        1 C63     -0.136000
     21 C24        -2.1020   -7.1210   -8.2480 c2        1 C63     -0.152000
     22 C25        -2.1950   -6.7330   -9.5230 c2        1 C63     -0.188000
     23 C26        -1.7150   -7.5350  -10.6650 c3        1 C63     -0.180000
     24 H2         -1.2500   -0.0280    1.9400 hc        1 C63      0.072000
     25 H3         -1.4540   -1.7990    2.2560 hc        1 C63      0.072000
     26 H4          0.4750   -1.8310    3.7310 hc        1 C63      0.106000
     27 H5         -1.7460   -0.6060    3.5970 hc        1 C63      0.072000
     28 H6          1.0770    0.0400    4.8190 hc        1 C63      0.073500
     29 H7         -0.8420    1.4190    4.0290 hc        1 C63      0.084000
     30 H8          0.0440    1.8060    2.5030 hc        1 C63      0.084000
     31 H9          1.9940    0.3910    3.3070 hc        1 C63      0.073500
     32 H10         1.0170    2.4540    5.3740 hc        1 C63      0.061000
     33 H11         0.3170    3.6240    4.1820 hc        1 C63      0.061000
     34 H12         1.9100    2.8290    3.8460 hc        1 C63      0.061000
     35 H13        -0.4480   -0.5120   -1.3180 ha        1 C63      0.214500
     36 H14         1.2700   -3.4370    1.2280 ho        1 C63      0.226000
     37 H15        -3.2980   -1.8480   -2.0120 ha        1 C63      0.214500
     38 H16        -0.4600   -3.4480   -0.5340 ho        1 C63      0.253000
     39 H17        -2.9660   -8.4860   -4.4200 hc        1 C63      0.081333
     40 H18        -2.7520   -9.0500   -2.0290 hc        1 C63      0.071333
     41 H19        -1.6260   -7.3020   -4.7080 hc        1 C63      0.081333
     42 H20        -3.4770   -7.1490   -0.6240 hc        1 C63      0.077500
     43 H21        -1.0750   -8.9720   -1.3480 hc        1 C63      0.071333
     44 H22        -1.6870   -7.6270   -2.3930 hc        1 C63      0.071333
     45 H23        -2.7280   -8.4120    0.4240 hc        1 C63      0.077500
     46 H25        -0.6880   -2.9650   -3.2610 h1        1 C63      0.105000
     47 H26         1.0330   -4.5470   -4.2470 h1        1 C63      0.061333
     48 H27        -0.3570   -5.4720   -2.6720 ho        1 C63      0.234000
     49 H28        -0.6960   -4.6060   -4.8400 h1        1 C63      0.061333
     50 H29        -3.8890   -6.4200   -5.4070 hc        1 C63      0.076500
     51 H30         0.4820   -5.9190   -5.3340 h1        1 C63      0.061333
     52 H31        -1.6690   -5.8230   -6.6160 hc        1 C63      0.087500
     53 H32        -1.8510   -8.7100   -5.8300 hc        1 C63      0.081333
     54 H33        -4.0570   -7.7850   -6.5780 hc        1 C63      0.076500
     55 H34        -3.2300   -5.4710   -7.4620 hc        1 C63      0.087500
     56 H35        -2.6480   -5.7630   -9.7900 ha        1 C63      0.116000
     57 H36        -1.6520   -8.0920   -7.9780 ha        1 C63      0.121000
     58 H37        -1.2730   -8.5070  -10.3350 hc        1 C63      0.074333
     59 H38        -0.9330   -6.9680  -11.2300 hc        1 C63      0.074333
     60 H39        -2.5600   -7.7520  -11.3650 hc        1 C63      0.074333
     61 O12         0.7040   -0.3840    0.4980 o         1 C63     -0.868000
     62 C18        -2.0110   -5.9330    1.3100 c1        1 C63     -0.082000
     63 C19        -1.0840   -5.2320    2.1630 c3        1 C63     -0.287000
     64 H24        -0.5180   -7.1290    0.2930 hc        1 C63      0.114500
     65 H40        -1.3610   -5.8380   -0.6540 hc        1 C63      0.114500
     66 H41        -1.0770   -4.1500    1.8170 hc        1 C63      0.114000
     67 H42        -1.4430   -5.2390    3.2230 hc        1 C63      0.114000
     68 H43        -0.0200   -5.5850    2.1350 hc        1 C63      0.114000
@<TRIPOS>BOND
     1    1    2 1   
     2    1    4 1   
     3    1    8 1   
     4    1   61 1   
     5    3    4 1   
     6    3   24 1   
     7    3   25 1   
     8    3   27 1   
     9    4    5 1   
    10    4   26 1   
    11    5    6 1   
    12    5   28 1   
    13    5   31 1   
    14    6    7 1   
    15    6   29 1   
    16    6   30 1   
    17    7   32 1   
    18    7   33 1   
    19    7   34 1   
    20    8   36 1   
    21    9   10 1   
    22    9   16 1   
    23    9   35 1   
    24   10   16 1   
    25   10   37 1   
    26   11   16 1   
    27   11   38 1   
    28   12   19 1   
    29   12   39 1   
    30   12   41 1   
    31   12   53 1   
    32   13   14 1   
    33   13   40 1   
    34   13   43 1   
    35   13   44 1   
    36   14   15 1   
    37   14   42 1   
    38   14   45 1   
    39   15   62 1   
    40   15   64 1   
    41   15   65 1   
    42   16   46 1   
    43   17   18 1   
    44   17   48 1   
    45   18   47 1   
    46   18   49 1   
    47   18   51 1   
    48   19   20 1   
    49   19   50 1   
    50   19   54 1   
    51   20   21 1   
    52   20   52 1   
    53   20   55 1   
    54   21   22 1   
    55   21   57 1   
    56   22   23 1   
    57   22   56 1   
    58   23   58 1   
    59   23   59 1   
    60   23   60 1   
    61   62   63 1   
    62   63   66 1   
    63   63   67 1   
    64   63   68 1   
@<TRIPOS>SUBSTRUCTURE
     1 C63         1 TEMP              0 ****  ****    0 ROOT
