@<TRIPOS>MOLECULE
C64
   39    42     1     0     0
SMALL
bcc


@<TRIPOS>ATOM
      1 O           1.3440    2.0270   -1.0260 o         1 C64     -0.401100
      2 S           3.1730   -2.5160    3.3540 ss        1 C64      0.224700
      3 BR          0.1480   -0.9460   -6.6970 br        1 C64     -0.007100
      4 C1         -1.1050    2.1570    2.8930 ca        1 C64     -0.140000
      5 N1          0.7120    0.4910    2.1550 na        1 C64     -0.198300
      6 C2          1.7000   -0.8050   -2.8570 ca        1 C64     -0.096500
      7 N2          2.5910   -1.6140    1.0220 nc        1 C64     -0.747000
      8 C3         -2.0610    2.3540    3.8870 ca        1 C64     -0.083000
      9 N3          0.4870   -0.9590    3.9580 nc        1 C64     -0.504100
     10 C4          0.5990   -0.3780   -2.0940 ca        1 C64     -0.033400
     11 N4          0.7390   -0.2180   -0.6480 n4        1 C64     -0.553200
     12 C5          1.5560   -0.9730   -4.2310 ca        1 C64     -0.085000
     13 C6          1.1830   -0.6860    2.8440 cd        1 C64      0.353800
     14 C7          4.0480   -3.0880    2.0820 cd        1 C64     -0.291400
     15 C8          2.2580   -1.5250    2.3340 cd        1 C64      0.279100
     16 C9         -1.4290    0.3150    5.0720 ca        1 C64     -0.048000
     17 C10        -0.3030    1.0200    2.9960 ca        1 C64     -0.083200
     18 C11        -0.4530    0.0880    4.0950 ca        1 C64      0.070400
     19 C12        -0.6360   -0.1180   -2.7130 ca        1 C64     -0.096500
     20 C13         1.1950    1.1430   -0.1990 c         1 C64      0.517100
     21 C14        -2.2200    1.4530    4.9500 ca        1 C64     -0.130000
     22 C15         3.6180   -2.5100    0.8810 cc        1 C64      0.351200
     23 C16        -0.7620   -0.2920   -4.0880 ca        1 C64     -0.085000
     24 C17         1.5010    1.3030    1.2950 c3        1 C64     -0.016700
     25 C18         0.3290   -0.7190   -4.8550 ca        1 C64      0.010100
     26 H1         -0.9920    2.8760    2.0710 ha        1 C64      0.142000
     27 H2          2.6770   -1.0090   -2.3880 ha        1 C64      0.156000
     28 H3         -2.7080    3.2460    3.8390 ha        1 C64      0.155000
     29 HN4        -0.1660   -0.4160   -0.2040 hn        1 C64      0.490300
     30 H5          2.4250   -1.3080   -4.8240 ha        1 C64      0.177500
     31 H7          4.8550   -3.8210    2.1510 h4        1 C64      0.211000
     32 H9         -1.5610   -0.3890    5.9070 ha        1 C64      0.169000
     33 H12        -1.5090    0.2220   -2.1320 ha        1 C64      0.156000
     34 H14        -2.9930    1.6550    5.7100 ha        1 C64      0.159000
     35 H15         4.0290   -2.7180   -0.1150 h4        1 C64      0.057100
     36 H16        -1.7360   -0.0870   -4.5670 ha        1 C64      0.177500
     37 H17         2.6050    1.0800    1.4090 h1        1 C64      0.126200
     38 H17A        1.3310    2.4010    1.5240 h1        1 C64      0.126200
     39 H42         1.4420   -0.9140   -0.2810 hn        1 C64      0.490300
@<TRIPOS>BOND
     1    1   20 2   
     2    2   14 1   
     3    2   15 1   
     4    3   25 1   
     5    4    8 ar  
     6    4   17 ar  
     7    4   26 1   
     8    5   13 1   
     9    5   17 1   
    10    5   24 1   
    11    6   10 ar  
    12    6   12 ar  
    13    6   27 1   
    14    7   15 2   
    15    7   22 1   
    16    8   21 ar  
    17    8   28 1   
    18    9   13 2   
    19    9   18 1   
    20   10   11 1   
    21   10   19 ar  
    22   11   20 1   
    23   11   29 1   
    24   11   39 1   
    25   12   25 ar  
    26   12   30 1   
    27   13   15 1   
    28   14   22 2   
    29   14   31 1   
    30   16   18 ar  
    31   16   21 ar  
    32   16   32 1   
    33   17   18 ar  
    34   19   23 ar  
    35   19   33 1   
    36   20   24 1   
    37   21   34 1   
    38   22   35 1   
    39   23   25 ar  
    40   23   36 1   
    41   24   37 1   
    42   24   38 1   
@<TRIPOS>SUBSTRUCTURE
     1 C64         1 TEMP              0 ****  ****    0 ROOT
