@<TRIPOS>MOLECULE
C64
   38    41     1     0     0
SMALL
bcc


@<TRIPOS>ATOM
      1 O          -0.2650    1.5230   -2.7080 o         1 C64     -0.593100
      2 S           4.1680   -3.0370   -0.0950 ss        1 C64      0.083700
      3 BR         -6.1660   -0.2150    0.6140 br        1 C64     -0.092100
      4 C1          2.8800    3.1580   -0.4550 ca        1 C64     -0.128000
      5 N1          2.6450    0.6370   -0.8900 na        1 C64     -0.148300
      6 C2         -2.6050    0.8240   -1.2480 ca        1 C64     -0.171000
      7 N2          1.9420   -2.3460   -1.1930 nc        1 C64     -0.652000
      8 C3          3.4930    4.0510    0.4100 ca        1 C64     -0.106000
      9 N3          3.9820   -0.0710    0.8580 nc        1 C64     -0.557100
     10 C4         -1.6390    0.0350   -0.5890 ca        1 C64      0.083600
     11 N4         -0.2690    0.0730   -0.8930 n         1 C64     -0.447100
     12 C5         -3.9450    0.7430   -0.8840 ca        1 C64     -0.078000
     13 C6          3.2140   -0.4590   -0.1890 cd        1 C64      0.365800
     14 C7          3.2520   -4.2350   -0.7790 cd        1 C64     -0.289400
     15 C8          3.0150   -1.8580   -0.5400 cd        1 C64      0.321100
     16 C9          4.5350    2.2720    1.7170 ca        1 C64     -0.068000
     17 C10         3.0980    1.7920   -0.2290 ca        1 C64     -0.068200
     18 C11         3.9340    1.3320    0.8650 ca        1 C64      0.068400
     19 C12        -2.0710   -0.8340    0.4450 ca        1 C64     -0.171000
     20 C13         0.3380    0.7850   -1.9070 c         1 C64      0.653100
     21 C14         4.3050    3.6160    1.4750 ca        1 C64     -0.148000
     22 C15         2.0830   -3.7080   -1.3300 cc        1 C64      0.337200
     23 C16        -3.4130   -0.9020    0.7960 ca        1 C64     -0.078000
     24 C17         1.8650    0.6380   -2.0830 c3        1 C64     -0.027700
     25 C18        -4.3600   -0.1160    0.1350 ca        1 C64     -0.057900
     26 H1          2.2430    3.5040   -1.2800 ha        1 C64      0.148000
     27 H2         -2.3140    1.5130   -2.0590 ha        1 C64      0.157500
     28 H3          3.3420    5.1310    0.2630 ha        1 C64      0.138000
     29 HN4         0.3020   -0.5370   -0.3490 hn        1 C64      0.337500
     30 H5         -4.6780    1.3710   -1.4170 ha        1 C64      0.147000
     31 H7          3.5210   -5.2900   -0.7960 h4        1 C64      0.189000
     32 H9          5.1680    1.9380    2.5520 ha        1 C64      0.150000
     33 H12        -1.3480   -1.4660    0.9830 ha        1 C64      0.157500
     34 H14         4.7650    4.3700    2.1310 ha        1 C64      0.137000
     35 H15         1.2950   -4.2740   -1.8420 h4        1 C64      0.052100
     36 H16        -3.7210   -1.5860    1.6030 ha        1 C64      0.147000
     37 H17         2.1850    1.5190   -2.7170 h1        1 C64      0.101200
     38 H17A        2.0450   -0.3060   -2.6730 h1        1 C64      0.101200
@<TRIPOS>BOND
     1    1   20 2   
     2    2   14 1   
     3    2   15 1   
     4    3   25 1   
     5    4    8 ar  
     6    4   17 ar  
     7    4   26 1   
     8    5   13 1   
     9    5   17 1   
    10    5   24 1   
    11    6   10 ar  
    12    6   12 ar  
    13    6   27 1   
    14    7   15 2   
    15    7   22 1   
    16    8   21 ar  
    17    8   28 1   
    18    9   13 2   
    19    9   18 1   
    20   10   11 1   
    21   10   19 ar  
    22   11   20 1   
    23   11   29 1   
    24   12   25 ar  
    25   12   30 1   
    26   13   15 1   
    27   14   22 2   
    28   14   31 1   
    29   16   18 ar  
    30   16   21 ar  
    31   16   32 1   
    32   17   18 ar  
    33   19   23 ar  
    34   19   33 1   
    35   20   24 1   
    36   21   34 1   
    37   22   35 1   
    38   23   25 ar  
    39   23   36 1   
    40   24   37 1   
    41   24   38 1   
@<TRIPOS>SUBSTRUCTURE
     1 C64         1 TEMP              0 ****  ****    0 ROOT
