@<TRIPOS>MOLECULE
C64
   38    41     1     0     0
SMALL
bcc


@<TRIPOS>ATOM
      1 O           2.4230    1.8860   -0.5390 o         1 C64     -0.593100
      2 S           1.5120   -3.7780    3.2540 ss        1 C64      0.083700
      3 Br         -0.9810    0.1970   -6.4070 br        1 C64     -0.092100
      4 C1          0.1910    2.4130    2.9750 ca        1 C64     -0.128000
      5 N1          1.2070    0.1530    2.3010 na        1 C64     -0.148300
      6 C2          0.9370    1.1710   -2.8570 ca        1 C64     -0.171000
      7 N2          2.1580   -2.5200    1.1000 nc        1 C64     -0.652000
      8 C3         -0.7960    2.9550    3.7840 ca        1 C64     -0.106000
      9 N3         -0.1580   -1.1680    3.6210 nc        1 C64     -0.557100
     10 C4          0.6040    0.1060   -1.9930 ca        1 C64      0.083600
     11 N4          1.0360    0.0270   -0.6600 ns        1 C64     -0.447100
     12 C5          0.4620    1.1890   -4.1650 ca        1 C64     -0.078000
     13 C6          0.8630   -1.1580    2.7300 cd        1 C64      0.365800
     14 C7          2.3680   -4.6150    2.1090 cd        1 C64     -0.289400
     15 C8          1.5250   -2.3740    2.2810 cd        1 C64      0.321100
     16 C9         -1.5040    0.7690    4.6070 ca        1 C64     -0.068000
     17 C10         0.3340    1.0190    2.9810 ca        1 C64     -0.068200
     18 C11        -0.5150    0.1780    3.8030 ca        1 C64      0.068400
     19 C12        -0.2200   -0.9340   -2.4930 ca        1 C64     -0.171000
     20 C13         1.9000    0.8850   -0.0140 c         1 C64      0.653100
     21 C14        -1.6270    2.1480    4.5840 ca        1 C64     -0.148000
     22 C15         2.6400   -3.8040    1.0060 cc        1 C64      0.337200
     23 C16        -0.6860   -0.9000   -3.8000 ca        1 C64     -0.078000
     24 C17         2.2720    0.5740    1.4530 c3        1 C64     -0.027700
     25 C18        -0.3490    0.1600   -4.6460 ca        1 C64     -0.057900
     26 H1          0.8320    3.0490    2.3480 ha        1 C64      0.148000
     27 H2          1.5760    2.0000   -2.5110 ha        1 C64      0.157500
     28 H3         -0.9370    4.0470    3.8020 ha        1 C64      0.138000
     29 HN4         0.7250   -0.7790   -0.1620 hn        1 C64      0.337500
     30 H5          0.7380    2.0330   -4.8180 ha        1 C64      0.147000
     31 H7          2.6730   -5.6570    2.2000 h4        1 C64      0.189000
     32 H9         -2.1570    0.1440    5.2320 ha        1 C64      0.150000
     33 H12        -0.5010   -1.7830   -1.8500 ha        1 C64      0.157500
     34 H14        -2.3950    2.6330    5.2050 ha        1 C64      0.137000
     35 H15         3.1880   -4.1010    0.1030 h4        1 C64      0.052100
     36 H16        -1.3250   -1.7210   -4.1630 ha        1 C64      0.147000
     37 H17         2.7000    1.5340    1.8700 h1        1 C64      0.101200
     38 H17A        3.0910   -0.2000    1.4340 h1        1 C64      0.101200
@<TRIPOS>BOND
     1    1   20 2   
     2    2   14 1   
     3    2   15 1   
     4    3   25 1   
     5    4    8 ar  
     6    4   17 ar  
     7    4   26 1   
     8    5   13 1   
     9    5   17 1   
    10    5   24 1   
    11    6   10 ar  
    12    6   12 ar  
    13    6   27 1   
    14    7   15 2   
    15    7   22 1   
    16    8   21 ar  
    17    8   28 1   
    18    9   13 2   
    19    9   18 1   
    20   10   11 1   
    21   10   19 ar  
    22   11   20 1   
    23   11   29 1   
    24   12   25 ar  
    25   12   30 1   
    26   13   15 1   
    27   14   22 2   
    28   14   31 1   
    29   16   18 ar  
    30   16   21 ar  
    31   16   32 1   
    32   17   18 ar  
    33   19   23 ar  
    34   19   33 1   
    35   20   24 1   
    36   21   34 1   
    37   22   35 1   
    38   23   25 ar  
    39   23   36 1   
    40   24   37 1   
    41   24   38 1   
@<TRIPOS>SUBSTRUCTURE
     1 C64         1 TEMP              0 ****  ****    0 ROOT
