@<TRIPOS>MOLECULE
C64
   38    32     1     0     0
SMALL
bcc


@<TRIPOS>ATOM
      1 O          -0.5700    0.1530   -0.9590 o         1 C64     -0.354000
      2 S          -1.9590   -2.9870    2.1780 ss        1 C64      0.668000
      3 BR         -1.2260    0.5790   -7.5880 br        1 C64      0.048000
      4 C1          0.7740    2.5630    1.9650 c1        1 C64     -0.112500
      5 N1          0.4200    0.1120    1.4670 n2        1 C64     -0.152000
      6 C2          1.0270    1.1270   -4.1460 c1        1 C64     -0.182000
      7 N2          0.1770   -2.8600    3.2730 n2        1 C64     -0.126000
      8 C3          0.4040    3.5910    2.8160 c1        1 C64     -0.112500
      9 N3         -1.0250   -0.2630    3.0830 n2        1 C64     -0.152000
     10 C4          0.7310    0.0180   -3.3700 c1        1 C64      0.091000
     11 N4          1.3730   -0.1640   -2.1170 n2        1 C64     -0.301000
     12 C5          0.4440    1.2750   -5.3950 c1        1 C64     -0.078000
     13 C6         -0.3520   -0.8410    2.0530 c2        1 C64      0.069000
     14 C7         -1.6890   -4.3590    2.7850 c1        1 C64     -0.494000
     15 C8         -0.7530   -2.0840    2.5150 c2        1 C64     -0.286000
     16 C9         -1.0470    2.0900    4.0000 c1        1 C64     -0.112500
     17 C10         0.2260    1.2770    2.1330 c1        1 C64     -0.047000
     18 C11        -0.6710    1.0440    3.1350 c1        1 C64     -0.047000
     19 C12        -0.1490   -0.9440   -3.8430 c2        1 C64     -0.160000
     20 C13         0.6220   -0.0770   -0.9150 c2        1 C64      0.297000
     21 C14        -0.5060    3.3550    3.8340 c1        1 C64     -0.112500
     22 C15        -0.4090   -4.3050    3.4490 c1        1 C64     -0.128000
     23 C16        -0.7310   -0.7960   -5.0920 c1        1 C64     -0.078000
     24 C17         1.3080   -0.2650    0.4210 c2        1 C64     -0.037000
     25 C18        -0.4350    0.3140   -5.8680 c1        1 C64     -0.198000
     26 H1          1.4160    2.7300    1.2480 ha        1 C64      0.143250
     27 H2          1.6460    1.8050   -3.8130 ha        1 C64      0.138000
     28 H3          0.7840    4.4830    2.6990 ha        1 C64      0.143250
     29 HN4         2.2660   -0.3430   -2.0840 hn        1 C64      0.251000
     30 H5          0.6530    2.0570   -5.9410 ha        1 C64      0.146000
     31 H7         -2.2770   -5.1360    2.7340 DU        1 C64      0.189000
     32 H9         -1.6880    1.9230    4.7170 ha        1 C64      0.143250
     33 H12        -0.3570   -1.7260   -3.2970 ha        1 C64      0.177000
     34 H14        -0.7670    4.0790    4.4340 ha        1 C64      0.143250
     35 H15         0.0190   -5.0410    3.9260 DU        1 C64      0.189000
     36 H16        -1.3500   -1.4730   -5.4250 ha        1 C64      0.148000
     37 H17         1.5600   -1.2050    0.5290 ha        1 C64      0.140500
     38 H17A        2.1120    0.2940    0.4570 ha        1 C64      0.140500
@<TRIPOS>BOND
     1    1   20 1   
     2    2   14 1   
     3    2   15 1   
     4    3   25 1   
     5    4    8 1   
     6    4   26 1   
     7    5   13 1   
     8    5   17 1   
     9    6   10 1   
    10    6   27 1   
    11    7   15 1   
    12    7   22 1   
    13    8   28 1   
    14    9   13 1   
    15    9   18 1   
    16   10   19 1   
    17   11   20 1   
    18   11   29 1   
    19   12   25 1   
    20   12   30 1   
    21   13   15 1   
    22   14   22 1   
    23   16   21 1   
    24   16   32 1   
    25   17   18 1   
    26   19   23 1   
    27   19   33 1   
    28   20   24 1   
    29   21   34 1   
    30   23   36 1   
    31   24   37 1   
    32   24   38 1   
@<TRIPOS>SUBSTRUCTURE
     1 C64         1 TEMP              0 ****  ****    0 ROOT
