@<TRIPOS>MOLECULE
C66
   47    46     1     0     0
SMALL
bcc


@<TRIPOS>ATOM
      1 C8'        -2.5630   -0.4490    0.5140 c3        1 C66     -0.071000
      2 C7'        -1.0910   -0.0250    0.4270 c2        1 C66      0.287000
      3 O7'        -0.5000    0.3150    1.4280 o         1 C66     -0.417000
      4 C5'         0.6190    0.8930   -1.1340 c3        1 C66     -0.046000
      5 C'          0.2580    2.2110   -0.5020 c2        1 C66      0.319000
      6 O1'        -0.3330    3.0970   -1.1830 o         1 C66     -0.560000
      7 OXT         0.5280    2.4240    0.7070 o         1 C66     -0.560000
      8 N4'        -0.3990   -0.0670   -0.8450 n         1 C66     -0.277000
      9 C3'        -0.6890   -1.1210   -1.7920 c3        1 C66     -0.088000
     10 C2'        -1.5360   -0.5590   -2.9440 c3        1 C66     -0.082000
     11 N1'        -1.9850   -1.6400   -3.7790 n3        1 C66     -0.354000
     12 N1         -2.9680   -0.5110    1.9080 n         1 C66     -0.247000
     13 C2         -3.5170    0.6810    2.5640 c2        1 C66      0.348000
     14 N3         -4.1390    0.5730    3.8900 n2        1 C66     -0.300000
     15 C4         -4.1540   -0.6750    4.5710 c1        1 C66      0.206000
     16 C5         -3.5550   -1.8630    3.9410 c1        1 C66     -0.371000
     17 C6         -2.9650   -1.7590    2.5910 c2        1 C66      0.099000
     18 O2         -3.5070    1.7490    1.9850 o         1 C66     -0.353000
     19 N4         -4.7260   -0.7700    5.8910 n3        1 C66     -0.338000
     20 CB          1.9530    0.4080   -0.5730 c3        1 C66     -0.138000
     21 CG          3.1150    0.9300   -1.4700 c3        1 C66     -0.163000
     22 CD          4.4700    0.6570   -0.7710 c3        1 C66     -0.156000
     23 CE          5.6150    0.9970   -1.7250 c3        1 C66     -0.087000
     24 NZ          6.8660    0.7110   -1.0910 n3        1 C66     -0.347000
     25 H8'1       -3.1180    0.2030    0.0430 h1        1 C66      0.129500
     26 H8'2       -2.6740   -1.3310    0.1020 h1        1 C66      0.129500
     27 H5'1        0.6950    1.0060   -2.1040 h1        1 C66      0.069000
     28 H3'1        0.1510   -1.4790   -2.1500 h1        1 C66      0.100000
     29 H3'2       -1.1850   -1.8380   -1.3420 h1        1 C66      0.100000
     30 H2'1       -0.9950    0.0610   -3.4750 h1        1 C66      0.072500
     31 H2'2       -2.3060   -0.0870   -2.5800 h1        1 C66      0.072500
     32 H1'1       -1.5430   -1.6130   -4.5770 hn        1 C66      0.175000
     33 H1'2       -2.8860   -1.5590   -3.9260 hn        1 C66      0.175000
     34 H5         -3.4970   -2.7080    4.4400 ha        1 C66      0.149000
     35 H6         -2.6430   -2.5640    2.1360 h4        1 C66      0.190000
     36 HN41       -4.6890   -1.5640    6.3510 hn        1 C66      0.207000
     37 HN42       -5.0870   -0.0300    6.2860 hn        1 C66      0.207000
     38 HB1         2.0670    0.7500    0.3420 hc        1 C66      0.090500
     39 HB2         1.9660   -0.5700   -0.5590 hc        1 C66      0.090500
     40 HG1         3.0940    0.4670   -2.3330 hc        1 C66      0.094000
     41 HG2         3.0090    1.8940   -1.6130 hc        1 C66      0.094000
     42 HD1         4.5230   -0.2890   -0.5210 hc        1 C66      0.077000
     43 HD2         4.5390    1.2100    0.0310 hc        1 C66      0.077000
     44 HE1         5.5320    0.4620   -2.5390 h1        1 C66      0.067000
     45 HE2         5.5760    1.9480   -1.9550 h1        1 C66      0.067000
     46 HZ1         7.4210    1.4390   -1.1660 hn        1 C66      0.130500
     47 HZ2         7.2560   -0.0140   -1.4970 hn        1 C66      0.130500
@<TRIPOS>BOND
     1    1    2 1   
     2    1   12 1   
     3    1   25 1   
     4    1   26 1   
     5    2    3 1   
     6    2    8 1   
     7    4    5 1   
     8    4    8 1   
     9    4   20 1   
    10    4   27 1   
    11    5    6 1   
    12    5    7 1   
    13    8    9 1   
    14    9   10 1   
    15    9   28 1   
    16    9   29 1   
    17   10   11 1   
    18   10   30 1   
    19   10   31 1   
    20   11   32 1   
    21   11   33 1   
    22   12   13 1   
    23   12   17 1   
    24   13   14 1   
    25   13   18 1   
    26   14   15 1   
    27   15   19 1   
    28   16   17 1   
    29   16   34 1   
    30   17   35 1   
    31   19   36 1   
    32   19   37 1   
    33   20   21 1   
    34   20   38 1   
    35   20   39 1   
    36   21   22 1   
    37   21   40 1   
    38   21   41 1   
    39   22   23 1   
    40   22   42 1   
    41   22   43 1   
    42   23   24 1   
    43   23   44 1   
    44   23   45 1   
    45   24   46 1   
    46   24   47 1   
@<TRIPOS>SUBSTRUCTURE
     1 C66         1 TEMP              0 ****  ****    0 ROOT
