@<TRIPOS>MOLECULE
C66
   47    47     1     0     0
SMALL
bcc


@<TRIPOS>ATOM
      1 C8'         3.1260   -1.8790   -0.5330 c3        1 C66      0.001000
      2 C7'         3.0710   -0.5020   -1.2290 c         1 C66      0.664100
      3 O7'         3.8630    0.3900   -0.8700 o         1 C66     -0.591100
      4 C5'         1.4480    0.9170   -2.3920 c3        1 C66     -0.038300
      5 C'          0.4490    1.0760   -1.1930 c         1 C66      0.899600
      6 O1'         0.7680    0.6110   -0.0620 o         1 C66     -0.833800
      7 OXT        -0.6510    1.6310   -1.4570 o         1 C66     -0.833800
      8 N4'         2.2190   -0.3280   -2.3290 n         1 C66     -0.423800
      9 C3'         1.5420   -1.4780   -2.8860 c3        1 C66      0.042000
     10 C2'         0.1750   -1.8870   -2.2840 c3        1 C66      0.130800
     11 N1'        -0.9940   -1.1920   -2.7520 n3        1 C66     -0.926800
     12 N1          3.4840   -1.8100    0.8660 n         1 C66     -0.352000
     13 C2          4.3900   -2.7850    1.4240 c         1 C66      0.829900
     14 N3          4.7320   -2.7340    2.7810 nc        1 C66     -0.741100
     15 C4          4.2260   -1.7410    3.5370 cd        1 C66      0.733500
     16 C5          3.3100   -0.7500    3.0040 cd        1 C66     -0.459600
     17 C6          2.9820   -0.8190    1.6670 cc        1 C66      0.099600
     18 O2          4.8270   -3.6770    0.6620 o         1 C66     -0.656500
     19 N4          4.6260   -1.6210    4.8670 nh        1 C66     -0.906800
     20 CB          2.2800    2.1960   -2.4790 c3        1 C66     -0.072400
     21 CG          3.1120    2.2680   -3.7400 c3        1 C66     -0.069400
     22 CD          3.8110    3.6060   -3.8530 c3        1 C66     -0.118400
     23 CE          4.6430    3.6780   -5.1330 c3        1 C66      0.142800
     24 NZ          5.3750    4.9030   -5.3520 n3        1 C66     -0.906800
     25 H8'1        2.1230   -2.3900   -0.5950 h1        1 C66      0.084700
     26 H8'2        3.8930   -2.5090   -1.0710 h1        1 C66      0.084700
     27 H5'1        0.8290    0.8590   -3.3370 h1        1 C66      0.044700
     28 H3'1        2.2290   -2.3680   -2.8150 h1        1 C66      0.038700
     29 H3'2        1.4040   -1.2620   -3.9870 h1        1 C66      0.038700
     30 H2'1        0.2170   -1.7930   -1.1610 h1        1 C66      0.050200
     31 H2'2        0.0370   -2.9780   -2.5410 h1        1 C66      0.050200
     32 H1'1       -0.8750   -0.8860   -3.6980 hn        1 C66      0.365800
     33 H1'2       -1.1980   -0.3890   -2.1790 hn        1 C66      0.365800
     34 H5          2.9010    0.0480    3.6310 ha        1 C66      0.153000
     35 H6          2.2950   -0.0760    1.1850 h4        1 C66      0.244000
     36 HN41        5.0940   -2.3940    5.2790 hn        1 C66      0.410800
     37 HN42        3.9920   -1.1340    5.4550 hn        1 C66      0.410800
     38 HB1         1.5490    3.0490   -2.4560 hc        1 C66      0.064200
     39 HB2         2.9420    2.2890   -1.5790 hc        1 C66      0.064200
     40 HG1         2.4580    2.1100   -4.6380 hc        1 C66      0.036700
     41 HG2         3.8760    1.4470   -3.7330 hc        1 C66      0.036700
     42 HD1         4.4710    3.7550   -2.9580 hc        1 C66      0.037200
     43 HD2         3.0490    4.4290   -3.8460 hc        1 C66      0.037200
     44 HE1         5.3850    2.8300   -5.1300 h1        1 C66      0.048200
     45 HE2         3.9600    3.5260   -6.0160 h1        1 C66      0.048200
     46 HZ1         6.0350    5.0510   -4.6130 hn        1 C66      0.335800
     47 HZ2         4.7480    5.6850   -5.3680 hn        1 C66      0.335800
@<TRIPOS>BOND
     1    1    2 1   
     2    1   12 1   
     3    1   25 1   
     4    1   26 1   
     5    2    3 2   
     6    2    8 1   
     7    4    5 1   
     8    4    8 1   
     9    4   20 1   
    10    4   27 1   
    11    5    6 1   
    12    5    7 1   
    13    8    9 1   
    14    9   10 1   
    15    9   28 1   
    16    9   29 1   
    17   10   11 1   
    18   10   30 1   
    19   10   31 1   
    20   11   32 1   
    21   11   33 1   
    22   12   13 1   
    23   12   17 1   
    24   13   14 1   
    25   13   18 2   
    26   14   15 2   
    27   15   16 1   
    28   15   19 1   
    29   16   17 2   
    30   16   34 1   
    31   17   35 1   
    32   19   36 1   
    33   19   37 1   
    34   20   21 1   
    35   20   38 1   
    36   20   39 1   
    37   21   22 1   
    38   21   40 1   
    39   21   41 1   
    40   22   23 1   
    41   22   42 1   
    42   22   43 1   
    43   23   24 1   
    44   23   44 1   
    45   23   45 1   
    46   24   46 1   
    47   24   47 1   
@<TRIPOS>SUBSTRUCTURE
     1 C66         1 TEMP              0 ****  ****    0 ROOT
