@<TRIPOS>MOLECULE
C69
   39    41     1     0     0
SMALL
bcc


@<TRIPOS>ATOM
      1 CAB         0.1430   -0.7000    0.1050 c3        1 C69      0.112700
      2 OAA         1.5480   -0.4880    0.1990 os        1 C69     -0.333900
      3 CAD         2.0420   -0.1500    1.4440 ca        1 C69      0.154100
      4 CAC         1.2330   -0.0800    2.5790 ca        1 C69     -0.231000
      5 CAN         1.8030    0.2820    3.8110 ca        1 C69      0.162100
      6 OAM         0.9130    0.3230    4.8650 os        1 C69     -0.325900
      7 CAL         1.4500    0.7140    6.1240 c3        1 C69      0.112700
      8 CAO         3.1670    0.5700    3.9100 ca        1 C69     -0.228000
      9 CAP         3.9690    0.4840    2.7770 ca        1 C69     -0.049000
     10 CAE         3.4410    0.1170    1.5250 ca        1 C69     -0.005400
     11 NAF         4.2970    0.0460    0.4000 n         1 C69     -0.382000
     12 CAQ         4.9970    1.1590   -0.0800 c         1 C69      0.708500
     13 OAW         5.0690    2.2350    0.5300 o         1 C69     -0.598500
     14 CAR         5.6820    0.9130   -1.4080 c3        1 C69     -0.095300
     15 SAS         5.3580   -0.7560   -1.8900 ss        1 C69     -0.297200
     16 CAG         4.3380   -1.1490   -0.4160 c3        1 C69      0.259100
     17 CAH         4.9110   -2.3710    0.2340 ca        1 C69     -0.092300
     18 CAI         4.2850   -3.6020   -0.0010 ca        1 C69     -0.086000
     19 CAJ         4.8020   -4.7690    0.5640 ca        1 C69     -0.028900
     20 BRA         3.9630   -6.4130    0.2390 br        1 C69     -0.087100
     21 CAV         5.9410   -4.7130    1.3720 ca        1 C69     -0.095000
     22 CAU         6.5580   -3.4860    1.6100 ca        1 C69     -0.133000
     23 CAT         6.0490   -2.3180    1.0450 ca        1 C69     -0.084000
     24 H1         -0.4160    0.2180    0.4080 h1        1 C69      0.049033
     25 H2         -0.1650   -1.5750    0.7270 h1        1 C69      0.049033
     26 H3         -0.0110   -0.9150   -0.9840 h1        1 C69      0.049033
     27 H4          0.1560   -0.2940    2.5380 ha        1 C69      0.158000
     28 H5          1.8720    1.7470    6.0690 h1        1 C69      0.047367
     29 H6          0.5610    0.6860    6.8040 h1        1 C69      0.047367
     30 H7          2.2290   -0.0110    6.4620 h1        1 C69      0.047367
     31 H8          3.6180    0.8680    4.8670 ha        1 C69      0.144000
     32 H9          5.0400    0.7330    2.8600 ha        1 C69      0.150000
     33 H10         5.2800    1.6280   -2.1660 h1        1 C69      0.108200
     34 H11         6.7790    1.0890   -1.3020 h1        1 C69      0.108200
     35 H12         3.3000   -1.3780   -0.7970 h2        1 C69      0.107700
     36 H13         3.3840   -3.6440   -0.6340 ha        1 C69      0.149000
     37 H14         6.3530   -5.6300    1.8220 ha        1 C69      0.148000
     38 H15         7.4540   -3.4410    2.2480 ha        1 C69      0.140000
     39 H16         6.5500   -1.3570    1.2380 ha        1 C69      0.142000
@<TRIPOS>BOND
     1    1    2 1   
     2    1   24 1   
     3    1   25 1   
     4    1   26 1   
     5    2    3 1   
     6    3    4 ar  
     7    3   10 ar  
     8    4    5 ar  
     9    4   27 1   
    10    5    6 1   
    11    5    8 ar  
    12    6    7 1   
    13    7   28 1   
    14    7   29 1   
    15    7   30 1   
    16    8    9 ar  
    17    8   31 1   
    18    9   10 ar  
    19    9   32 1   
    20   10   11 1   
    21   11   12 1   
    22   11   16 1   
    23   12   13 2   
    24   12   14 1   
    25   14   15 1   
    26   14   33 1   
    27   14   34 1   
    28   15   16 1   
    29   16   17 1   
    30   16   35 1   
    31   17   18 ar  
    32   17   23 ar  
    33   18   19 ar  
    34   18   36 1   
    35   19   20 1   
    36   19   21 ar  
    37   21   22 ar  
    38   21   37 1   
    39   22   23 ar  
    40   22   38 1   
    41   23   39 1   
@<TRIPOS>SUBSTRUCTURE
     1 C69         1 TEMP              0 ****  ****    0 ROOT
