@<TRIPOS>MOLECULE
C69
   39    41     1     0     0
SMALL
bcc


@<TRIPOS>ATOM
      1 CAB         0.1470   -0.6800    0.0960 c3        1 C69      0.112700
      2 OAA         1.5530   -0.4750    0.1950 os        1 C69     -0.333900
      3 CAD         2.0450   -0.1430    1.4420 ca        1 C69      0.154100
      4 CAC         1.2340   -0.0760    2.5760 ca        1 C69     -0.231000
      5 CAN         1.8040    0.2800    3.8100 ca        1 C69      0.162100
      6 OAM         0.9120    0.3190    4.8620 os        1 C69     -0.325900
      7 CAL         1.4470    0.7030    6.1250 c3        1 C69      0.112700
      8 CAO         3.1680    0.5640    3.9140 ca        1 C69     -0.228000
      9 CAP         3.9720    0.4790    2.7810 ca        1 C69     -0.049000
     10 CAE         3.4450    0.1190    1.5270 ca        1 C69     -0.005400
     11 NAF         4.3030    0.0500    0.4030 n         1 C69     -0.382000
     12 CAQ         5.0050    1.1640   -0.0730 c         1 C69      0.708500
     13 OAW         5.0770    2.2380    0.5400 o         1 C69     -0.598500
     14 CAR         5.6910    0.9200   -1.4010 c3        1 C69     -0.095300
     15 SAS         5.3640   -0.7460   -1.8880 ss        1 C69     -0.297200
     16 CAG         4.3430   -1.1420   -0.4160 c3        1 C69      0.259100
     17 CAH         4.9130   -2.3670    0.2310 ca        1 C69     -0.092300
     18 CAI         4.2850   -3.5960   -0.0090 ca        1 C69     -0.086000
     19 CAJ         4.8000   -4.7660    0.5530 ca        1 C69     -0.028900
     20 BRA         3.9580   -6.4070    0.2240 br        1 C69     -0.087100
     21 CAV         5.9380   -4.7140    1.3630 ca        1 C69     -0.095000
     22 CAU         6.5570   -3.4890    1.6050 ca        1 C69     -0.133000
     23 CAT         6.0510   -2.3190    1.0430 ca        1 C69     -0.084000
     24 H1         -0.0050   -0.8890   -0.9930 h1        1 C69      0.049033
     25 H2         -0.1660   -1.5560    0.7140 h1        1 C69      0.049033
     26 H3         -0.4090    0.2390    0.4030 h1        1 C69      0.049033
     27 H4          0.1570   -0.2860    2.5320 ha        1 C69      0.158000
     28 H5          1.8730    1.7350    6.0750 h1        1 C69      0.047367
     29 H6          0.5570    0.6740    6.8030 h1        1 C69      0.047367
     30 H7          2.2240   -0.0260    6.4610 h1        1 C69      0.047367
     31 H8          3.6180    0.8550    4.8720 ha        1 C69      0.144000
     32 H9          5.0440    0.7240    2.8670 ha        1 C69      0.150000
     33 H10         5.2910    1.6390   -2.1580 h1        1 C69      0.108200
     34 H11         6.7880    1.0950   -1.2930 h1        1 C69      0.108200
     35 H12         3.3040   -1.3680   -0.7990 h2        1 C69      0.107700
     36 H13         3.3840   -3.6350   -0.6430 ha        1 C69      0.149000
     37 H14         6.3490   -5.6330    1.8110 ha        1 C69      0.148000
     38 H15         7.4530   -3.4470    2.2430 ha        1 C69      0.140000
     39 H16         6.5530   -1.3590    1.2380 ha        1 C69      0.142000
@<TRIPOS>BOND
     1    1    2 1   
     2    1   24 1   
     3    1   25 1   
     4    1   26 1   
     5    2    3 1   
     6    3    4 ar  
     7    3   10 ar  
     8    4    5 ar  
     9    4   27 1   
    10    5    6 1   
    11    5    8 ar  
    12    6    7 1   
    13    7   28 1   
    14    7   29 1   
    15    7   30 1   
    16    8    9 ar  
    17    8   31 1   
    18    9   10 ar  
    19    9   32 1   
    20   10   11 1   
    21   11   12 1   
    22   11   16 1   
    23   12   13 2   
    24   12   14 1   
    25   14   15 1   
    26   14   33 1   
    27   14   34 1   
    28   15   16 1   
    29   16   17 1   
    30   16   35 1   
    31   17   18 ar  
    32   17   23 ar  
    33   18   19 ar  
    34   18   36 1   
    35   19   20 1   
    36   19   21 ar  
    37   21   22 ar  
    38   21   37 1   
    39   22   23 ar  
    40   22   38 1   
    41   23   39 1   
@<TRIPOS>SUBSTRUCTURE
     1 C69         1 TEMP              0 ****  ****    0 ROOT
