@<TRIPOS>MOLECULE
C69
   39    41     1     0     0
SMALL
bcc


@<TRIPOS>ATOM
      1 CAB         0.1430   -0.6870    0.1000 c3        1 C69      0.112700
      2 OAA         1.5490   -0.4790    0.1980 os        1 C69     -0.333900
      3 CAD         2.0410   -0.1490    1.4460 ca        1 C69      0.154100
      4 CAC         1.2300   -0.0870    2.5810 ca        1 C69     -0.231000
      5 CAN         1.7990    0.2660    3.8160 ca        1 C69      0.162100
      6 OAM         0.9080    0.3010    4.8690 os        1 C69     -0.325900
      7 CAL         1.4430    0.6820    6.1320 c3        1 C69      0.112700
      8 CAO         3.1630    0.5530    3.9190 ca        1 C69     -0.228000
      9 CAP         3.9660    0.4740    2.7860 ca        1 C69     -0.049000
     10 CAE         3.4410    0.1160    1.5310 ca        1 C69     -0.005400
     11 NAF         4.2980    0.0520    0.4070 n         1 C69     -0.382000
     12 CAQ         4.9960    1.1690   -0.0670 c         1 C69      0.708500
     13 OAW         5.0650    2.2420    0.5490 o         1 C69     -0.598500
     14 CAR         5.6820    0.9310   -1.3960 c3        1 C69     -0.095300
     15 SAS         5.3600   -0.7350   -1.8870 ss        1 C69     -0.297200
     16 CAG         4.3400   -1.1370   -0.4150 c3        1 C69      0.259100
     17 CAH         4.9140   -2.3620    0.2280 ca        1 C69     -0.092300
     18 CAI         4.2890   -3.5930   -0.0140 ca        1 C69     -0.086000
     19 CAJ         4.8070   -4.7630    0.5450 ca        1 C69     -0.028900
     20 BrA         3.9700   -6.4050    0.2120 br        1 C69     -0.087100
     21 CAV         5.9460   -4.7100    1.3540 ca        1 C69     -0.095000
     22 CAU         6.5630   -3.4840    1.5980 ca        1 C69     -0.133000
     23 CAT         6.0530   -2.3130    1.0390 ca        1 C69     -0.084000
     24 H1         -0.0090   -0.8930   -0.9900 h1        1 C69      0.049033
     25 H2         -0.4140    0.2300    0.4090 h1        1 C69      0.049033
     26 H3         -0.1670   -1.5660    0.7150 h1        1 C69      0.049033
     27 H4          0.1540   -0.3000    2.5370 ha        1 C69      0.158000
     28 H5          2.2210   -0.0460    6.4650 h1        1 C69      0.047367
     29 H6          0.5530    0.6490    6.8100 h1        1 C69      0.047367
     30 H7          1.8660    1.7150    6.0850 h1        1 C69      0.047367
     31 H8          3.6130    0.8430    4.8790 ha        1 C69      0.144000
     32 H9          5.0380    0.7220    2.8720 ha        1 C69      0.150000
     33 H10         6.7790    1.1080   -1.2880 h1        1 C69      0.108200
     34 H11         5.2800    1.6500   -2.1510 h1        1 C69      0.108200
     35 H12         3.3020   -1.3660   -0.7980 h2        1 C69      0.107700
     36 H13         3.3880   -3.6320   -0.6470 ha        1 C69      0.149000
     37 H14         6.3600   -5.6280    1.7990 ha        1 C69      0.148000
     38 H15         7.4590   -3.4410    2.2350 ha        1 C69      0.140000
     39 H16         6.5530   -1.3530    1.2360 ha        1 C69      0.142000
@<TRIPOS>BOND
     1    1    2 1   
     2    1   24 1   
     3    1   25 1   
     4    1   26 1   
     5    2    3 1   
     6    3    4 ar  
     7    3   10 ar  
     8    4    5 ar  
     9    4   27 1   
    10    5    6 1   
    11    5    8 ar  
    12    6    7 1   
    13    7   28 1   
    14    7   29 1   
    15    7   30 1   
    16    8    9 ar  
    17    8   31 1   
    18    9   10 ar  
    19    9   32 1   
    20   10   11 1   
    21   11   12 1   
    22   11   16 1   
    23   12   13 2   
    24   12   14 1   
    25   14   15 1   
    26   14   33 1   
    27   14   34 1   
    28   15   16 1   
    29   16   17 1   
    30   16   35 1   
    31   17   18 ar  
    32   17   23 ar  
    33   18   19 ar  
    34   18   36 1   
    35   19   20 1   
    36   19   21 ar  
    37   21   22 ar  
    38   21   37 1   
    39   22   23 ar  
    40   22   38 1   
    41   23   39 1   
@<TRIPOS>SUBSTRUCTURE
     1 C69         1 TEMP              0 ****  ****    0 ROOT
