@<TRIPOS>MOLECULE
C69
   39    41     1     0     0
SMALL
bcc


@<TRIPOS>ATOM
      1 CAB         1.9280    1.0070   -3.3390 c3        1 C69      0.112700
      2 OAA         1.8070    0.2570   -2.1340 os        1 C69     -0.333900
      3 CAD         2.0850    0.9260   -0.9580 ca        1 C69      0.154100
      4 CAC         2.4000    2.2850   -0.9230 ca        1 C69     -0.231000
      5 CAN         2.6830    2.8950    0.3100 ca        1 C69      0.162100
      6 OAM         2.9850    4.2390    0.2290 os        1 C69     -0.325900
      7 CAL         3.3040    4.8860    1.4560 c3        1 C69      0.112700
      8 CAO         2.6480    2.1590    1.4980 ca        1 C69     -0.228000
      9 CAP         2.3180    0.8080    1.4550 ca        1 C69     -0.049000
     10 CAE         2.0210    0.1580    0.2430 ca        1 C69     -0.005400
     11 NAF         1.6930   -1.2190    0.2510 n         1 C69     -0.382000
     12 CAQ         2.5860   -2.1990    0.7010 c         1 C69      0.708500
     13 OAW         3.6470   -1.9380    1.2860 o         1 C69     -0.598500
     14 CAR         2.1170   -3.6110    0.4260 c3        1 C69     -0.095300
     15 SAS         0.5470   -3.5210   -0.3790 ss        1 C69     -0.297200
     16 CAG         0.4810   -1.6870   -0.3840 c3        1 C69      0.259100
     17 CAH        -0.8050   -1.2660    0.2580 ca        1 C69     -0.092300
     18 CAI        -1.8670   -0.8840   -0.5720 ca        1 C69     -0.086000
     19 CAJ        -3.0920   -0.5100   -0.0150 ca        1 C69     -0.028900
     20 BRA        -4.5090   -0.0070   -1.1310 br        1 C69     -0.087100
     21 CAV        -3.2600   -0.5070    1.3730 ca        1 C69     -0.095000
     22 CAU        -2.2000   -0.8820    2.1970 ca        1 C69     -0.133000
     23 CAT        -0.9770   -1.2610    1.6470 ca        1 C69     -0.084000
     24 H1          2.9660    1.4010   -3.4570 h1        1 C69      0.049033
     25 H2          1.6990    0.2510   -4.1340 h1        1 C69      0.049033
     26 H3          1.1830    1.8390   -3.3600 h1        1 C69      0.049033
     27 H4          2.4430    2.8940   -1.8360 ha        1 C69      0.158000
     28 H5          4.2050    4.4210    1.9250 h1        1 C69      0.047367
     29 H6          3.5190    5.9400    1.1450 h1        1 C69      0.047367
     30 H7          2.4350    4.8510    2.1570 h1        1 C69      0.047367
     31 H8          2.8810    2.6270    2.4650 ha        1 C69      0.144000
     32 H9          2.3130    0.2300    2.3940 ha        1 C69      0.150000
     33 H10         2.8660   -4.1260   -0.2250 h1        1 C69      0.108200
     34 H11         2.0390   -4.1740    1.3870 h1        1 C69      0.108200
     35 H12         0.4800   -1.3700   -1.4690 h2        1 C69      0.107700
     36 H13        -1.7310   -0.8810   -1.6660 ha        1 C69      0.149000
     37 H14        -4.2220   -0.2120    1.8190 ha        1 C69      0.148000
     38 H15        -2.3310   -0.8790    3.2890 ha        1 C69      0.140000
     39 H16        -0.1500   -1.5590    2.3090 ha        1 C69      0.142000
@<TRIPOS>BOND
     1    1    2 1   
     2    1   24 1   
     3    1   25 1   
     4    1   26 1   
     5    2    3 1   
     6    3    4 ar  
     7    3   10 ar  
     8    4    5 ar  
     9    4   27 1   
    10    5    6 1   
    11    5    8 ar  
    12    6    7 1   
    13    7   28 1   
    14    7   29 1   
    15    7   30 1   
    16    8    9 ar  
    17    8   31 1   
    18    9   10 ar  
    19    9   32 1   
    20   10   11 1   
    21   11   12 1   
    22   11   16 1   
    23   12   13 2   
    24   12   14 1   
    25   14   15 1   
    26   14   33 1   
    27   14   34 1   
    28   15   16 1   
    29   16   17 1   
    30   16   35 1   
    31   17   18 ar  
    32   17   23 ar  
    33   18   19 ar  
    34   18   36 1   
    35   19   20 1   
    36   19   21 ar  
    37   21   22 ar  
    38   21   37 1   
    39   22   23 ar  
    40   22   38 1   
    41   23   39 1   
@<TRIPOS>SUBSTRUCTURE
     1 C69         1 TEMP              0 ****  ****    0 ROOT
