@<TRIPOS>MOLECULE
C69
   39    36     1     0     0
SMALL
bcc


@<TRIPOS>ATOM
      1 CAB         2.1830   -2.4670    2.5620 c3        1 C69     -0.077000
      2 OAA         1.7800   -1.3360    1.7620 os        1 C69     -0.217000
      3 CAD         0.3740   -1.1580    1.6850 c2        1 C69      0.108000
      4 CAC        -0.4240   -1.4950    2.7660 c1        1 C69     -0.232000
      5 CAN        -1.8120   -1.3650    2.6780 c1        1 C69      0.119000
      6 OAM        -2.6250   -1.8280    3.7320 os        1 C69     -0.209000
      7 CAL        -3.0240   -0.8000    4.6530 c3        1 C69     -0.077000
      8 CAO        -2.3960   -0.8950    1.4950 c1        1 C69     -0.229000
      9 CAP        -1.5910   -0.5560    0.4070 c1        1 C69     -0.044000
     10 CAE        -0.2090   -0.6860    0.4990 c2        1 C69     -0.002000
     11 NAF         0.6400   -0.2760   -0.6210 n3        1 C69     -0.286000
     12 CAQ         1.2500   -1.1540   -1.5940 c1        1 C69      0.316000
     13 OAW         0.8540   -2.2530   -1.9100 o         1 C69     -0.320000
     14 CAR         2.7820   -0.5540   -1.8530 c2        1 C69     -0.306000
     15 SAS         2.6810    0.9850   -1.1290 ss        1 C69      0.065000
     16 CAG         1.2350    1.1760   -0.8520 c3        1 C69     -0.008000
     17 CAH         0.5590    1.8380   -2.0530 c2        1 C69     -0.084000
     18 CAI        -0.1770    1.0660   -2.9480 c2        1 C69     -0.071000
     19 CAJ        -0.7510    1.6610   -4.0750 c1        1 C69     -0.169000
     20 BRA        -1.7350    0.6010   -5.3080 br        1 C69      0.053000
     21 CAV        -0.5870    3.0220   -4.3000 c1        1 C69     -0.113000
     22 CAU         0.1540    3.7960   -3.3970 c1        1 C69     -0.113000
     23 CAT         0.7230    3.2040   -2.2790 c1        1 C69     -0.101000
     24 H1          1.6200   -3.2450    2.3380 h1        1 C69      0.088000
     25 H2          3.1010   -2.6750    2.3810 h1        1 C69      0.088000
     26 H3          2.0800   -2.2530    3.4960 h1        1 C69      0.088000
     27 H4         -0.0050   -1.7510    3.6280 ha        1 C69      0.158000
     28 H5         -3.3580   -1.2110    5.4780 h1        1 C69      0.086667
     29 H6         -2.2110   -0.1980    4.8730 h1        1 C69      0.086667
     30 H7         -3.7330   -0.2570    4.2480 h1        1 C69      0.086667
     31 H8         -3.3580   -0.8040    1.4320 ha        1 C69      0.145000
     32 H9         -2.0170   -0.2110   -0.4600 ha        1 C69      0.151000
     33 H10         3.1080   -0.5180   -2.7430 h4        1 C69      0.147500
     34 H11         3.4490   -1.1440   -1.4180 h4        1 C69      0.147500
     35 H12         1.1150    1.7120   -0.0640 h2        1 C69      0.144000
     36 H13        -0.2090    0.1200   -2.8410 ha        1 C69      0.152000
     37 H14        -0.9830    3.4340   -5.0780 ha        1 C69      0.144000
     38 H15         0.2650    4.7170   -3.5490 ha        1 C69      0.144000
     39 H16         1.2530    3.7550   -1.6370 ha        1 C69      0.139000
@<TRIPOS>BOND
     1    1    2 1   
     2    1   24 1   
     3    1   25 1   
     4    1   26 1   
     5    2    3 1   
     6    3    4 1   
     7    3   10 1   
     8    4   27 1   
     9    5    6 1   
    10    5    8 1   
    11    6    7 1   
    12    7   28 1   
    13    7   29 1   
    14    7   30 1   
    15    8   31 1   
    16    9   10 1   
    17    9   32 1   
    18   10   11 1   
    19   11   12 1   
    20   11   16 1   
    21   12   13 1   
    22   14   15 1   
    23   14   33 1   
    24   14   34 1   
    25   15   16 1   
    26   16   17 1   
    27   16   35 1   
    28   17   18 1   
    29   17   23 1   
    30   18   19 1   
    31   18   36 1   
    32   19   20 1   
    33   21   22 1   
    34   21   37 1   
    35   22   38 1   
    36   23   39 1   
@<TRIPOS>SUBSTRUCTURE
     1 C69         1 TEMP              0 ****  ****    0 ROOT
