@<TRIPOS>MOLECULE
C6A
   76    79     1     0     0
SMALL
bcc


@<TRIPOS>ATOM
      1 C1          0.4240   -1.1600    0.3120 ca        1 C6A     -0.218000
      2 C2          1.2930   -0.0810    0.1520 ca        1 C6A     -0.106300
      3 C3          1.4160    0.8850    1.1550 ca        1 C6A     -0.218000
      4 C4          0.6630    0.7590    2.3400 ca        1 C6A      0.196400
      5 C5         -0.2140   -0.3240    2.5230 ca        1 C6A     -0.178000
      6 C6         -0.3240   -1.2840    1.5030 ca        1 C6A      0.196400
      7 F7         -1.1540   -2.3340    1.6550 f         1 C6A     -0.094400
      8 F8          0.7880    1.6940    3.3030 f         1 C6A     -0.094400
      9 C9          2.1430   -0.0100   -1.0690 c3        1 C6A     -0.060100
     10 C10         2.1890    1.3890   -1.7060 c3        1 C6A      0.093500
     11 C11         2.9580    1.3160   -3.0550 c3        1 C6A      0.117100
     12 C12         3.1930    2.7280   -3.6420 c3        1 C6A      0.092800
     13 N13         4.1830    2.7300   -4.7480 n4        1 C6A     -0.768000
     14 C14         4.4930    4.1380   -5.2690 c3        1 C6A      0.219800
     15 C15         3.3210    4.6910   -5.9940 ca        1 C6A     -0.278300
     16 C16         3.2680    4.6150   -7.3940 ca        1 C6A      0.181100
     17 O17         4.2090    4.0030   -8.1800 os        1 C6A     -0.297900
     18 C18         5.3610    3.4280   -7.5310 c3        1 C6A      0.176100
     19 C19         5.7000    4.0940   -6.2050 c3        1 C6A     -0.144400
     20 C20         2.3110    5.3890   -5.3060 ca        1 C6A     -0.104000
     21 C21         1.2540    5.9740   -5.9900 ca        1 C6A     -0.081300
     22 C22         1.2050    5.8670   -7.3980 ca        1 C6A     -0.044000
     23 C23         2.1930    5.2020   -8.1000 ca        1 C6A     -0.141000
     24 C24         0.1800    6.7040   -5.2620 c3        1 C6A     -0.034100
     25 C25         0.4390    8.2070   -5.0890 c3        1 C6A     -0.050000
     26 C26         0.5630    8.8840   -6.4440 c3        1 C6A     -0.091433
     27 C27        -0.7470    8.8040   -4.3410 c3        1 C6A     -0.091433
     28 C28         1.7050    8.4390   -4.2810 c3        1 C6A     -0.091433
     29 C29         6.5250    3.5180   -8.4790 cx        1 C6A     -0.180700
     30 C30         6.6940    4.6860   -9.4180 cx        1 C6A     -0.098400
     31 C31         6.3180    3.3440   -9.9630 cx        1 C6A     -0.098400
     32 O32         4.2450    0.7890   -2.8010 oh        1 C6A     -0.591800
     33 N33         0.8190    1.9970   -1.8110 n4        1 C6A     -0.693800
     34 C34        -0.0950    1.3650   -2.8590 c         1 C6A      0.573100
     35 C35        -1.2590    0.6050   -2.3350 c3        1 C6A     -0.196100
     36 O36         0.2290    1.5830   -4.0160 o         1 C6A     -0.435100
     37 H1          0.3420   -1.9490   -0.4520 ha        1 C6A      0.157000
     38 H3          2.1430    1.7060    1.0770 ha        1 C6A      0.157000
     39 H5         -0.7910   -0.4280    3.4580 ha        1 C6A      0.205000
     40 H9          1.8030   -0.7630   -1.8290 hc        1 C6A      0.098200
     41 H9A         3.2010   -0.2730   -0.7740 hc        1 C6A      0.098200
     42 H10         2.7780    2.0680   -1.0110 hx        1 C6A      0.126700
     43 H11         2.3940    0.6740   -3.7900 h1        1 C6A      0.089700
     44 H12         2.2210    3.1330   -4.0500 hx        1 C6A      0.114700
     45 H12A        3.5820    3.4110   -2.8340 hx        1 C6A      0.114700
     46 HN13        5.0550    2.2950   -4.4160 hn        1 C6A      0.458300
     47 H14         4.7380    4.7550   -4.3530 hx        1 C6A      0.110700
     48 H18         5.1040    2.3390   -7.3690 h1        1 C6A      0.033700
     49 H19         6.5780    3.5770   -5.7380 hc        1 C6A      0.109700
     50 H19A        6.0060    5.1630   -6.3930 hc        1 C6A      0.109700
     51 H20         2.3880    5.5110   -4.2140 ha        1 C6A      0.118000
     52 H22         0.3690    6.3430   -7.9430 ha        1 C6A      0.172000
     53 H23         2.1730    5.1310   -9.2000 ha        1 C6A      0.184000
     54 H24         0.0490    6.2510   -4.2430 hc        1 C6A      0.046200
     55 H24A       -0.7910    6.5770   -5.8150 hc        1 C6A      0.046200
     56 H26        -0.3660    8.7270   -7.0450 hc        1 C6A      0.042256
     57 H26A        0.7170    9.9820   -6.3110 hc        1 C6A      0.042256
     58 H26B        1.4310    8.4700   -7.0120 hc        1 C6A      0.042256
     59 H27        -0.8600    8.3260   -3.3390 hc        1 C6A      0.042256
     60 H27A       -1.6900    8.6540   -4.9200 hc        1 C6A      0.042256
     61 H27B       -0.5920    9.9000   -4.1960 hc        1 C6A      0.042256
     62 H28         1.6180    7.9660   -3.2730 hc        1 C6A      0.042256
     63 H28A        2.5900    8.0050   -4.8060 hc        1 C6A      0.042256
     64 H28B        1.8760    9.5340   -4.1440 hc        1 C6A      0.042256
     65 H29         7.4340    3.0770   -8.0220 hc        1 C6A      0.096700
     66 H30         7.7120    5.0790   -9.5910 hc        1 C6A      0.090200
     67 H30A        5.9340    5.4880   -9.4110 hc        1 C6A      0.090200
     68 H31         7.0630    2.7590  -10.5330 hc        1 C6A      0.090200
     69 H31A        5.2900    3.1920  -10.3400 hc        1 C6A      0.090200
     70 HO32        4.1770   -0.1750   -2.7190 ho        1 C6A      0.459000
     71 HN33        0.3750    1.9030   -0.8800 hn        1 C6A      0.469800
     72 H35        -1.7460    0.0580   -3.1890 hc        1 C6A      0.130033
     73 H35A       -0.9480   -0.1370   -1.5520 hc        1 C6A      0.130033
     74 H35B       -2.0150    1.3090   -1.8930 hc        1 C6A      0.130033
     75 H132        3.8210    2.1710   -5.5300 hn        1 C6A      0.458300
     76 H332        0.9210    2.9940   -2.0290 hn        1 C6A      0.469800
@<TRIPOS>BOND
     1    1    2 ar  
     2    1    6 ar  
     3    1   37 1   
     4    2    3 ar  
     5    2    9 1   
     6    3    4 ar  
     7    3   38 1   
     8    4    5 ar  
     9    4    8 1   
    10    5    6 ar  
    11    5   39 1   
    12    6    7 1   
    13    9   10 1   
    14    9   40 1   
    15    9   41 1   
    16   10   11 1   
    17   10   33 1   
    18   10   42 1   
    19   11   12 1   
    20   11   32 1   
    21   11   43 1   
    22   12   13 1   
    23   12   44 1   
    24   12   45 1   
    25   13   14 1   
    26   13   46 1   
    27   13   75 1   
    28   14   15 1   
    29   14   19 1   
    30   14   47 1   
    31   15   16 ar  
    32   15   20 ar  
    33   16   17 1   
    34   16   23 ar  
    35   17   18 1   
    36   18   19 1   
    37   18   29 1   
    38   18   48 1   
    39   19   49 1   
    40   19   50 1   
    41   20   21 ar  
    42   20   51 1   
    43   21   22 ar  
    44   21   24 1   
    45   22   23 ar  
    46   22   52 1   
    47   23   53 1   
    48   24   25 1   
    49   24   54 1   
    50   24   55 1   
    51   25   26 1   
    52   25   27 1   
    53   25   28 1   
    54   26   56 1   
    55   26   57 1   
    56   26   58 1   
    57   27   59 1   
    58   27   60 1   
    59   27   61 1   
    60   28   62 1   
    61   28   63 1   
    62   28   64 1   
    63   29   30 1   
    64   29   31 1   
    65   29   65 1   
    66   30   31 1   
    67   30   66 1   
    68   30   67 1   
    69   31   68 1   
    70   31   69 1   
    71   32   70 1   
    72   33   34 1   
    73   33   71 1   
    74   33   76 1   
    75   34   35 1   
    76   34   36 2   
    77   35   72 1   
    78   35   73 1   
    79   35   74 1   
@<TRIPOS>SUBSTRUCTURE
     1 C6A         1 TEMP              0 ****  ****    0 ROOT
