@<TRIPOS>MOLECULE
C6A
   74    77     1     0     0
SMALL
bcc


@<TRIPOS>ATOM
      1 C1         -5.7750   -0.7660   -0.9860 ca        1 C6A     -0.185500
      2 C2         -4.8750   -1.0560    0.0420 ca        1 C6A     -0.024300
      3 C3         -5.1680   -0.6790    1.3570 ca        1 C6A     -0.185500
      4 C4         -6.3670   -0.0020    1.6400 ca        1 C6A      0.154400
      5 C5         -7.2820    0.3010    0.6180 ca        1 C6A     -0.212000
      6 C6         -6.9740   -0.0890   -0.6950 ca        1 C6A      0.154400
      7 F7         -7.8430    0.1920   -1.6940 f         1 C6A     -0.134900
      8 F8         -6.6460    0.3630    2.9140 f         1 C6A     -0.134900
      9 C9         -3.6140   -1.7870   -0.2560 c3        1 C6A     -0.076100
     10 C10        -2.3650   -0.9050   -0.0520 c3        1 C6A      0.098700
     11 C11        -1.1130   -1.8290   -0.0880 c3        1 C6A      0.112100
     12 C12         0.1570   -1.0340    0.2710 c3        1 C6A      0.140800
     13 N13         1.3530   -1.8440    0.2010 n3        1 C6A     -0.819200
     14 C14         2.4920   -1.3040    0.9410 c3        1 C6A      0.234800
     15 C15         3.0550   -0.0600    0.3020 ca        1 C6A     -0.144300
     16 C16         4.2240   -0.1180   -0.4720 ca        1 C6A      0.150100
     17 O17         4.9570   -1.2630   -0.6950 os        1 C6A     -0.328900
     18 C18         4.3320   -2.4970   -0.2810 c3        1 C6A      0.173100
     19 C19         3.6270   -2.3340    1.0580 c3        1 C6A     -0.107400
     20 C20         2.4330    1.1770    0.4930 ca        1 C6A     -0.091000
     21 C21         2.9540    2.3440   -0.0730 ca        1 C6A     -0.113300
     22 C22         4.1190    2.2640   -0.8490 ca        1 C6A     -0.095000
     23 C23         4.7580    1.0490   -1.0520 ca        1 C6A     -0.160000
     24 C24         2.2630    3.6480    0.1160 c3        1 C6A     -0.022100
     25 C25         2.7340    4.4490    1.3370 c3        1 C6A     -0.052000
     26 C26         4.2140    4.7750    1.2180 c3        1 C6A     -0.087433
     27 C27         1.9400    5.7480    1.3880 c3        1 C6A     -0.087433
     28 C28         2.4840    3.6630    2.6140 c3        1 C6A     -0.087433
     29 C29         5.4060   -3.5480   -0.2080 cx        1 C6A     -0.141700
     30 C30         6.8180   -3.2100    0.1910 cx        1 C6A     -0.119400
     31 C31         6.5130   -3.5830   -1.2290 cx        1 C6A     -0.119400
     32 O32        -1.2830   -2.9120    0.8100 oh        1 C6A     -0.592800
     33 N33        -2.2760    0.1980   -0.9760 n         1 C6A     -0.574900
     34 C34        -2.2090    0.0460   -2.3520 c         1 C6A      0.659100
     35 C35        -2.1970    1.3100   -3.1790 c3        1 C6A     -0.176100
     36 O36        -2.1370   -1.0790   -2.8830 o         1 C6A     -0.605100
     37 H1         -5.5590   -1.0670   -2.0220 ha        1 C6A      0.155000
     38 H3         -4.4730   -0.9160    2.1750 ha        1 C6A      0.155000
     39 H5         -8.2190    0.8280    0.8430 ha        1 C6A      0.166000
     40 H9         -3.5290   -2.6740    0.4310 hc        1 C6A      0.087700
     41 H9A        -3.6180   -2.1780   -1.3100 hc        1 C6A      0.087700
     42 H10        -2.4250   -0.4570    0.9870 h1        1 C6A      0.044700
     43 H11        -1.0250   -2.3120   -1.1040 h1        1 C6A      0.127700
     44 H12         0.2900   -0.1870   -0.4590 h1        1 C6A      0.036700
     45 H12A        0.0040   -0.5810    1.2970 h1        1 C6A      0.036700
     46 HN13        1.1620   -2.7820    0.5050 hn        1 C6A      0.372800
     47 H14         2.1810   -1.0250    1.9990 h1        1 C6A      0.024700
     48 H18         3.5890   -2.7730   -1.0840 h1        1 C6A      0.077700
     49 H19         4.3580   -1.9670    1.8240 hc        1 C6A      0.061700
     50 H19A        3.2390   -3.3270    1.3980 hc        1 C6A      0.061700
     51 H20         1.5210    1.2320    1.1070 ha        1 C6A      0.127000
     52 H22         4.5330    3.1800   -1.2990 ha        1 C6A      0.134000
     53 H23         5.6730    0.9790   -1.6570 ha        1 C6A      0.148000
     54 H24         2.4170    4.2820   -0.7990 hc        1 C6A      0.043200
     55 H24A        1.1580    3.4710    0.2190 hc        1 C6A      0.043200
     56 H26         4.4060    5.3720    0.2940 hc        1 C6A      0.035256
     57 H26A        4.5500    5.3680    2.1020 hc        1 C6A      0.035256
     58 H26B        4.8140    3.8350    1.1660 hc        1 C6A      0.035256
     59 H27         0.8480    5.5350    1.4790 hc        1 C6A      0.035256
     60 H27A        2.2580    6.3570    2.2680 hc        1 C6A      0.035256
     61 H27B        2.1110    6.3460    0.4610 hc        1 C6A      0.035256
     62 H28         3.0420    2.6960    2.5880 hc        1 C6A      0.035256
     63 H28A        2.8240    4.2500    3.5010 hc        1 C6A      0.035256
     64 H28B        1.3950    3.4430    2.7280 hc        1 C6A      0.035256
     65 H29         4.9810   -4.5130    0.1360 hc        1 C6A      0.082700
     66 H30         7.0630   -2.1580    0.4210 hc        1 C6A      0.075200
     67 H30A        7.3720   -3.9190    0.8300 hc        1 C6A      0.075200
     68 H31         6.8460   -4.5610   -1.6170 hc        1 C6A      0.075200
     69 H31A        6.5390   -2.7930   -2.0020 hc        1 C6A      0.075200
     70 HO32       -1.3490   -2.5450    1.7000 ho        1 C6A      0.392000
     71 HN33       -2.4660    1.0990   -0.6110 hn        1 C6A      0.312500
     72 H35        -3.1150    1.9160   -2.9900 hc        1 C6A      0.068033
     73 H35A       -1.2960    1.9230   -2.9360 hc        1 C6A      0.068033
     74 H35B       -2.1620    1.0280   -4.2600 hc        1 C6A      0.068033
@<TRIPOS>BOND
     1    1    2 ar  
     2    1    6 ar  
     3    1   37 1   
     4    2    3 ar  
     5    2    9 1   
     6    3    4 ar  
     7    3   38 1   
     8    4    5 ar  
     9    4    8 1   
    10    5    6 ar  
    11    5   39 1   
    12    6    7 1   
    13    9   10 1   
    14    9   40 1   
    15    9   41 1   
    16   10   11 1   
    17   10   33 1   
    18   10   42 1   
    19   11   12 1   
    20   11   32 1   
    21   11   43 1   
    22   12   13 1   
    23   12   44 1   
    24   12   45 1   
    25   13   14 1   
    26   13   46 1   
    27   14   15 1   
    28   14   19 1   
    29   14   47 1   
    30   15   16 ar  
    31   15   20 ar  
    32   16   17 1   
    33   16   23 ar  
    34   17   18 1   
    35   18   19 1   
    36   18   29 1   
    37   18   48 1   
    38   19   49 1   
    39   19   50 1   
    40   20   21 ar  
    41   20   51 1   
    42   21   22 ar  
    43   21   24 1   
    44   22   23 ar  
    45   22   52 1   
    46   23   53 1   
    47   24   25 1   
    48   24   54 1   
    49   24   55 1   
    50   25   26 1   
    51   25   27 1   
    52   25   28 1   
    53   26   56 1   
    54   26   57 1   
    55   26   58 1   
    56   27   59 1   
    57   27   60 1   
    58   27   61 1   
    59   28   62 1   
    60   28   63 1   
    61   28   64 1   
    62   29   30 1   
    63   29   31 1   
    64   29   65 1   
    65   30   31 1   
    66   30   66 1   
    67   30   67 1   
    68   31   68 1   
    69   31   69 1   
    70   32   70 1   
    71   33   34 1   
    72   33   71 1   
    73   34   35 1   
    74   34   36 2   
    75   35   72 1   
    76   35   73 1   
    77   35   74 1   
@<TRIPOS>SUBSTRUCTURE
     1 C6A         1 TEMP              0 ****  ****    0 ROOT
