@<TRIPOS>MOLECULE
C6A
   76    79     1     0     0
SMALL
bcc


@<TRIPOS>ATOM
      1 C1          0.4280   -1.1740    0.2980 ca        1 C6A     -0.218000
      2 C2          1.2980   -0.0960    0.1380 ca        1 C6A     -0.106300
      3 C3          1.4250    0.8670    1.1430 ca        1 C6A     -0.218000
      4 C4          0.6760    0.7400    2.3300 ca        1 C6A      0.196400
      5 C5         -0.2030   -0.3420    2.5130 ca        1 C6A     -0.178000
      6 C6         -0.3170   -1.3000    1.4910 ca        1 C6A      0.196400
      7 F7         -1.1490   -2.3490    1.6430 f         1 C6A     -0.094400
      8 F8          0.8050    1.6730    3.2950 f         1 C6A     -0.094400
      9 C9          2.1440   -0.0230   -1.0850 c3        1 C6A     -0.060100
     10 C10         2.1900    1.3770   -1.7190 c3        1 C6A      0.093500
     11 C11         2.9550    1.3070   -3.0710 c3        1 C6A      0.117100
     12 C12         3.1920    2.7200   -3.6540 c3        1 C6A      0.092800
     13 N13         4.1760    2.7230   -4.7640 n4        1 C6A     -0.768000
     14 C14         4.4900    4.1310   -5.2800 c3        1 C6A      0.219800
     15 C15         3.3160    4.6950   -5.9930 ca        1 C6A     -0.278300
     16 C16         3.2520    4.6280   -7.3930 ca        1 C6A      0.181100
     17 O17         4.1840    4.0150   -8.1900 os        1 C6A     -0.297900
     18 C18         5.3370    3.4290   -7.5530 c3        1 C6A      0.176100
     19 C19         5.6900    4.0860   -6.2260 c3        1 C6A     -0.144400
     20 C20         2.3160    5.3960   -5.2930 ca        1 C6A     -0.104000
     21 C21         1.2570    5.9910   -5.9660 ca        1 C6A     -0.081300
     22 C22         1.1960    5.8920   -7.3750 ca        1 C6A     -0.044000
     23 C23         2.1750    5.2260   -8.0880 ca        1 C6A     -0.141000
     24 C24         0.1930    6.7230   -5.2260 c3        1 C6A     -0.034100
     25 C25         0.4630    8.2230   -5.0450 c3        1 C6A     -0.050000
     26 C26         0.5810    8.9080   -6.3970 c3        1 C6A     -0.091433
     27 C27        -0.7140    8.8220   -4.2850 c3        1 C6A     -0.091433
     28 C28         1.7360    8.4410   -4.2450 c3        1 C6A     -0.091433
     29 C29         6.4940    3.5180   -8.5100 cx        1 C6A     -0.180700
     30 C30         6.6620    4.6890   -9.4440 cx        1 C6A     -0.098400
     31 C31         6.2750    3.3510   -9.9920 cx        1 C6A     -0.098400
     32 O32         4.2420    0.7760   -2.8230 oh        1 C6A     -0.591800
     33 N33         0.8210    1.9880   -1.8180 n4        1 C6A     -0.693800
     34 C34        -0.0970    1.3610   -2.8650 c         1 C6A      0.573100
     35 C35        -1.2610    0.6010   -2.3400 c3        1 C6A     -0.196100
     36 O36         0.2230    1.5830   -4.0220 o         1 C6A     -0.435100
     37 H1          0.3410   -1.9610   -0.4680 ha        1 C6A      0.157000
     38 H3          2.1530    1.6880    1.0650 ha        1 C6A      0.157000
     39 H5         -0.7770   -0.4480    3.4500 ha        1 C6A      0.205000
     40 H9          1.8000   -0.7730   -1.8470 hc        1 C6A      0.098200
     41 H9A         3.2030   -0.2880   -0.7950 hc        1 C6A      0.098200
     42 H10         2.7830    2.0530   -1.0240 hx        1 C6A      0.126700
     43 H11         2.3880    0.6680   -3.8060 h1        1 C6A      0.089700
     44 H12         3.5860    3.3990   -2.8450 hx        1 C6A      0.115200
     45 H12A        2.2190    3.1290   -4.0560 hx        1 C6A      0.115200
     46 HN13        5.0480    2.2830   -4.4380 hn        1 C6A      0.458300
     47 H14         4.7460    4.7430   -4.3630 hx        1 C6A      0.110700
     48 H18         5.0750    2.3410   -7.3950 h1        1 C6A      0.033700
     49 H19         6.0010    5.1540   -6.4100 hc        1 C6A      0.109700
     50 H19A        6.5680    3.5610   -5.7680 hc        1 C6A      0.109700
     51 H20         2.4010    5.5100   -4.2020 ha        1 C6A      0.118000
     52 H22         0.3600    6.3760   -7.9100 ha        1 C6A      0.172000
     53 H23         2.1470    5.1620   -9.1880 ha        1 C6A      0.184000
     54 H24         0.0660    6.2640   -4.2080 hc        1 C6A      0.046200
     55 H24A       -0.7830    6.6050   -5.7720 hc        1 C6A      0.046200
     56 H26         0.7440   10.0040   -6.2580 hc        1 C6A      0.042256
     57 H26A       -0.3530    8.7610   -6.9910 hc        1 C6A      0.042256
     58 H26B        1.4420    8.4920   -6.9740 hc        1 C6A      0.042256
     59 H27        -0.8230    8.3390   -3.2850 hc        1 C6A      0.042256
     60 H27A       -1.6620    8.6820   -4.8570 hc        1 C6A      0.042256
     61 H27B       -0.5510    9.9170   -4.1340 hc        1 C6A      0.042256
     62 H28         2.6140    8.0050   -4.7790 hc        1 C6A      0.042256
     63 H28A        1.9150    9.5350   -4.1020 hc        1 C6A      0.042256
     64 H28B        1.6530    7.9630   -3.2400 hc        1 C6A      0.042256
     65 H29         7.4050    3.0700   -8.0610 hc        1 C6A      0.096700
     66 H30         5.9050    5.4950   -9.4290 hc        1 C6A      0.090200
     67 H30A        7.6810    5.0770   -9.6240 hc        1 C6A      0.090200
     68 H31         7.0130    2.7650  -10.5710 hc        1 C6A      0.090200
     69 H31A        5.2440    3.2050  -10.3630 hc        1 C6A      0.090200
     70 HO32        4.1720   -0.1880   -2.7430 ho        1 C6A      0.459000
     71 HN33        0.3800    1.8920   -0.8860 hn        1 C6A      0.469800
     72 H35        -1.7500    0.0570   -3.1930 hc        1 C6A      0.130033
     73 H35A       -0.9480   -0.1440   -1.5600 hc        1 C6A      0.130033
     74 H35B       -2.0140    1.3050   -1.8940 hc        1 C6A      0.130033
     75 H132        3.8080    2.1690   -5.5480 hn        1 C6A      0.458300
     76 H332        0.9250    2.9860   -2.0330 hn        1 C6A      0.469800
@<TRIPOS>BOND
     1    1    2 ar  
     2    1    6 ar  
     3    1   37 1   
     4    2    3 ar  
     5    2    9 1   
     6    3    4 ar  
     7    3   38 1   
     8    4    5 ar  
     9    4    8 1   
    10    5    6 ar  
    11    5   39 1   
    12    6    7 1   
    13    9   10 1   
    14    9   40 1   
    15    9   41 1   
    16   10   11 1   
    17   10   33 1   
    18   10   42 1   
    19   11   12 1   
    20   11   32 1   
    21   11   43 1   
    22   12   13 1   
    23   12   44 1   
    24   12   45 1   
    25   13   14 1   
    26   13   46 1   
    27   13   75 1   
    28   14   15 1   
    29   14   19 1   
    30   14   47 1   
    31   15   16 ar  
    32   15   20 ar  
    33   16   17 1   
    34   16   23 ar  
    35   17   18 1   
    36   18   19 1   
    37   18   29 1   
    38   18   48 1   
    39   19   49 1   
    40   19   50 1   
    41   20   21 ar  
    42   20   51 1   
    43   21   22 ar  
    44   21   24 1   
    45   22   23 ar  
    46   22   52 1   
    47   23   53 1   
    48   24   25 1   
    49   24   54 1   
    50   24   55 1   
    51   25   26 1   
    52   25   27 1   
    53   25   28 1   
    54   26   56 1   
    55   26   57 1   
    56   26   58 1   
    57   27   59 1   
    58   27   60 1   
    59   27   61 1   
    60   28   62 1   
    61   28   63 1   
    62   28   64 1   
    63   29   30 1   
    64   29   31 1   
    65   29   65 1   
    66   30   31 1   
    67   30   66 1   
    68   30   67 1   
    69   31   68 1   
    70   31   69 1   
    71   32   70 1   
    72   33   34 1   
    73   33   71 1   
    74   33   76 1   
    75   34   35 1   
    76   34   36 2   
    77   35   72 1   
    78   35   73 1   
    79   35   74 1   
@<TRIPOS>SUBSTRUCTURE
     1 C6A         1 TEMP              0 ****  ****    0 ROOT
