@<TRIPOS>MOLECULE
C6A
   76    79     1     0     0
SMALL
bcc


@<TRIPOS>ATOM
      1 C1          0.4470   -1.1650    0.3150 ca        1 C6A     -0.218000
      2 C2          1.3130   -0.0840    0.1530 ca        1 C6A     -0.106300
      3 C3          1.4380    0.8810    1.1560 ca        1 C6A     -0.218000
      4 C4          0.6900    0.7540    2.3430 ca        1 C6A      0.196400
      5 C5         -0.1860   -0.3310    2.5280 ca        1 C6A     -0.178000
      6 C6         -0.2960   -1.2910    1.5090 ca        1 C6A      0.196400
      7 F7         -1.1250   -2.3420    1.6630 f         1 C6A     -0.094400
      8 F8          0.8160    1.6890    3.3060 f         1 C6A     -0.094400
      9 C9          2.1590   -0.0110   -1.0710 c3        1 C6A     -0.060100
     10 C10         2.2000    1.3880   -1.7080 c3        1 C6A      0.093500
     11 C11         2.9650    1.3170   -3.0600 c3        1 C6A      0.117100
     12 C12         3.1960    2.7290   -3.6470 c3        1 C6A      0.092800
     13 N13         4.1810    2.7340   -4.7570 ny        1 C6A     -0.768000
     14 C14         4.4880    4.1420   -5.2770 c3        1 C6A      0.219800
     15 C15         3.3130    4.6950   -5.9960 ca        1 C6A     -0.278300
     16 C16         3.2530    4.6210   -7.3960 ca        1 C6A      0.181100
     17 O17         4.1910    4.0100   -8.1870 os        1 C6A     -0.297900
     18 C18         5.3460    3.4350   -7.5440 c3        1 C6A      0.176100
     19 C19         5.6910    4.1010   -6.2190 c3        1 C6A     -0.144400
     20 C20         2.3050    5.3930   -5.3030 ca        1 C6A     -0.104000
     21 C21         1.2460    5.9780   -5.9820 ca        1 C6A     -0.081300
     22 C22         1.1900    5.8730   -7.3900 ca        1 C6A     -0.044000
     23 C23         2.1750    5.2090   -8.0970 ca        1 C6A     -0.141000
     24 C24         0.1750    6.7070   -5.2480 c3        1 C6A     -0.034100
     25 C25         0.4340    8.2090   -5.0740 c3        1 C6A     -0.050000
     26 C26         0.5520    8.8880   -6.4290 c3        1 C6A     -0.091433
     27 C27        -0.7490    8.8060   -4.3200 c3        1 C6A     -0.091433
     28 C28         1.7040    8.4410   -4.2710 c3        1 C6A     -0.091433
     29 C29         6.5060    3.5270   -8.4980 cx        1 C6A     -0.180700
     30 C30         6.6680    4.6950   -9.4370 cx        1 C6A     -0.098400
     31 C31         6.2920    3.3530   -9.9800 cx        1 C6A     -0.098400
     32 O32         4.2540    0.7930   -2.8100 oh        1 C6A     -0.591800
     33 N33         0.8280    1.9930   -1.8080 ny        1 C6A     -0.693800
     34 C34        -0.0870    1.3600   -2.8530 c         1 C6A      0.573100
     35 C35        -1.2490    0.5980   -2.3260 c3        1 C6A     -0.196100
     36 O36         0.2320    1.5790   -4.0120 o         1 C6A     -0.435100
     37 H1          0.3630   -1.9540   -0.4490 ha        1 C6A      0.157000
     38 H3          2.1630    1.7040    1.0750 ha        1 C6A      0.157000
     39 H5         -0.7590   -0.4360    3.4660 ha        1 C6A      0.205000
     40 H9          1.8180   -0.7650   -1.8310 hc        1 C6A      0.098200
     41 H9A         3.2190   -0.2720   -0.7800 hc        1 C6A      0.098200
     42 H10         2.7900    2.0680   -1.0140 hx        1 C6A      0.126700
     43 H11         2.4000    0.6740   -3.7930 h1        1 C6A      0.089700
     44 H12         3.5860    3.4130   -2.8400 hx        1 C6A      0.115200
     45 H12A        2.2210    3.1330   -4.0510 hx        1 C6A      0.115200
     46 HN13        3.8170    2.1750   -5.5380 hn        1 C6A      0.458300
     47 H14         4.7370    4.7590   -4.3620 hx        1 C6A      0.110700
     48 H18         5.0910    2.3460   -7.3820 h1        1 C6A      0.033700
     49 H19         6.5710    3.5830   -5.7560 hc        1 C6A      0.109700
     50 H19A        5.9950    5.1690   -6.4070 hc        1 C6A      0.109700
     51 H20         2.3870    5.5130   -4.2110 ha        1 C6A      0.118000
     52 H22         0.3520    6.3490   -7.9300 ha        1 C6A      0.172000
     53 H23         2.1500    5.1400   -9.1970 ha        1 C6A      0.184000
     54 H24        -0.7990    6.5810   -5.7970 hc        1 C6A      0.046200
     55 H24A        0.0480    6.2530   -4.2290 hc        1 C6A      0.046200
     56 H26         0.7070    9.9860   -6.2950 hc        1 C6A      0.042256
     57 H26A       -0.3790    8.7330   -7.0260 hc        1 C6A      0.042256
     58 H26B        1.4180    8.4750   -7.0010 hc        1 C6A      0.042256
     59 H27        -1.6940    8.6560   -4.8950 hc        1 C6A      0.042256
     60 H27A       -0.5930    9.9020   -4.1740 hc        1 C6A      0.042256
     61 H27B       -0.8580    8.3260   -3.3180 hc        1 C6A      0.042256
     62 H28         2.5860    8.0070   -4.8010 hc        1 C6A      0.042256
     63 H28A        1.6210    7.9660   -3.2640 hc        1 C6A      0.042256
     64 H28B        1.8750    9.5360   -4.1340 hc        1 C6A      0.042256
     65 H29         7.4180    3.0880   -8.0450 hc        1 C6A      0.096700
     66 H30         7.6850    5.0900   -9.6160 hc        1 C6A      0.090200
     67 H30A        5.9070    5.4960   -9.4270 hc        1 C6A      0.090200
     68 H31         7.0350    2.7690  -10.5540 hc        1 C6A      0.090200
     69 H31A        5.2630    3.1980  -10.3530 hc        1 C6A      0.090200
     70 HO32        4.1880   -0.1720   -2.7280 ho        1 C6A      0.459000
     71 HN33        0.9280    2.9910   -2.0260 hn        1 C6A      0.469800
     72 H35        -1.7370    0.0490   -3.1780 hc        1 C6A      0.130033
     73 H35A       -0.9340   -0.1440   -1.5440 hc        1 C6A      0.130033
     74 H35B       -2.0040    1.3000   -1.8820 hc        1 C6A      0.130033
     75 H132        5.0550    2.3000   -4.4280 hn        1 C6A      0.458300
     76 H332        0.3880    1.8980   -0.8760 hn        1 C6A      0.469800
@<TRIPOS>BOND
     1    1    2 ar  
     2    1    6 ar  
     3    1   37 1   
     4    2    3 ar  
     5    2    9 1   
     6    3    4 ar  
     7    3   38 1   
     8    4    5 ar  
     9    4    8 1   
    10    5    6 ar  
    11    5   39 1   
    12    6    7 1   
    13    9   10 1   
    14    9   40 1   
    15    9   41 1   
    16   10   11 1   
    17   10   33 1   
    18   10   42 1   
    19   11   12 1   
    20   11   32 1   
    21   11   43 1   
    22   12   13 1   
    23   12   44 1   
    24   12   45 1   
    25   13   14 1   
    26   13   46 1   
    27   13   75 1   
    28   14   15 1   
    29   14   19 1   
    30   14   47 1   
    31   15   16 ar  
    32   15   20 ar  
    33   16   17 1   
    34   16   23 ar  
    35   17   18 1   
    36   18   19 1   
    37   18   29 1   
    38   18   48 1   
    39   19   49 1   
    40   19   50 1   
    41   20   21 ar  
    42   20   51 1   
    43   21   22 ar  
    44   21   24 1   
    45   22   23 ar  
    46   22   52 1   
    47   23   53 1   
    48   24   25 1   
    49   24   54 1   
    50   24   55 1   
    51   25   26 1   
    52   25   27 1   
    53   25   28 1   
    54   26   56 1   
    55   26   57 1   
    56   26   58 1   
    57   27   59 1   
    58   27   60 1   
    59   27   61 1   
    60   28   62 1   
    61   28   63 1   
    62   28   64 1   
    63   29   30 1   
    64   29   31 1   
    65   29   65 1   
    66   30   31 1   
    67   30   66 1   
    68   30   67 1   
    69   31   68 1   
    70   31   69 1   
    71   32   70 1   
    72   33   34 1   
    73   33   71 1   
    74   33   76 1   
    75   34   35 1   
    76   34   36 2   
    77   35   72 1   
    78   35   73 1   
    79   35   74 1   
@<TRIPOS>SUBSTRUCTURE
     1 C6A         1 TEMP              0 ****  ****    0 ROOT
