@<TRIPOS>MOLECULE
C6B
   33    32     1     0     0
SMALL
bcc


@<TRIPOS>ATOM
      1 O1P        -1.7680    3.2680    1.9200 o         1 C6B     -0.906833
      2 P          -1.1420    2.3260    2.9200 p5        1 C6B      1.544500
      3 O2P        -2.1880    1.8800    3.9140 o         1 C6B     -0.906833
      4 O3P        -0.0250    3.0340    3.6490 o         1 C6B     -0.906833
      5 O3'        -0.5620    1.0640    2.1640 os        1 C6B     -0.729000
      6 C3'        -1.5170    0.1270    1.5080 c3        1 C6B      0.061000
      7 C2'        -1.4590    0.2950   -0.0480 c3        1 C6B      0.001000
      8 O2'        -0.7900    1.4000   -0.3690 oh        1 C6B     -0.381000
      9 C4'        -1.1690   -1.0830    1.7240 c3        1 C6B     -0.046000
     10 C5'        -0.4070   -1.1790    3.0160 c3        1 C6B      0.012000
     11 O5'        -0.1050   -2.5300    3.2850 oh        1 C6B     -0.395000
     12 O4'        -0.2020   -1.5130    0.4640 os        1 C6B     -0.303000
     13 C1'        -0.7100   -0.9610   -0.5780 c3        1 C6B      0.124000
     14 N1          0.3330   -0.5720   -1.4970 n3        1 C6B     -0.230000
     15 C6          0.0340   -0.3850   -2.8710 c2        1 C6B      0.120000
     16 C5          1.1130   -0.0790   -3.8200 c1        1 C6B     -0.395000
     17 C4          2.4980    0.0290   -3.3410 c1        1 C6B      0.182000
     18 N4          3.5460    0.3040   -4.2560 n3        1 C6B     -0.332000
     19 N3          2.7810   -0.1080   -1.9570 n1        1 C6B     -0.333000
     20 C2          1.6960   -0.3670   -1.0110 c1        1 C6B      0.343000
     21 O2          1.9410   -0.4840    0.1740 o         1 C6B     -0.400000
     22 H3'        -2.4260    0.2830    1.8340 h1        1 C6B      0.123000
     23 H2'        -2.3640    0.3290   -0.4180 h1        1 C6B      0.061000
     24 HO2'       -1.2990    1.9170   -0.8840 ho        1 C6B      0.300000
     25 H4'        -1.9580   -1.6600    1.7550 h1        1 C6B      0.074000
     26 H5'        -0.9510   -0.8150    3.7440 h1        1 C6B      0.062500
     27 H5'A        0.4250   -0.6670    2.9440 h1        1 C6B      0.062500
     28 HO5'        0.2170   -2.6030    4.1100 ho        1 C6B      0.292000
     29 H1'        -1.3380   -1.5720   -1.0140 h2        1 C6B      0.126000
     30 H6         -0.8870   -0.4570   -3.1850 h4        1 C6B      0.262000
     31 H5          0.9190   -0.0080   -4.7740 ha        1 C6B      0.153000
     32 HN4         3.3570    0.4380   -5.1400 hn        1 C6B      0.182000
     33 HN4A        4.4100    0.3460   -3.9610 hn        1 C6B      0.182000
@<TRIPOS>BOND
     1    1    2 1   
     2    2    3 1   
     3    2    4 1   
     4    2    5 1   
     5    5    6 1   
     6    6    7 1   
     7    6    9 1   
     8    6   22 1   
     9    7    8 1   
    10    7   13 1   
    11    7   23 1   
    12    8   24 1   
    13    9   10 1   
    14    9   12 1   
    15    9   25 1   
    16   10   11 1   
    17   10   26 1   
    18   10   27 1   
    19   11   28 1   
    20   12   13 1   
    21   13   14 1   
    22   13   29 1   
    23   14   15 1   
    24   14   20 1   
    25   15   16 1   
    26   15   30 1   
    27   16   31 1   
    28   17   18 1   
    29   17   19 1   
    30   18   32 1   
    31   18   33 1   
    32   20   21 1   
@<TRIPOS>SUBSTRUCTURE
     1 C6B         1 TEMP              0 ****  ****    0 ROOT
