@<TRIPOS>MOLECULE
C6B
   34    35     1     0     0
SMALL
bcc


@<TRIPOS>ATOM
      1 O1P         0.0000    0.0000    0.0000 o         1 C6B     -0.594833
      2 P           1.6100    0.0000    0.0000 p5        1 C6B      0.762900
      3 O2P         2.1470    0.0000    1.5180 o         1 C6B     -0.594833
      4 O3P         2.1030   -1.2080   -0.6990 o         1 C6B     -0.594833
      5 O3'         2.1460    1.3160   -0.7580 os        1 C6B     -0.456200
      6 C3'         1.9280    1.5540   -2.1500 c3        1 C6B      0.227100
      7 C2'         1.1320    2.8650   -2.3670 c3        1 C6B      0.125100
      8 O2'         0.4160    3.2170   -1.1810 oh        1 C6B     -0.557800
      9 C4'         3.2630    1.8620   -2.8750 c3        1 C6B      0.150100
     10 C5'         4.3950    1.0050   -2.3050 c3        1 C6B      0.211400
     11 O5'         5.5850    1.2210   -3.0640 oh        1 C6B     -0.622800
     12 O4'         3.4890    3.2580   -2.5870 os        1 C6B     -0.413600
     13 C1'         2.2140    3.9170   -2.6770 c3        1 C6B      0.194500
     14 N1          2.1450    5.0050   -1.6990 n         1 C6B      0.139000
     15 C6          2.9420    4.9740   -0.5930 cc        1 C6B     -0.036400
     16 C5          2.8690    5.9860    0.3040 cd        1 C6B     -0.336600
     17 C4          1.9680    7.0450    0.0680 cd        1 C6B      0.078500
     18 N4          1.8750    8.0860    0.9620 nz        1 C6B      0.269400
     19 N3          1.2130    7.0320   -1.0230 nc        1 C6B     -0.649100
     20 C2          1.3000    6.0330   -1.8990 c         1 C6B      0.717900
     21 O2          0.5980    6.0460   -2.8970 o         1 C6B     -0.727500
     22 H3'         1.4220    0.7180   -2.6180 h1        1 C6B      0.024700
     23 H2'         0.4560    2.7610   -3.2080 h1        1 C6B      0.006700
     24 HO2'       -0.4990    3.0200   -1.2960 ho        1 C6B      0.400000
     25 H4'         3.1590    1.7070   -3.9420 h1        1 C6B      0.007700
     26 H5'         4.1180   -0.0410   -2.3590 h1        1 C6B      0.030700
     27 H5'A        4.5710    1.2790   -1.2720 h1        1 C6B      0.030700
     28 HO5'        6.2310    0.5760   -2.8280 ho        1 C6B      0.381000
     29 H1'         2.0720    4.3050   -3.6780 h2        1 C6B      0.044700
     30 H6          3.7300    4.2360   -0.5140 h4        1 C6B      0.166000
     31 H5          3.4930    5.9820    1.1890 ha        1 C6B      0.112000
     32 HN4         2.7620    8.5420    1.0380 hn        1 C6B      0.167133
     33 HN4A        1.6040    7.7320    1.8590 hn        1 C6B      0.167133
     34 H43         1.1890    8.7410    0.6420 hn        1 C6B      0.167133
@<TRIPOS>BOND
     1    1    2 1   
     2    2    3 1   
     3    2    4 1   
     4    2    5 1   
     5    5    6 1   
     6    6    7 1   
     7    6    9 1   
     8    6   22 1   
     9    7    8 1   
    10    7   13 1   
    11    7   23 1   
    12    8   24 1   
    13    9   10 1   
    14    9   12 1   
    15    9   25 1   
    16   10   11 1   
    17   10   26 1   
    18   10   27 1   
    19   11   28 1   
    20   12   13 1   
    21   13   14 1   
    22   13   29 1   
    23   14   15 1   
    24   14   20 1   
    25   15   16 2   
    26   15   30 1   
    27   16   17 1   
    28   16   31 1   
    29   17   18 1   
    30   17   19 2   
    31   18   32 1   
    32   18   33 1   
    33   18   34 1   
    34   19   20 1   
    35   20   21 2   
@<TRIPOS>SUBSTRUCTURE
     1 C6B         1 TEMP              0 ****  ****    0 ROOT
