@<TRIPOS>MOLECULE
C6B
   33    34     1     0     0
SMALL
bcc


@<TRIPOS>ATOM
      1 O1P        -3.6610    1.0740   -0.9910 o         1 C6B     -0.914500
      2 P          -3.2100    0.8890    0.4290 p5        1 C6B      1.323900
      3 O2P        -3.0220    2.1000    1.2850 o         1 C6B     -0.914500
      4 O3P        -3.7300   -0.3590    1.0960 o         1 C6B     -0.914500
      5 O3'        -1.5400    0.3340    0.2000 os        1 C6B     -0.539200
      6 C3'        -1.3890   -0.5110   -0.8510 c3        1 C6B      0.222100
      7 C2'        -0.2080   -0.0950   -1.7920 c3        1 C6B      0.072100
      8 O2'         0.0800    1.2730   -1.6680 oh        1 C6B     -0.526800
      9 C4'        -0.9740   -1.9560   -0.4340 c3        1 C6B      0.048100
     10 C5'        -1.0770   -2.2680    1.0600 c3        1 C6B      0.160400
     11 O5'        -2.3330   -2.8170    1.3730 oh        1 C6B     -0.679800
     12 O4'         0.3900   -2.2010   -0.8510 os        1 C6B     -0.438600
     13 C1'         0.9820   -1.0260   -1.3940 c3        1 C6B      0.245500
     14 N1          1.9360   -0.4300   -0.4490 n         1 C6B     -0.355000
     15 C6          1.4970    0.2760    0.6360 cc        1 C6B      0.113600
     16 C5          2.3850    0.8040    1.5560 cd        1 C6B     -0.475600
     17 C4          3.7950    0.5860    1.3450 cd        1 C6B      0.711500
     18 N4          4.6930    1.0490    2.3230 nh        1 C6B     -0.895800
     19 N3          4.2700   -0.0750    0.2720 nc        1 C6B     -0.761100
     20 C2          3.3500   -0.6070   -0.6450 c         1 C6B      0.822900
     21 O2          3.7480   -1.2150   -1.6690 o         1 C6B     -0.682500
     22 H3'        -2.3360   -0.5520   -1.4710 h1        1 C6B      0.094700
     23 H2'        -0.4740   -0.3490   -2.8540 h1        1 C6B      0.023700
     24 HO2'        0.6630    1.4890   -2.4070 ho        1 C6B      0.359000
     25 H4'        -1.5860   -2.7010   -1.0120 h1        1 C6B      0.045700
     26 H5'        -0.3240   -3.0610    1.3250 h1        1 C6B      0.030200
     27 H5'A       -0.8790   -1.3430    1.6630 h1        1 C6B      0.030200
     28 HO5'       -2.9890   -2.0820    1.3270 ho        1 C6B      0.498000
     29 H1'         1.5810   -1.3740   -2.2860 h2        1 C6B      0.085700
     30 H6          0.3820    0.4330    0.7300 h4        1 C6B      0.275000
     31 H5          2.0070    1.3630    2.4170 ha        1 C6B      0.156000
     32 HN4         4.3590    1.8460    2.8150 hn        1 C6B      0.390300
     33 HN4A        5.6450    1.1180    2.0410 hn        1 C6B      0.390300
@<TRIPOS>BOND
     1    1    2 1   
     2    2    3 1   
     3    2    4 1   
     4    2    5 1   
     5    5    6 1   
     6    6    7 1   
     7    6    9 1   
     8    6   22 1   
     9    7    8 1   
    10    7   13 1   
    11    7   23 1   
    12    8   24 1   
    13    9   10 1   
    14    9   12 1   
    15    9   25 1   
    16   10   11 1   
    17   10   26 1   
    18   10   27 1   
    19   11   28 1   
    20   12   13 1   
    21   13   14 1   
    22   13   29 1   
    23   14   15 1   
    24   14   20 1   
    25   15   16 2   
    26   15   30 1   
    27   16   17 1   
    28   16   31 1   
    29   17   18 1   
    30   17   19 2   
    31   18   32 1   
    32   18   33 1   
    33   19   20 1   
    34   20   21 2   
@<TRIPOS>SUBSTRUCTURE
     1 C6B         1 TEMP              0 ****  ****    0 ROOT
