@<TRIPOS>MOLECULE
C6C
   30    30     1     0     0
SMALL
bcc


@<TRIPOS>ATOM
      1 N          -1.0140    1.6530   -2.3610 n3        1 C6C     -0.880800
      2 CA         -0.3560    0.4320   -2.8010 c3        1 C6C      0.012500
      3 C          -1.1570   -0.3790   -3.8890 c         1 C6C      0.890600
      4 O          -2.1670    0.1740   -4.4040 o         1 C6C     -0.834300
      5 CB         -0.0240   -0.5250   -1.6740 c3        1 C6C      0.031700
      6 SG          1.3720   -0.1250   -0.6580 ss        1 C6C     -0.219100
      7 SD          0.8130    1.2190    0.8600 ss        1 C6C     -0.206100
      8 C1          0.3500    0.1650    2.2260 c3        1 C6C      0.006400
      9 C2          0.6770    0.9510    3.4790 c3        1 C6C     -0.068400
     10 C3          0.2460    0.1990    4.7230 c3        1 C6C     -0.074900
     11 C4         -1.2230   -0.1650    4.6690 c3        1 C6C     -0.076400
     12 C5         -1.5460   -0.9490    3.4140 c3        1 C6C     -0.074900
     13 C6         -1.1200   -0.1950    2.1700 c3        1 C6C     -0.068400
     14 OXT        -0.7270   -1.5270   -4.1880 o         1 C6C     -0.834300
     15 H          -1.8300    1.4060   -1.8290 hn        1 C6C      0.333300
     16 H2         -1.3480    2.1220   -3.1880 hn        1 C6C      0.333300
     17 HA          0.6080    0.7470   -3.2990 h1        1 C6C      0.060700
     18 HB2        -0.9180   -0.7370   -1.0440 h1        1 C6C      0.089200
     19 HB3         0.3190   -1.4920   -2.1470 h1        1 C6C      0.089200
     20 H1          0.9620   -0.7730    2.1960 h1        1 C6C      0.072700
     21 H21         1.7800    1.1470    3.5230 hc        1 C6C      0.053450
     22 H22         0.1560    1.9450    3.4430 hc        1 C6C      0.053450
     23 H31         0.8580   -0.7360    4.8230 hc        1 C6C      0.034700
     24 H32         0.4450    0.8310    5.6280 hc        1 C6C      0.034700
     25 H41        -1.4940   -0.7710    5.5730 hc        1 C6C      0.032700
     26 H42        -1.8400    0.7710    4.6930 hc        1 C6C      0.032700
     27 H51        -1.0240   -1.9410    3.4480 hc        1 C6C      0.034700
     28 H52        -2.6480   -1.1500    3.3690 hc        1 C6C      0.034700
     29 H61        -1.7300    0.7410    2.0690 hc        1 C6C      0.053450
     30 H62        -1.3190   -0.8260    1.2630 hc        1 C6C      0.053450
@<TRIPOS>BOND
     1    1    2 1   
     2    1   15 1   
     3    1   16 1   
     4    2    3 1   
     5    2    5 1   
     6    2   17 1   
     7    3    4 1   
     8    3   14 1   
     9    5    6 1   
    10    5   18 1   
    11    5   19 1   
    12    6    7 1   
    13    7    8 1   
    14    8    9 1   
    15    8   13 1   
    16    8   20 1   
    17    9   10 1   
    18    9   21 1   
    19    9   22 1   
    20   10   11 1   
    21   10   23 1   
    22   10   24 1   
    23   11   12 1   
    24   11   25 1   
    25   11   26 1   
    26   12   13 1   
    27   12   27 1   
    28   12   28 1   
    29   13   29 1   
    30   13   30 1   
@<TRIPOS>SUBSTRUCTURE
     1 C6C         1 TEMP              0 ****  ****    0 ROOT
