@<TRIPOS>MOLECULE
C6G
   40    42     1     0     0
SMALL
bcc


@<TRIPOS>ATOM
      1 P          -6.2990   -0.1040   -0.8180 p5        1 C6G      1.332900
      2 OP1        -5.6880    1.1590   -1.3920 o         1 C6G     -0.934167
      3 OP2        -6.1230   -1.3260   -1.6740 o         1 C6G     -0.934167
      4 O5'        -5.1610   -0.3880    0.4680 os        1 C6G     -0.563200
      5 C5'        -3.8710   -0.5690    0.0480 c3        1 C6G      0.235400
      6 C4'        -3.0320    0.7030    0.3160 c3        1 C6G      0.066100
      7 O4'        -1.7190    0.3170    0.7960 os        1 C6G     -0.446600
      8 C1'        -0.7340    1.2170    0.2790 c3        1 C6G      0.256800
      9 N9          0.4980    0.4820    0.0340 na        1 C6G     -0.253000
     10 C8          0.6450   -0.8740   -0.3320 cc        1 C6G      0.414700
     11 N7          1.9250   -1.2800   -0.4120 nd        1 C6G     -0.536100
     12 C5          2.6870   -0.1540   -0.0750 ca        1 C6G     -0.197200
     13 C4          1.7970    0.9720    0.2190 ca        1 C6G      0.443800
     14 N3          2.2180    2.2160    0.5940 nb        1 C6G     -0.770000
     15 C2          3.5860    2.3330    0.6530 ca        1 C6G      0.848900
     16 N2          4.1080    3.6310    0.9370 nh        1 C6G     -0.900500
     17 N1          4.5280    1.3350    0.4230 nb        1 C6G     -0.845000
     18 C6          4.0840    0.1090    0.0580 ca        1 C6G      0.747600
     19 O6          4.9450   -0.9230   -0.1810 os        1 C6G     -0.380100
     20 C2'        -1.3320    1.9200   -0.9600 c3        1 C6G     -0.127400
     21 C3'        -2.8320    1.6000   -0.9220 c3        1 C6G      0.156100
     22 O3'        -3.5430    2.8120   -0.7970 oh        1 C6G     -0.678800
     23 C           7.1430   -1.9560   -0.3160 c         1 C6G      0.921600
     24 O           7.5360   -2.1630   -1.4960 o         1 C6G     -0.834800
     25 O7          7.4380   -2.6760    0.6770 o         1 C6G     -0.834800
     26 CH3         6.3520   -0.6490   -0.0400 c3        1 C6G      0.008400
     27 H5'        -3.3940   -1.4090    0.6360 h1        1 C6G      0.001700
     28 H5''       -3.8340   -0.8260   -1.0490 h1        1 C6G      0.001700
     29 H4'        -3.5110    1.2950    1.1430 h1        1 C6G      0.065700
     30 H1'        -0.5020    1.9720    1.0900 h2        1 C6G      0.060700
     31 H8         -0.2450   -1.4940   -0.5080 h5        1 C6G      0.091800
     32 H21         3.4750    4.1930    1.4660 hn        1 C6G      0.382300
     33 H22         5.0160    3.5980    1.3490 hn        1 C6G      0.382300
     34 H2'        -1.1580    3.0210   -0.8880 hc        1 C6G      0.052200
     35 H2''       -0.8800    1.5530   -1.9110 hc        1 C6G      0.052200
     36 H3'        -3.1670    1.0660   -1.8540 h1        1 C6G      0.085700
     37 HO3'       -4.4900    2.5750   -0.9350 ho        1 C6G      0.500000
     38 H31         6.6470    0.1360   -0.7810 h1        1 C6G      0.029700
     39 H32         6.5570   -0.3020    1.0040 h1        1 C6G      0.029700
     40 OP3        -7.6040    0.0550   -0.0960 o         1 C6G     -0.934167
@<TRIPOS>BOND
     1    1    2 1   
     2    1    3 1   
     3    1    4 1   
     4    1   40 1   
     5    4    5 1   
     6    5    6 1   
     7    5   27 1   
     8    5   28 1   
     9    6    7 1   
    10    6   21 1   
    11    6   29 1   
    12    7    8 1   
    13    8    9 1   
    14    8   20 1   
    15    8   30 1   
    16    9   10 1   
    17    9   13 1   
    18   10   11 2   
    19   10   31 1   
    20   11   12 1   
    21   12   13 ar  
    22   12   18 ar  
    23   13   14 ar  
    24   14   15 ar  
    25   15   16 1   
    26   15   17 ar  
    27   16   32 1   
    28   16   33 1   
    29   17   18 ar  
    30   18   19 1   
    31   19   26 1   
    32   20   21 1   
    33   20   34 1   
    34   20   35 1   
    35   21   22 1   
    36   21   36 1   
    37   22   37 1   
    38   23   24 1   
    39   23   25 1   
    40   23   26 1   
    41   26   38 1   
    42   26   39 1   
@<TRIPOS>SUBSTRUCTURE
     1 C6G         1 TEMP              0 ****  ****    0 ROOT
