@<TRIPOS>MOLECULE
C6G
   40    35     1     0     0
SMALL
bcc


@<TRIPOS>ATOM
      1 P           0.0730   -5.4860   -3.2840 p3        1 C6G      2.525000
      2 OP1         1.3990   -6.2230   -3.2010 o         1 C6G     -1.256000
      3 OP2        -0.9240   -6.1070   -2.2810 os        1 C6G     -0.908500
      4 O5'         0.2970   -3.9390   -2.9290 os        1 C6G     -0.725000
      5 C5'         0.7970   -3.5960   -1.6340 c3        1 C6G      0.085000
      6 C4'         1.4040   -2.2330   -1.6790 c3        1 C6G     -0.045000
      7 O4'         0.4960   -1.3350   -1.4730 os        1 C6G     -0.303000
      8 C1'         1.2160   -0.2150   -0.6940 c3        1 C6G      0.165000
      9 N9          0.5010    0.1370    0.3830 n3        1 C6G     -0.170000
     10 C8         -0.1220   -0.5510    1.3900 c1        1 C6G     -0.041000
     11 N7         -1.0130    0.2930    1.9870 n2        1 C6G     -0.109000
     12 C5         -0.9390    1.5090    1.3450 c1        1 C6G     -0.206000
     13 C4         -0.0060    1.4060    0.3590 c1        1 C6G      0.052000
     14 N3          0.3050    2.4930   -0.4040 n1        1 C6G     -0.244000
     15 C2         -0.3170    3.6850   -0.1840 c1        1 C6G      0.130000
     16 N2         -0.2670    4.8100   -0.9780 n3        1 C6G     -0.298000
     17 N1         -1.2640    3.8000    0.8130 n1        1 C6G     -0.319000
     18 C6         -1.5760    2.7330    1.5710 c1        1 C6G      0.249000
     19 O6         -2.2360    2.9320    2.8540 o         1 C6G     -0.138000
     20 C2'         2.5910   -0.8150   -0.2530 c3        1 C6G     -0.206000
     21 C3'         2.4890   -2.0690   -0.4700 c3        1 C6G      0.045000
     22 O3'         3.7740   -2.6110   -0.8730 oh        1 C6G     -0.406000
     23 C          -3.9850    3.9450    4.2020 c1        1 C6G      0.341000
     24 O          -4.3060    2.8550    4.8090 o         1 C6G     -0.571000
     25 O7         -4.2630    5.0490    4.7140 os        1 C6G     -0.908500
     26 CH3        -3.3070    3.8870    2.8200 c3        1 C6G     -0.092000
     27 H5'         1.4920   -4.2620   -1.3580 h1        1 C6G      0.041000
     28 H5''        0.0780   -3.6040   -1.0000 h1        1 C6G      0.041000
     29 H4'         1.8400   -2.0820   -2.5530 h1        1 C6G      0.105000
     30 H1'         1.3590    0.5640   -1.2740 h2        1 C6G      0.100000
     31 H8         -0.0050   -1.5380    1.5960 DU        1 C6G      0.221000
     32 H21        -0.7950    5.5480   -0.7730 hn        1 C6G      0.177500
     33 H22         0.2850    4.8420   -1.6550 hn        1 C6G      0.177500
     34 H2'         2.7480   -0.6450    0.6990 hc        1 C6G      0.091500
     35 H2''        3.2990   -0.4440   -0.7770 hc        1 C6G      0.091500
     36 H3'         2.1490   -2.5500    0.3800 h1        1 C6G      0.125000
     37 HO3'        4.1540   -2.9810   -0.1930 ho        1 C6G      0.299000
     38 H31        -3.9880    3.6090    2.1210 h1        1 C6G      0.069000
     39 H32        -2.9420    4.7970    2.5870 h1        1 C6G      0.069000
     40 OP3        -0.4910   -5.6060   -4.7110 o         1 C6G     -1.256000
@<TRIPOS>BOND
     1    1    2 1   
     2    1    4 1   
     3    1   40 1   
     4    4    5 1   
     5    5    6 1   
     6    5   27 1   
     7    5   28 1   
     8    6    7 1   
     9    6   21 1   
    10    6   29 1   
    11    7    8 1   
    12    8    9 1   
    13    8   20 1   
    14    8   30 1   
    15    9   10 1   
    16    9   13 1   
    17   10   11 1   
    18   11   12 1   
    19   12   18 1   
    20   13   14 1   
    21   15   16 1   
    22   15   17 1   
    23   16   32 1   
    24   16   33 1   
    25   19   26 1   
    26   20   21 1   
    27   20   34 1   
    28   20   35 1   
    29   21   22 1   
    30   21   36 1   
    31   22   37 1   
    32   23   24 1   
    33   23   26 1   
    34   26   38 1   
    35   26   39 1   
@<TRIPOS>SUBSTRUCTURE
     1 C6G         1 TEMP              0 ****  ****    0 ROOT
