@<TRIPOS>MOLECULE
C6L
   33    31     1     0     0
SMALL
bcc


@<TRIPOS>ATOM
      1 O4         -1.4000   -0.1670   -0.3260 o         1 C6L     -0.414000
      2 C5         -0.1850   -0.1670   -0.3260 c1        1 C6L      0.285000
      3 C6          0.5710   -0.1670    0.9840 c3        1 C6L     -0.185000
      4 C7         -0.4110   -0.1150    2.1330 c3        1 C6L     -0.162000
      5 C8          0.3440   -0.1400    3.4440 c3        1 C6L     -0.155000
      6 C9         -0.6360   -0.0510    4.5930 c3        1 C6L     -0.162000
      7 C10         0.1140   -0.1400    5.9040 c3        1 C6L     -0.208000
      8 N1          0.5240   -0.1620   -1.5550 n2        1 C6L     -0.327000
      9 C3         -0.1860   -0.1470   -2.7850 c3        1 C6L     -0.072000
     10 C4         -0.5610   -1.5610   -3.1680 c2        1 C6L      0.327000
     11 O2         -1.7600   -1.8450   -3.4290 o         1 C6L     -0.566500
     12 O1          0.3260   -2.4520   -3.2340 o         1 C6L     -0.566500
     13 C2          0.6880    0.4530   -3.8640 c3        1 C6L     -0.174000
     14 C1         -0.1850    1.0940   -4.9200 c3        1 C6L     -0.040000
     15 O3          0.6260    1.5880   -5.9630 oh        1 C6L     -0.357000
     16 H6          1.1570    0.6120    1.0210 hc        1 C6L      0.093000
     17 H6A         1.1070   -0.9810    1.0500 hc        1 C6L      0.093000
     18 H7         -0.9360    0.7070    2.0760 hc        1 C6L      0.097000
     19 H7A        -1.0080   -0.8860    2.0870 hc        1 C6L      0.097000
     20 H8          0.8500   -0.9720    3.5120 hc        1 C6L      0.072000
     21 H8A         0.9580    0.6180    3.4800 hc        1 C6L      0.072000
     22 H9         -1.1130    0.8000    4.5480 hc        1 C6L      0.083000
     23 H9A        -1.2750   -0.7860    4.5330 hc        1 C6L      0.083000
     24 H10         0.5760   -0.9980    5.9560 hc        1 C6L      0.065667
     25 H10A        0.7660    0.5840    5.9550 hc        1 C6L      0.065667
     26 H10B       -0.5160   -0.0630    6.6450 hc        1 C6L      0.065667
     27 HN1         1.4360   -0.1870   -1.5550 hn        1 C6L      0.237000
     28 H3         -0.9960    0.3900   -2.6860 h1        1 C6L      0.105000
     29 H2          1.2300   -0.2490   -4.2710 hc        1 C6L      0.073000
     30 H2A         1.2720    1.1290   -3.4710 hc        1 C6L      0.073000
     31 H1         -0.8050    0.4300   -5.2770 h1        1 C6L      0.105500
     32 H1A        -0.6880    1.8300   -4.5240 h1        1 C6L      0.105500
     33 HO3         0.1180    1.9990   -6.5640 ho        1 C6L      0.190000
@<TRIPOS>BOND
     1    1    2 1   
     2    2    3 1   
     3    3    4 1   
     4    3   16 1   
     5    3   17 1   
     6    4    5 1   
     7    4   18 1   
     8    4   19 1   
     9    5    6 1   
    10    5   20 1   
    11    5   21 1   
    12    6    7 1   
    13    6   22 1   
    14    6   23 1   
    15    7   24 1   
    16    7   25 1   
    17    7   26 1   
    18    8    9 1   
    19    8   27 1   
    20    9   10 1   
    21    9   13 1   
    22    9   28 1   
    23   10   11 1   
    24   10   12 1   
    25   13   14 1   
    26   13   29 1   
    27   13   30 1   
    28   14   15 1   
    29   14   31 1   
    30   14   32 1   
    31   15   33 1   
@<TRIPOS>SUBSTRUCTURE
     1 C6L         1 TEMP              0 ****  ****    0 ROOT
