@<TRIPOS>MOLECULE
C6L
   33    32     1     0     0
SMALL
bcc


@<TRIPOS>ATOM
      1 O4         -0.1330    2.1420    1.0990 o         1 C6L     -0.665100
      2 C5          0.3010    1.3040    0.2710 c         1 C6L      0.640100
      3 C6          1.7030    1.4810   -0.3030 c3        1 C6L     -0.156400
      4 C7          2.6180    0.3520    0.1160 c3        1 C6L     -0.083400
      5 C8          4.0330    0.5940   -0.3680 c3        1 C6L     -0.076400
      6 C9          4.9520   -0.5390    0.0380 c3        1 C6L     -0.083400
      7 C10         6.3620   -0.3080   -0.4400 c3        1 C6L     -0.090100
      8 N1         -0.4470    0.2670   -0.2120 n         1 C6L     -0.513900
      9 C3         -1.6640   -0.2090    0.4150 c3        1 C6L     -0.049300
     10 C4         -1.7370   -1.7840    0.4110 c         1 C6L      0.913600
     11 O2         -0.8730   -2.4260   -0.2510 o         1 C6L     -0.829800
     12 O1         -2.6610   -2.2980    1.0920 o         1 C6L     -0.829800
     13 C2         -2.9370    0.3270   -0.2490 c3        1 C6L     -0.072400
     14 C1         -3.1960    1.7650    0.1560 c3        1 C6L      0.121400
     15 O3         -4.2570    2.2640   -0.6540 oh        1 C6L     -0.617800
     16 H6          1.6490    1.5410   -1.4210 hc        1 C6L      0.053700
     17 H6A         2.1030    2.4580    0.0740 hc        1 C6L      0.053700
     18 H7          2.6130    0.2600    1.2340 hc        1 C6L      0.058200
     19 H7A         2.2440   -0.6230   -0.2960 hc        1 C6L      0.058200
     20 H8          4.0360    0.6980   -1.4850 hc        1 C6L      0.032700
     21 H8A         4.4170    1.5590    0.0560 hc        1 C6L      0.032700
     22 H9          4.9440   -0.6430    1.1550 hc        1 C6L      0.044200
     23 H9A         4.5620   -1.5040   -0.3840 hc        1 C6L      0.044200
     24 H10         6.3920   -0.2280   -1.5540 hc        1 C6L      0.026033
     25 H10A        6.7740    0.6360   -0.0110 hc        1 C6L      0.026033
     26 H10B        7.0210   -1.1540   -0.1300 hc        1 C6L      0.026033
     27 HN1         0.0180   -0.4410   -0.7480 hn        1 C6L      0.326500
     28 H3         -1.6670    0.1190    1.4960 h1        1 C6L      0.057700
     29 H2         -2.8730    0.2530   -1.3640 hc        1 C6L      0.061200
     30 H2A        -3.7910   -0.3210    0.0870 hc        1 C6L      0.061200
     31 H1         -3.4960    1.8200    1.2380 h1        1 C6L      0.026700
     32 H1A        -2.2780    2.3960    0.0090 h1        1 C6L      0.026700
     33 HO3        -4.3780    3.1840   -0.3960 ho        1 C6L      0.378000
@<TRIPOS>BOND
     1    1    2 2   
     2    2    3 1   
     3    2    8 1   
     4    3    4 1   
     5    3   16 1   
     6    3   17 1   
     7    4    5 1   
     8    4   18 1   
     9    4   19 1   
    10    5    6 1   
    11    5   20 1   
    12    5   21 1   
    13    6    7 1   
    14    6   22 1   
    15    6   23 1   
    16    7   24 1   
    17    7   25 1   
    18    7   26 1   
    19    8    9 1   
    20    8   27 1   
    21    9   10 1   
    22    9   13 1   
    23    9   28 1   
    24   10   11 1   
    25   10   12 1   
    26   13   14 1   
    27   13   29 1   
    28   13   30 1   
    29   14   15 1   
    30   14   31 1   
    31   14   32 1   
    32   15   33 1   
@<TRIPOS>SUBSTRUCTURE
     1 C6L         1 TEMP              0 ****  ****    0 ROOT
