@<TRIPOS>MOLECULE
C6L
   34    33     1     0     0
SMALL
bcc


@<TRIPOS>ATOM
      1 O4          1.3170    2.4570    0.2470 o         1 C6L     -0.471100
      2 C5          1.9040    1.3820    0.1690 c         1 C6L      0.560100
      3 C6          2.1920    0.4100    1.2750 c3        1 C6L     -0.167400
      4 C7          1.2700    0.6410    2.4540 c3        1 C6L     -0.076400
      5 C8          1.6200   -0.3000    3.5870 c3        1 C6L     -0.080400
      6 C9          0.6950   -0.0950    4.7680 c3        1 C6L     -0.078400
      7 C10         1.0390   -1.0240    5.9020 c3        1 C6L     -0.094100
      8 N1          2.4180    1.0060   -1.1870 n4        1 C6L     -0.670800
      9 C3          1.4570    0.0990   -1.9050 c3        1 C6L     -0.049500
     10 C4          1.7850   -1.4280   -1.5480 c         1 C6L      0.927600
     11 O2          2.8790   -1.6140   -0.9510 o         1 C6L     -0.766300
     12 O1          0.9180   -2.2450   -1.8970 o         1 C6L     -0.766300
     13 C2          1.5370    0.2440   -3.4150 c3        1 C6L     -0.128400
     14 C1          1.2430    1.6470   -3.9120 c3        1 C6L      0.105400
     15 O3          2.3550    2.5070   -3.7070 oh        1 C6L     -0.630800
     16 H6          3.2650    0.5500    1.5830 hc        1 C6L      0.121200
     17 H6A         2.0950   -0.6530    0.8970 hc        1 C6L      0.121200
     18 H7          0.2060    0.4750    2.1380 hc        1 C6L      0.056700
     19 H7A         1.3510    1.7060    2.7990 hc        1 C6L      0.056700
     20 H8          2.6820   -0.1290    3.9070 hc        1 C6L      0.049700
     21 H8A         1.5470   -1.3620    3.2310 hc        1 C6L      0.049700
     22 H9          0.7640    0.9700    5.1170 hc        1 C6L      0.041200
     23 H9A        -0.3660   -0.2690    4.4460 hc        1 C6L      0.041200
     24 H10         0.3450   -0.8600    6.7620 hc        1 C6L      0.036367
     25 H10A        0.9530   -2.0900    5.5790 hc        1 C6L      0.036367
     26 H10B        2.0840   -0.8490    6.2540 hc        1 C6L      0.036367
     27 HN1         2.5990    1.8480   -1.7470 hn        1 C6L      0.467800
     28 H3          0.4190    0.3380   -1.5480 hx        1 C6L      0.091700
     29 H2          2.5450   -0.0870   -3.7810 hc        1 C6L      0.089200
     30 H2A         0.7770   -0.4760   -3.8310 hc        1 C6L      0.089200
     31 H1          0.4070    2.1230   -3.3310 h1        1 C6L      0.061200
     32 H1A         0.9650    1.6240   -4.9990 h1        1 C6L      0.061200
     33 HO3         3.0180    2.2860   -4.3710 ho        1 C6L      0.411000
     34 H12         3.2860    0.4470   -1.0700 hn        1 C6L      0.467800
@<TRIPOS>BOND
     1    1    2 2   
     2    2    3 1   
     3    2    8 1   
     4    3    4 1   
     5    3   16 1   
     6    3   17 1   
     7    4    5 1   
     8    4   18 1   
     9    4   19 1   
    10    5    6 1   
    11    5   20 1   
    12    5   21 1   
    13    6    7 1   
    14    6   22 1   
    15    6   23 1   
    16    7   24 1   
    17    7   25 1   
    18    7   26 1   
    19    8    9 1   
    20    8   27 1   
    21    8   34 1   
    22    9   10 1   
    23    9   13 1   
    24    9   28 1   
    25   10   11 1   
    26   10   12 1   
    27   13   14 1   
    28   13   29 1   
    29   13   30 1   
    30   14   15 1   
    31   14   31 1   
    32   14   32 1   
    33   15   33 1   
@<TRIPOS>SUBSTRUCTURE
     1 C6L         1 TEMP              0 ****  ****    0 ROOT
