@<TRIPOS>MOLECULE
C6L
   34    33     1     0     0
SMALL
bcc


@<TRIPOS>ATOM
      1 O4          1.0860    2.4170    0.2570 o         1 C6L     -0.471100
      2 C5          1.7860    1.4120    0.1810 c         1 C6L      0.561100
      3 C6          2.1610    0.4680    1.2850 c3        1 C6L     -0.167400
      4 C7          1.2040    0.5900    2.4520 c3        1 C6L     -0.076400
      5 C8          1.6380   -0.3180    3.5840 c3        1 C6L     -0.080400
      6 C9          0.6810   -0.2200    4.7530 c3        1 C6L     -0.078400
      7 C10         1.1080   -1.1170    5.8870 c3        1 C6L     -0.094100
      8 N1          2.3570    1.1050   -1.1690 ny        1 C6L     -0.670800
      9 C3          1.5100    0.1070   -1.9090 c3        1 C6L     -0.049500
     10 C4          1.9920   -1.3790   -1.5570 c         1 C6L      0.927600
     11 O2          1.2230   -2.2810   -1.9260 o         1 C6L     -0.766300
     12 O1          3.0910   -1.4530   -0.9440 o         1 C6L     -0.766300
     13 C2          1.5960    0.2720   -3.4170 c3        1 C6L     -0.128400
     14 C1          1.1620    1.6400   -3.9090 c3        1 C6L      0.105400
     15 O3          2.1730    2.6120   -3.6790 oh        1 C6L     -0.630800
     16 H6          2.1830   -0.5970    0.8980 hc        1 C6L      0.121200
     17 H6A         3.2090    0.7180    1.6090 hc        1 C6L      0.121200
     18 H7          0.1690    0.3140    2.1200 hc        1 C6L      0.056700
     19 H7A         1.1670    1.6550    2.8050 hc        1 C6L      0.056700
     20 H8          2.6710   -0.0370    3.9190 hc        1 C6L      0.049700
     21 H8A         1.6830   -1.3790    3.2210 hc        1 C6L      0.049700
     22 H9         -0.3510   -0.5040    4.4160 hc        1 C6L      0.041200
     23 H9A         0.6320    0.8430    5.1100 hc        1 C6L      0.041200
     24 H10         1.1400   -2.1830    5.5560 hc        1 C6L      0.036367
     25 H10A        0.3890   -1.0330    6.7370 hc        1 C6L      0.036367
     26 H10B        2.1230   -0.8330    6.2540 hc        1 C6L      0.036367
     27 HN1         2.4560    1.9660   -1.7200 hn        1 C6L      0.467800
     28 H3          0.4460    0.2310   -1.5670 hx        1 C6L      0.091700
     29 H2          2.6390    0.0530   -3.7680 hc        1 C6L      0.089200
     30 H2A         0.9240   -0.5200   -3.8490 hc        1 C6L      0.089200
     31 H1          0.9050    1.5970   -5.0000 h1        1 C6L      0.061200
     32 H1A         0.2720    2.0200   -3.3370 h1        1 C6L      0.061200
     33 HO3         2.8670    2.4690   -4.3340 ho        1 C6L      0.411000
     34 H12         3.2790    0.6410   -1.0420 hn        1 C6L      0.467800
@<TRIPOS>BOND
     1    1    2 2   
     2    2    3 1   
     3    2    8 1   
     4    3    4 1   
     5    3   16 1   
     6    3   17 1   
     7    4    5 1   
     8    4   18 1   
     9    4   19 1   
    10    5    6 1   
    11    5   20 1   
    12    5   21 1   
    13    6    7 1   
    14    6   22 1   
    15    6   23 1   
    16    7   24 1   
    17    7   25 1   
    18    7   26 1   
    19    8    9 1   
    20    8   27 1   
    21    8   34 1   
    22    9   10 1   
    23    9   13 1   
    24    9   28 1   
    25   10   11 1   
    26   10   12 1   
    27   13   14 1   
    28   13   29 1   
    29   13   30 1   
    30   14   15 1   
    31   14   31 1   
    32   14   32 1   
    33   15   33 1   
@<TRIPOS>SUBSTRUCTURE
     1 C6L         1 TEMP              0 ****  ****    0 ROOT
