@<TRIPOS>MOLECULE
C6L
   34    33     1     0     0
SMALL
bcc


@<TRIPOS>ATOM
      1 O4          1.1860    2.4320    0.2230 o         1 C6L     -0.471100
      2 C5          1.8350    1.3930    0.1550 c         1 C6L      0.560100
      3 C6          2.1820    0.4520    1.2710 c3        1 C6L     -0.167400
      4 C7          1.2550    0.6450    2.4520 c3        1 C6L     -0.076400
      5 C8          1.6630   -0.2620    3.5940 c3        1 C6L     -0.080400
      6 C9          0.7340   -0.0930    4.7780 c3        1 C6L     -0.078400
      7 C10         1.1360   -0.9880    5.9210 c3        1 C6L     -0.094100
      8 N1          2.3660    1.0320   -1.1980 n4        1 C6L     -0.670800
      9 C3          1.4580    0.0640   -1.9040 c3        1 C6L     -0.049500
     10 C4          1.8720   -1.4370   -1.5310 c         1 C6L      0.927600
     11 O2          1.0520   -2.3070   -1.8690 o         1 C6L     -0.766300
     12 O1          2.9760   -1.5550   -0.9340 o         1 C6L     -0.766300
     13 C2          1.5260    0.1960   -3.4160 c3        1 C6L     -0.128400
     14 C1          1.1530    1.5740   -3.9290 c3        1 C6L      0.105400
     15 O3          2.2140    2.4980   -3.7350 oh        1 C6L     -0.630800
     16 H6          3.2470    0.6560    1.5710 hc        1 C6L      0.121200
     17 H6A         2.1440   -0.6190    0.9050 hc        1 C6L      0.121200
     18 H7          1.2780    1.7170    2.7840 hc        1 C6L      0.056700
     19 H7A         0.2000    0.4160    2.1440 hc        1 C6L      0.056700
     20 H8          2.7150   -0.0280    3.9050 hc        1 C6L      0.049700
     21 H8A         1.6470   -1.3300    3.2510 hc        1 C6L      0.049700
     22 H9          0.7460    0.9780    5.1140 hc        1 C6L      0.041200
     23 H9A        -0.3170   -0.3300    4.4650 hc        1 C6L      0.041200
     24 H10         2.1720   -0.7500    6.2650 hc        1 C6L      0.036367
     25 H10A        1.1080   -2.0610    5.6110 hc        1 C6L      0.036367
     26 H10B        0.4390   -0.8520    6.7830 hc        1 C6L      0.036367
     27 HN1         3.2650    0.5250   -1.0780 hn        1 C6L      0.467800
     28 H3          0.4080    0.2470   -1.5480 hx        1 C6L      0.091700
     29 H2          0.8080   -0.5700   -3.8220 hc        1 C6L      0.089200
     30 H2A         2.5510   -0.0820   -3.7800 hc        1 C6L      0.089200
     31 H1          0.8750    1.5230   -5.0150 h1        1 C6L      0.061200
     32 H1A         0.2920    2.0080   -3.3510 h1        1 C6L      0.061200
     33 HO3         2.8890    2.3080   -4.3970 ho        1 C6L      0.411000
     34 H12         2.4980    1.8770   -1.7680 hn        1 C6L      0.467800
@<TRIPOS>BOND
     1    1    2 2   
     2    2    3 1   
     3    2    8 1   
     4    3    4 1   
     5    3   16 1   
     6    3   17 1   
     7    4    5 1   
     8    4   18 1   
     9    4   19 1   
    10    5    6 1   
    11    5   20 1   
    12    5   21 1   
    13    6    7 1   
    14    6   22 1   
    15    6   23 1   
    16    7   24 1   
    17    7   25 1   
    18    7   26 1   
    19    8    9 1   
    20    8   27 1   
    21    8   34 1   
    22    9   10 1   
    23    9   13 1   
    24    9   28 1   
    25   10   11 1   
    26   10   12 1   
    27   13   14 1   
    28   13   29 1   
    29   13   30 1   
    30   14   15 1   
    31   14   31 1   
    32   14   32 1   
    33   15   33 1   
@<TRIPOS>SUBSTRUCTURE
     1 C6L         1 TEMP              0 ****  ****    0 ROOT
