@<TRIPOS>MOLECULE
C6P
   36    32     1     0     0
SMALL
bcc


@<TRIPOS>ATOM
      1 N           0.3360    0.7340    1.6170 n3        1 C6P     -0.310000
      2 C           2.6600    1.2070    1.8820 c1        1 C6P      0.319000
      3 O           2.6070    2.5180    1.9210 o         1 C6P     -0.584500
      4 P           0.5030   -3.9490   -3.2760 p3        1 C6P      2.508000
      5 OP3         1.4290   -3.1580   -4.2180 o         1 C6P     -1.249500
      6 OP1        -0.3760   -4.8460   -4.0770 os        1 C6P     -1.240000
      7 OP2         1.4010   -4.8450   -2.2500 o         1 C6P     -1.249500
      8 OP4        -0.3790   -2.9580   -2.4690 os        1 C6P     -0.727000
      9 C5M         0.2990   -1.9380   -1.5980 c3        1 C6P      0.088000
     10 C5         -0.4900   -0.5870   -1.6500 c2        1 C6P     -0.102000
     11 C6         -1.0300   -0.1620   -2.8200 c1        1 C6P     -0.078000
     12 N1         -1.8000    0.9220   -2.8430 n1        1 C6P     -0.171000
     13 C2         -2.0430    1.5990   -1.7020 c1        1 C6P     -0.101000
     14 C2A        -2.8810    2.9330   -1.7360 c3        1 C6P     -0.137000
     15 C3         -1.5020    1.1740   -0.5320 c1        1 C6P     -0.013000
     16 O3         -1.8000    1.8570    0.6810 oh        1 C6P     -0.306000
     17 C4         -0.7330    0.0890   -0.5110 c2        1 C6P     -0.134000
     18 C4A        -0.0660   -0.3970    0.8640 c3        1 C6P     -0.030000
     19 CA          1.5050    0.4130    2.3830 c2        1 C6P     -0.097000
     20 OXT         3.8380    0.5940    1.6630 o         1 C6P     -0.584500
     21 CB          1.2680    0.7580    3.8820 c3        1 C6P     -0.222000
     22 SG          2.7750    0.6470    4.7400 sh        1 C6P     -0.189000
     23 HN         -0.3090    0.9670    2.1530 hn        1 C6P      0.179000
     24 H5M1        1.1760   -1.8000   -1.8980 h1        1 C6P      0.056500
     25 H5M2        0.3180   -2.2460   -0.7350 h1        1 C6P      0.056500
     26 H6         -0.8560   -0.6420   -3.6270 ha        1 C6P      0.282000
     27 H2A1       -2.3980    3.6320   -1.2570 hc        1 C6P      0.060667
     28 H2A2       -3.0250    3.2130   -2.6640 hc        1 C6P      0.060667
     29 H2A3       -3.7100    2.7880   -1.3230 hc        1 C6P      0.060667
     30 HO3        -2.6630    1.6210    0.9700 ho        1 C6P      0.244000
     31 H4A1        0.8180   -1.0290    0.6430 h1        1 C6P      0.093000
     32 H4A2       -0.7180   -0.9140    1.3760 h1        1 C6P      0.093000
     33 HA          1.7060   -0.5740    2.2920 h4        1 C6P      0.088000
     34 HB1         0.6310    0.1320    4.2640 h1        1 C6P      0.113500
     35 HB2         0.9420    1.6080    3.9520 h1        1 C6P      0.113500
     36 HSG         2.5700    0.6400    5.9050 hs        1 C6P      0.109000
@<TRIPOS>BOND
     1    1   18 1   
     2    1   19 1   
     3    1   23 1   
     4    2    3 1   
     5    2   20 1   
     6    4    5 1   
     7    4    7 1   
     8    4    8 1   
     9    8    9 1   
    10    9   10 1   
    11    9   24 1   
    12    9   25 1   
    13   10   11 1   
    14   10   17 1   
    15   11   26 1   
    16   12   13 1   
    17   13   14 1   
    18   14   27 1   
    19   14   28 1   
    20   14   29 1   
    21   15   16 1   
    22   15   17 1   
    23   16   30 1   
    24   17   18 1   
    25   18   31 1   
    26   18   32 1   
    27   19   21 1   
    28   19   33 1   
    29   21   22 1   
    30   21   34 1   
    31   21   35 1   
    32   22   36 1   
@<TRIPOS>SUBSTRUCTURE
     1 C6P         1 TEMP              0 ****  ****    0 ROOT
