@<TRIPOS>MOLECULE
C6P
   36    36     1     0     0
SMALL
bcc


@<TRIPOS>ATOM
      1 N           2.6610   -1.2510   -1.7850 n3        1 C6P     -0.818200
      2 C           3.0630   -3.1980   -3.3040 c         1 C6P      0.915600
      3 O           2.1740   -3.9570   -2.8380 o         1 C6P     -0.848800
      4 P           0.7060    1.4250    3.6880 p5        1 C6P      1.318900
      5 OP3         2.0360    1.4200    4.4080 o         1 C6P     -0.924500
      6 OP1         0.0090    0.0920    3.6520 o         1 C6P     -0.924500
      7 OP2        -0.1540    2.6370    3.9010 o         1 C6P     -0.924500
      8 OP4         1.2250    1.6070    2.0390 os        1 C6P     -0.563200
      9 C5          3.1750    0.5620    1.1310 ca        1 C6P     -0.145600
     10 C6          4.0050    0.9280    2.2370 ca        1 C6P      0.370200
     11 N1          5.3290    1.0540    2.1750 nb        1 C6P     -0.690000
     12 C2          5.9350    0.8320    0.9720 ca        1 C6P      0.318600
     13 C2A         7.4150    0.9850    0.8590 c3        1 C6P     -0.111400
     14 C3          5.1900    0.4940   -0.1750 ca        1 C6P     -0.032200
     15 O3          5.8900    0.4050   -1.3670 oh        1 C6P     -0.544100
     16 C4          3.7810    0.3390   -0.1060 ca        1 C6P     -0.168300
     17 C4A         3.0080    0.0870   -1.3730 c3        1 C6P      0.215100
     18 CA          3.6810   -2.0640   -2.4090 c3        1 C6P      0.056500
     19 OXT         3.5680   -3.3270   -4.4610 o         1 C6P     -0.848800
     20 CB          4.6580   -2.7520   -1.4460 c3        1 C6P      0.019700
     21 SG          6.1230   -3.3520   -2.2770 sh        1 C6P     -0.561900
     22 HN          2.1770   -1.7590   -1.0720 hn        1 C6P      0.387800
     23 H5M1        1.1370    0.3090    0.4570 h1        1 C6P      0.018200
     24 H5M2        1.5230   -0.4340    2.0870 h1        1 C6P      0.018200
     25 H6          3.4660    1.1510    3.2230 h4        1 C6P      0.155100
     26 H2A1        7.9320    0.7470    1.8200 hc        1 C6P      0.021367
     27 H2A2        7.8030    0.3060    0.0590 hc        1 C6P      0.021367
     28 H2A3        7.6650    2.0380    0.5760 hc        1 C6P      0.021367
     29 HO3         5.5150   -0.3380   -1.8650 ho        1 C6P      0.421000
     30 H4A1        2.0230    0.6360   -1.2770 h1        1 C6P      0.047700
     31 H4A2        3.5720    0.5730   -2.2230 h1        1 C6P      0.047700
     32 HA          4.2750   -1.4010   -3.1060 h1        1 C6P      0.042700
     33 HB1         4.1450   -3.6140   -0.9570 h1        1 C6P      0.072700
     34 HB2         5.0270   -2.0540   -0.6560 h1        1 C6P      0.072700
     35 HSG         5.5590   -3.6670   -3.4610 hs        1 C6P      0.294800
     36 C5M         1.6920    0.4710    1.4280 c3        1 C6P      0.248700
@<TRIPOS>BOND
     1    1   17 1   
     2    1   18 1   
     3    1   22 1   
     4    2    3 1   
     5    2   18 1   
     6    2   19 1   
     7    4    5 1   
     8    4    6 1   
     9    4    7 1   
    10    4    8 1   
    11    8   36 1   
    12    9   10 ar  
    13    9   16 ar  
    14    9   36 1   
    15   10   11 ar  
    16   10   25 1   
    17   11   12 ar  
    18   12   13 1   
    19   12   14 ar  
    20   13   26 1   
    21   13   27 1   
    22   13   28 1   
    23   14   15 1   
    24   14   16 ar  
    25   15   29 1   
    26   16   17 1   
    27   17   30 1   
    28   17   31 1   
    29   18   20 1   
    30   18   32 1   
    31   20   21 1   
    32   20   33 1   
    33   20   34 1   
    34   21   35 1   
    35   23   36 1   
    36   24   36 1   
@<TRIPOS>SUBSTRUCTURE
     1 C6P         1 TEMP              0 ****  ****    0 ROOT
