@<TRIPOS>MOLECULE
C6P
   36    33     1     0     0
SMALL
bcc


@<TRIPOS>ATOM
      1 N          -0.3790    1.6020    0.3930 n3        1 C6P     -0.344000
      2 C           0.4980   -6.8540   -2.6600 c1        1 C6P      0.529000
      3 O           0.0200   -6.6160   -1.5910 o         1 C6P     -0.308000
      4 P           0.0690   -3.9010   -4.4220 p3        1 C6P      2.515000
      5 OP3        -1.2480   -4.1470   -5.0330 o         1 C6P     -1.146667
      6 OP1         0.5520   -4.8950   -3.4150 o         1 C6P     -1.146667
      7 OP2         1.0690   -3.0420   -5.0730 o         1 C6P     -1.146667
      8 OP4        -0.7720   -2.1790   -2.8830 o         1 C6P     -0.354000
      9 C5         -2.3400   -0.5980   -1.7780 c2        1 C6P     -0.061000
     10 C6         -3.7460   -0.9770   -1.8310 c2        1 C6P     -0.205000
     11 N1         -4.7590   -0.2190   -1.4580 n2        1 C6P     -0.111000
     12 C2         -4.4950    1.0240   -0.9620 c2        1 C6P     -0.292000
     13 C2A        -5.6130    1.9210   -0.5740 c3        1 C6P     -0.088000
     14 C3         -3.1500    1.4710   -0.8040 c2        1 C6P      0.143000
     15 O3         -3.0170    2.7390   -0.2750 oh        1 C6P     -0.308000
     16 C4         -2.0650    0.6670   -1.1550 c2        1 C6P     -0.280000
     17 C4A        -0.6470    1.1010   -0.9480 c3        1 C6P     -0.006000
     18 CA          0.9430    2.1840    0.5710 c3        1 C6P     -0.076000
     19 OXT         0.9760   -7.4160   -3.6080 o         1 C6P     -0.308000
     20 CB          1.2370    2.5840    2.0160 c3        1 C6P     -0.069000
     21 SG          2.7210    3.5060    2.1730 s         1 C6P     -0.941000
     22 HN         -0.5440    0.8820    1.0680 hn        1 C6P      0.145000
     23 H5M1        2.8250   -5.8680   -1.8590 ha        1 C6P      0.000500
     24 H5M2        2.4030   -5.4200   -2.1500 ha        1 C6P      0.000500
     25 H6         -3.9940   -1.9800   -2.2140 h4        1 C6P      0.125000
     26 H2A1       -6.5420    1.3520   -0.3180 hc        1 C6P      0.036667
     27 H2A2       -5.8620    2.6230   -1.4110 hc        1 C6P      0.036667
     28 H2A3       -5.3180    2.5360    0.3120 hc        1 C6P      0.036667
     29 HO3        -2.0860    2.8760   -0.0410 ho        1 C6P      0.240000
     30 H4A1       -0.4170    1.9430   -1.6660 h1        1 C6P      0.059500
     31 H4A2        0.0390    0.2450   -1.2220 h1        1 C6P      0.059500
     32 HA          1.7590    1.4880    0.2180 h1        1 C6P      0.066000
     33 HB1         0.9930    3.1050   -0.0750 h1        1 C6P      0.066000
     34 HB2         0.3910    3.1970    2.4160 h1        1 C6P      0.034500
     35 HSG         1.3080    1.6620    2.6460 h1        1 C6P      0.034500
     36 C5M        -1.4990   -1.2250   -2.6690 c1        1 C6P      0.062000
@<TRIPOS>BOND
     1    1   17 1   
     2    1   18 1   
     3    1   22 1   
     4    2    3 1   
     5    2   19 1   
     6    4    5 1   
     7    4    6 1   
     8    4    7 1   
     9    8   36 1   
    10    9   10 1   
    11    9   16 1   
    12    9   36 1   
    13   10   11 1   
    14   10   25 1   
    15   11   12 1   
    16   12   13 1   
    17   12   14 1   
    18   13   26 1   
    19   13   27 1   
    20   13   28 1   
    21   14   15 1   
    22   14   16 1   
    23   15   29 1   
    24   16   17 1   
    25   17   30 1   
    26   17   31 1   
    27   18   20 1   
    28   18   32 1   
    29   18   33 1   
    30   20   21 1   
    31   20   34 1   
    32   20   35 1   
    33   23   24 1   
@<TRIPOS>SUBSTRUCTURE
     1 C6P         1 TEMP              0 ****  ****    0 ROOT
