@<TRIPOS>MOLECULE
C6T
   46    47     1     0     0
SMALL
bcc


@<TRIPOS>ATOM
      1 O4          0.0000    0.0000    0.0000 o         1 C6T     -0.768500
      2 C4          1.2170    0.0000    0.0000 c         1 C6T      0.606700
      3 C5          1.9320    0.0000    1.2220 cc        1 C6T     -0.350400
      4 C7          1.1950   -0.0010    2.5370 c3        1 C6T      0.132100
      5 C6          3.2820   -0.0000    1.1940 cd        1 C6T     -0.267400
      6 N3          1.8980   -0.0050   -1.1650 ns        1 C6T     -0.147500
      7 C2          3.2440   -0.0050   -1.1630 c         1 C6T      0.583500
      8 O2          3.8440   -0.0110   -2.2200 o         1 C6T     -0.717500
      9 N1          3.9340   -0.0010   -0.0080 n         1 C6T      0.090000
     10 C1'         5.4000   -0.0020   -0.0390 c3        1 C6T      0.227500
     11 C2'         5.9220   -1.2820   -0.7280 c3        1 C6T     -0.114400
     12 C3'         7.1560   -0.8020   -1.5250 c3        1 C6T      0.156100
     13 O3'         8.3370   -1.4640   -1.0670 oh        1 C6T     -0.593800
     14 O4'         5.8860    1.0830   -0.8590 os        1 C6T     -0.345600
     15 C4'         7.2320    0.7110   -1.2240 c3        1 C6T      0.158100
     16 C5'         7.6800    1.4800   -2.4690 c3        1 C6T      0.283400
     17 O5'         7.8560    2.8590   -2.1380 os        1 C6T     -0.491200
     18 PA          8.3240    3.9650   -3.2120 p5        1 C6T      0.682700
     19 O1A         8.1670    5.4330   -2.5720 o         1 C6T     -0.541000
     20 O2A         7.4830    3.8620   -4.4250 o         1 C6T     -0.541000
     21 N3A         9.9350    3.7020   -3.6220 ny        1 C6T     -0.215200
     22 PB         10.4650    4.8380   -4.7430 p5        1 C6T      0.359500
     23 O1B         9.5690    4.7330   -6.0770 o         1 C6T     -0.515000
     24 O2B        10.3380    6.1960   -4.1690 o         1 C6T     -0.515000
     25 C3B        12.2110    4.5150   -5.1570 c3        1 C6T     -0.032800
     26 PG         12.7850    5.7460   -6.3730 p5        1 C6T      0.528700
     27 O2G        14.3270    5.4610   -6.7390 o         1 C6T     -0.637500
     28 O1G        12.6460    7.2240   -5.7480 o         1 C6T     -0.637500
     29 O3G        11.9610    5.6510   -7.5990 o         1 C6T     -0.637500
     30 H1          0.6830    0.9450    2.6650 hc        1 C6T     -0.017300
     31 H2          0.4710   -0.8070    2.5450 hc        1 C6T     -0.017300
     32 H3          1.9010   -0.1420    3.3460 hc        1 C6T     -0.017300
     33 H4          3.8450    0.0020    2.1190 h4        1 C6T      0.120000
     34 H5          1.4000   -0.0080   -2.0330 hn        1 C6T      0.183500
     35 H6          5.8030    0.0760    0.9630 h2        1 C6T      0.017700
     36 H7          6.2130   -2.0180    0.0120 hc        1 C6T      0.031700
     37 H8          5.1720   -1.6840   -1.3980 hc        1 C6T      0.031700
     38 H9          7.0080   -0.9690   -2.5850 h1        1 C6T      0.025700
     39 H10         8.5670   -2.1500   -1.6700 ho        1 C6T      0.377000
     40 H11         7.9080    0.8940   -0.3970 h1        1 C6T      0.020700
     41 H12         6.9260    1.3860   -3.2410 h1        1 C6T     -0.014800
     42 H13         8.6170    1.0720   -2.8280 h1        1 C6T     -0.014800
     43 H15        10.4980    3.7660   -2.7970 hn        1 C6T      0.266800
     44 H17        12.8140    4.5850   -4.2600 hc        1 C6T      0.000200
     45 H18        12.3050    3.5210   -5.5790 hc        1 C6T      0.000200
     46 H3A2       10.0280    2.7860   -4.0160 hn        1 C6T      0.266800
@<TRIPOS>BOND
     1    1    2 2   
     2    2    3 1   
     3    2    6 1   
     4    3    4 1   
     5    3    5 2   
     6    4   30 1   
     7    4   31 1   
     8    4   32 1   
     9    5    9 1   
    10    5   33 1   
    11    6    7 1   
    12    6   34 1   
    13    7    8 2   
    14    7    9 1   
    15    9   10 1   
    16   10   11 1   
    17   10   14 1   
    18   10   35 1   
    19   11   12 1   
    20   11   36 1   
    21   11   37 1   
    22   12   13 1   
    23   12   15 1   
    24   12   38 1   
    25   13   39 1   
    26   14   15 1   
    27   15   16 1   
    28   15   40 1   
    29   16   17 1   
    30   16   41 1   
    31   16   42 1   
    32   17   18 1   
    33   18   19 1   
    34   18   20 1   
    35   18   21 1   
    36   21   22 1   
    37   21   43 1   
    38   21   46 1   
    39   22   23 1   
    40   22   24 1   
    41   22   25 1   
    42   25   26 1   
    43   25   44 1   
    44   25   45 1   
    45   26   27 1   
    46   26   28 1   
    47   26   29 1   
@<TRIPOS>SUBSTRUCTURE
     1 C6T         1 TEMP              0 ****  ****    0 ROOT
