@<TRIPOS>MOLECULE
C6W
   44    44     1     0     0
SMALL
bcc


@<TRIPOS>ATOM
      1 C2          0.3010    0.1020   -0.0040 c3        1 C6W      0.078767
      2 C3          1.8270    0.2590    1.8950 c3        1 C6W      0.078767
      3 C1          2.5840   -0.6940   -0.2010 c3        1 C6W      0.078767
      4 C4          2.1950    1.6930   -0.0850 c3        1 C6W      0.090800
      5 C5          1.3330    2.9290    0.2470 c3        1 C6W      0.201400
      6 C10         4.8560    4.2460    8.0270 ca        1 C6W     -0.129000
      7 CAI         2.6570    3.8120    8.9270 ca        1 C6W     -0.129000
      8 C13         3.2300    3.4010   10.1290 ca        1 C6W     -0.130000
      9 C6          1.5840    4.0340    4.5430 c3        1 C6W      0.164400
     10 C7          2.2160    3.5360    5.8310 c3        1 C6W     -0.078400
     11 C9          3.4650    4.2380    7.8650 ca        1 C6W     -0.070300
     12 O3         -0.3140    4.7680    2.6160 o         1 C6W     -0.820000
     13 P           0.1720    3.3900    2.5380 p5        1 C6W      1.435800
     14 O4         -0.5380    2.1780    2.0590 o         1 C6W     -0.820000
     15 O1          1.5310    3.3320    1.5490 os        1 C6W     -0.572200
     16 N           1.7120    0.3540    0.4090 n4        1 C6W     -0.580800
     17 O2          0.9740    2.9510    3.8850 os        1 C6W     -0.575200
     18 C8          2.8480    4.6870    6.5880 c3        1 C6W     -0.040100
     19 C12         4.6170    3.4120   10.2830 ca        1 C6W     -0.137000
     20 C11         5.4270    3.8350    9.2300 ca        1 C6W     -0.130000
     21 H11C        2.2950   -1.7000    0.2020 hx        1 C6W      0.100033
     22 H12C        3.6550   -0.4850    0.0580 hx        1 C6W      0.100033
     23 H13C        2.4570   -0.6880   -1.3140 hx        1 C6W      0.100033
     24 H21C       -0.4030    0.7350    0.6230 hx        1 C6W      0.100033
     25 H22C        0.1860    0.3570   -1.0870 hx        1 C6W      0.100033
     26 H23C        0.0610   -0.9800    0.1650 hx        1 C6W      0.100033
     27 H31C        1.1530    1.0420    2.3670 hx        1 C6W      0.100033
     28 H32C        2.8890    0.4480    2.1960 hx        1 C6W      0.100033
     29 H33C        1.5000   -0.7600    2.2220 hx        1 C6W      0.100033
     30 H41C        3.2170    1.8570    0.3600 hx        1 C6W      0.078700
     31 H42C        2.2740    1.6150   -1.2050 hx        1 C6W      0.078700
     32 H51C        0.2470    2.7310    0.0310 h1        1 C6W      0.053200
     33 H52C        1.7170    3.7350   -0.4470 h1        1 C6W      0.053200
     34 H11         6.5210    3.8460    9.3490 ha        1 C6W      0.128000
     35 H12         5.0680    3.0880   11.2320 ha        1 C6W      0.127000
     36 H61C        0.8020    4.8170    4.7480 h1        1 C6W      0.039200
     37 H62C        2.3580    4.4700    3.8540 h1        1 C6W      0.039200
     38 H71C        1.4330    3.0420    6.4620 hc        1 C6W      0.047700
     39 H72C        2.9870    2.7600    5.5910 hc        1 C6W      0.047700
     40 H81C        3.6200    5.1800    5.9390 hc        1 C6W      0.050200
     41 H82C        2.0620    5.4600    6.8110 hc        1 C6W      0.050200
     42 HAI         1.5630    3.8050    8.8060 ha        1 C6W      0.132000
     43 H13         2.5870    3.0690   10.9570 ha        1 C6W      0.128000
     44 H10         5.5000    4.5800    7.2010 ha        1 C6W      0.132000
@<TRIPOS>BOND
     1    1   16 1   
     2    1   24 1   
     3    1   25 1   
     4    1   26 1   
     5    2   16 1   
     6    2   27 1   
     7    2   28 1   
     8    2   29 1   
     9    3   16 1   
    10    3   21 1   
    11    3   22 1   
    12    3   23 1   
    13    4    5 1   
    14    4   16 1   
    15    4   30 1   
    16    4   31 1   
    17    5   15 1   
    18    5   32 1   
    19    5   33 1   
    20    6   11 ar  
    21    6   20 ar  
    22    6   44 1   
    23    7    8 ar  
    24    7   11 ar  
    25    7   42 1   
    26    8   19 ar  
    27    8   43 1   
    28    9   10 1   
    29    9   17 1   
    30    9   36 1   
    31    9   37 1   
    32   10   18 1   
    33   10   38 1   
    34   10   39 1   
    35   11   18 1   
    36   12   13 1   
    37   13   14 1   
    38   13   15 1   
    39   13   17 1   
    40   18   40 1   
    41   18   41 1   
    42   19   20 ar  
    43   19   35 1   
    44   20   34 1   
@<TRIPOS>SUBSTRUCTURE
     1 C6W         1 TEMP              0 ****  ****    0 ROOT
