@<TRIPOS>MOLECULE
C6W
   44    44     1     0     0
SMALL
bcc


@<TRIPOS>ATOM
      1 C2         -5.0000    1.2150   -1.0420 c3        1 C6W      0.078767
      2 C3         -2.8280    1.9120   -0.1750 c3        1 C6W      0.078767
      3 C1         -4.8570    2.5000    1.0110 c3        1 C6W      0.078767
      4 C4         -4.1250    0.1920    1.0350 c3        1 C6W      0.090800
      5 C5         -3.6600   -1.1080    0.3460 c3        1 C6W      0.201400
      6 C10         4.7720    0.4170    1.4630 ca        1 C6W     -0.129000
      7 CAI         4.9250    0.4730   -0.9470 ca        1 C6W     -0.129000
      8 C13         6.0490    1.2910   -0.8560 ca        1 C6W     -0.130000
      9 C6          0.6910   -1.0540   -0.5520 c3        1 C6W      0.164400
     10 C7          1.8820   -0.1190   -0.4490 c3        1 C6W     -0.078400
     11 C9          4.2770    0.0290    0.2130 ca        1 C6W     -0.070300
     12 O3         -1.3310   -2.6890   -1.5990 o         1 C6W     -0.820000
     13 P          -1.6990   -1.2920   -1.3650 p5        1 C6W      1.435800
     14 O4         -2.6820   -0.4530   -2.0960 o         1 C6W     -0.820000
     15 O1         -2.2910   -1.1240    0.2000 os        1 C6W     -0.572200
     16 N          -4.1950    1.4390    0.1940 n4        1 C6W     -0.580800
     17 O2         -0.3930   -0.3540   -1.1110 os        1 C6W     -0.575200
     18 C8          3.0830   -0.8550    0.1110 c3        1 C6W     -0.040100
     19 C12         6.5370    1.6750    0.3940 ca        1 C6W     -0.137000
     20 C11         5.8970    1.2360    1.5520 ca        1 C6W     -0.130000
     21 H11C       -5.9120    2.1960    1.2370 hx        1 C6W      0.100033
     22 H12C       -4.2920    2.6400    1.9680 hx        1 C6W      0.100033
     23 H13C       -4.8630    3.4630    0.4370 hx        1 C6W      0.100033
     24 H21C       -4.4070    0.5910   -1.7810 hx        1 C6W      0.100033
     25 H22C       -5.9500    0.6880   -0.7690 hx        1 C6W      0.100033
     26 H23C       -5.2320    2.2070   -1.5100 hx        1 C6W      0.100033
     27 H31C       -2.9160    2.8610   -0.7630 hx        1 C6W      0.100033
     28 H32C       -2.2300    2.0800    0.7560 hx        1 C6W      0.100033
     29 H33C       -2.3230    1.1190   -0.8130 hx        1 C6W      0.100033
     30 H41C       -5.1610    0.0180    1.4410 hx        1 C6W      0.078700
     31 H42C       -3.4140    0.4070    1.8810 hx        1 C6W      0.078700
     32 H51C       -3.9610   -1.9300    1.0630 h1        1 C6W      0.053200
     33 H52C       -4.1880   -1.2530   -0.6370 h1        1 C6W      0.053200
     34 H11         6.2810    1.5340    2.5380 ha        1 C6W      0.128000
     35 H12         7.4250    2.3190    0.4640 ha        1 C6W      0.127000
     36 H61C        0.9220   -1.9410   -1.2070 h1        1 C6W      0.039200
     37 H62C        0.3790   -1.4280    0.4620 h1        1 C6W      0.039200
     38 H71C        2.1200    0.2930   -1.4640 hc        1 C6W      0.047700
     39 H72C        1.6180    0.7490    0.2080 hc        1 C6W      0.047700
     40 H81C        2.8260   -1.2720    1.1210 hc        1 C6W      0.050200
     41 H82C        3.3270   -1.7270   -0.5540 hc        1 C6W      0.050200
     42 HAI         4.5400    0.1710   -1.9320 ha        1 C6W      0.132000
     43 H13         6.5520    1.6350   -1.7720 ha        1 C6W      0.128000
     44 H10         4.2720    0.0720    2.3800 ha        1 C6W      0.132000
@<TRIPOS>BOND
     1    1   16 1   
     2    1   24 1   
     3    1   25 1   
     4    1   26 1   
     5    2   16 1   
     6    2   27 1   
     7    2   28 1   
     8    2   29 1   
     9    3   16 1   
    10    3   21 1   
    11    3   22 1   
    12    3   23 1   
    13    4    5 1   
    14    4   16 1   
    15    4   30 1   
    16    4   31 1   
    17    5   15 1   
    18    5   32 1   
    19    5   33 1   
    20    6   11 ar  
    21    6   20 ar  
    22    6   44 1   
    23    7    8 ar  
    24    7   11 ar  
    25    7   42 1   
    26    8   19 ar  
    27    8   43 1   
    28    9   10 1   
    29    9   17 1   
    30    9   36 1   
    31    9   37 1   
    32   10   18 1   
    33   10   38 1   
    34   10   39 1   
    35   11   18 1   
    36   12   13 1   
    37   13   14 1   
    38   13   15 1   
    39   13   17 1   
    40   18   40 1   
    41   18   41 1   
    42   19   20 ar  
    43   19   35 1   
    44   20   34 1   
@<TRIPOS>SUBSTRUCTURE
     1 C6W         1 TEMP              0 ****  ****    0 ROOT
