@<TRIPOS>MOLECULE
C6W
   44    44     1     0     0
SMALL
bcc


@<TRIPOS>ATOM
      1 C2          0.3570    0.0910   -0.0250 c3        1 C6W      0.078767
      2 C3          1.8830    0.2700    1.8720 c3        1 C6W      0.078767
      3 C1          2.6610   -0.6380   -0.2350 c3        1 C6W      0.078767
      4 C4          2.2060    1.7360   -0.0920 c3        1 C6W      0.090800
      5 C5          1.3100    2.9430    0.2550 c3        1 C6W      0.201400
      6 C10         4.8160    4.2770    8.0390 ca        1 C6W     -0.129000
      7 CAI         2.6340    3.7650    8.9400 ca        1 C6W     -0.129000
      8 C13         3.2240    3.3570   10.1350 ca        1 C6W     -0.130000
      9 C6          1.5400    4.0080    4.5630 c3        1 C6W      0.164400
     10 C7          2.1910    3.5140    5.8420 c3        1 C6W     -0.078400
     11 C9          3.4260    4.2280    7.8810 ca        1 C6W     -0.070300
     12 O3         -0.3820    4.7090    2.6480 o         1 C6W     -0.820000
     13 P           0.1430    3.3460    2.5540 p5        1 C6W      1.435800
     14 O4         -0.5340    2.1210    2.0630 o         1 C6W     -0.820000
     15 O1          1.5000    3.3370    1.5610 os        1 C6W     -0.572200
     16 N           1.7620    0.3790    0.3880 n4        1 C6W     -0.580800
     17 O2          0.9600    2.9160    3.8940 os        1 C6W     -0.575200
     18 C8          2.7910    4.6740    6.6120 c3        1 C6W     -0.040100
     19 C12         4.6100    3.4080   10.2850 ca        1 C6W     -0.137000
     20 C11         5.4040    3.8680    9.2350 ca        1 C6W     -0.130000
     21 H11C        2.5310   -0.6230   -1.3490 hx        1 C6W      0.100033
     22 H12C        3.7270   -0.4020    0.0230 hx        1 C6W      0.100033
     23 H13C        2.4010   -1.6560    0.1570 hx        1 C6W      0.100033
     24 H21C       -0.3620    0.6970    0.6100 hx        1 C6W      0.100033
     25 H22C        0.2320    0.3550   -1.1050 hx        1 C6W      0.100033
     26 H23C        0.1480   -0.9980    0.1320 hx        1 C6W      0.100033
     27 H31C        2.9400    0.4850    2.1740 hx        1 C6W      0.100033
     28 H32C        1.1880    1.0280    2.3550 hx        1 C6W      0.100033
     29 H33C        1.5850   -0.7610    2.1880 hx        1 C6W      0.100033
     30 H41C        3.2240    1.9230    0.3520 hx        1 C6W      0.078700
     31 H42C        2.2840    1.6730   -1.2130 hx        1 C6W      0.078700
     32 H51C        0.2300    2.7170    0.0400 h1        1 C6W      0.053200
     33 H52C        1.6700    3.7670   -0.4310 h1        1 C6W      0.053200
     34 H11         6.4970    3.9120    9.3510 ha        1 C6W      0.128000
     35 H12         5.0740    3.0870   11.2280 ha        1 C6W      0.127000
     36 H61C        2.2990    4.4740    3.8760 h1        1 C6W      0.039200
     37 H62C        0.7370    4.7660    4.7780 h1        1 C6W      0.039200
     38 H71C        1.4250    2.9890    6.4700 hc        1 C6W      0.047700
     39 H72C        2.9840    2.7630    5.5920 hc        1 C6W      0.047700
     40 H81C        1.9840    5.4210    6.8460 hc        1 C6W      0.050200
     41 H82C        3.5460    5.1970    5.9650 hc        1 C6W      0.050200
     42 HAI         1.5410    3.7260    8.8220 ha        1 C6W      0.132000
     43 H13         2.5950    2.9960   10.9610 ha        1 C6W      0.128000
     44 H10         5.4470    4.6410    7.2150 ha        1 C6W      0.132000
@<TRIPOS>BOND
     1    1   16 1   
     2    1   24 1   
     3    1   25 1   
     4    1   26 1   
     5    2   16 1   
     6    2   27 1   
     7    2   28 1   
     8    2   29 1   
     9    3   16 1   
    10    3   21 1   
    11    3   22 1   
    12    3   23 1   
    13    4    5 1   
    14    4   16 1   
    15    4   30 1   
    16    4   31 1   
    17    5   15 1   
    18    5   32 1   
    19    5   33 1   
    20    6   11 ar  
    21    6   20 ar  
    22    6   44 1   
    23    7    8 ar  
    24    7   11 ar  
    25    7   42 1   
    26    8   19 ar  
    27    8   43 1   
    28    9   10 1   
    29    9   17 1   
    30    9   36 1   
    31    9   37 1   
    32   10   18 1   
    33   10   38 1   
    34   10   39 1   
    35   11   18 1   
    36   12   13 1   
    37   13   14 1   
    38   13   15 1   
    39   13   17 1   
    40   18   40 1   
    41   18   41 1   
    42   19   20 ar  
    43   19   35 1   
    44   20   34 1   
@<TRIPOS>SUBSTRUCTURE
     1 C6W         1 TEMP              0 ****  ****    0 ROOT
