@<TRIPOS>MOLECULE
C6W
   44    41     1     0     0
SMALL
bcc


@<TRIPOS>ATOM
      1 C2         -1.1270   -1.4090   -4.2850 c3        1 C6W      0.078767
      2 C3         -2.0330   -3.5880   -4.0800 c3        1 C6W      0.078767
      3 C1          0.3100   -3.3040   -4.0000 c3        1 C6W      0.078767
      4 C4         -1.0610   -2.5500   -2.1710 c3        1 C6W      0.090800
      5 C5         -2.3090   -1.6340   -1.8150 c3        1 C6W      0.200400
      6 C10         3.1670    2.5030    2.4580 c1        1 C6W     -0.075000
      7 CAI         2.2220    2.9770    4.5810 c1        1 C6W     -0.071500
      8 C13         3.4830    3.0470    5.1280 c1        1 C6W     -0.075000
      9 C6         -1.3120    1.4820    1.8310 c3        1 C6W      0.171400
     10 C7         -0.1080    1.4790    2.8190 c3        1 C6W     -0.099400
     11 C9          2.0670    2.7040    3.2450 c1        1 C6W     -0.036100
     12 O3         -2.5110    0.9560   -0.8200 o         1 C6W     -0.819000
     13 P          -2.6650   -0.1020    0.2400 p5        1 C6W      1.439800
     14 O4         -4.0370   -0.0180    0.8320 o         1 C6W     -0.819000
     15 O1         -2.4510   -1.5470   -0.4160 os        1 C6W     -0.570200
     16 N          -0.9820   -2.7180   -3.6400 n4        1 C6W     -0.580800
     17 O2         -1.5750    0.1290    1.3870 os        1 C6W     -0.581200
     18 C8          0.6340    2.8600    2.7370 c3        1 C6W     -0.073300
     19 C12         4.5780    2.8460    4.3430 c1        1 C6W     -0.075000
     20 C11         4.4240    2.5730    3.0050 c1        1 C6W     -0.075000
     21 H11C        0.3970   -3.3310   -4.9940 hx        1 C6W      0.100144
     22 H12C        1.0370   -2.7580   -3.6220 hx        1 C6W      0.100144
     23 H13C        0.3650   -4.2180   -3.6420 hx        1 C6W      0.100144
     24 H21C       -0.7900   -1.4600   -5.2270 hx        1 C6W      0.100144
     25 H22C       -2.0880   -1.1460   -4.2900 hx        1 C6W      0.100144
     26 H23C       -0.6020   -0.7330   -3.7810 hx        1 C6W      0.100144
     27 H31C       -2.8860   -3.0930   -4.0990 hx        1 C6W      0.100144
     28 H32C       -2.1090   -4.3510   -3.4580 hx        1 C6W      0.100144
     29 H33C       -1.8270   -3.9170   -4.9760 hx        1 C6W      0.100144
     30 H41C       -0.2220   -2.1130   -1.8390 hx        1 C6W      0.079200
     31 H42C       -1.1660   -3.4470   -1.7360 hx        1 C6W      0.079200
     32 H51C       -2.1710   -0.7580   -2.1760 h1        1 C6W      0.053700
     33 H52C       -3.1210   -2.0220   -2.2030 h1        1 C6W      0.053700
     34 H10         3.0580    2.3080    1.4990 ha        1 C6W      0.070500
     35 H11         5.2100    2.4290    2.4430 ha        1 C6W      0.070500
     36 H12         5.4980    2.8980    4.7430 ha        1 C6W      0.070500
     37 H61C       -1.0950    2.0500    1.0480 h1        1 C6W      0.046700
     38 H62C       -2.1040    1.8370    2.2830 h1        1 C6W      0.046700
     39 H71C       -0.4440    1.3310    3.7590 hc        1 C6W      0.046700
     40 H72C        0.5100    0.7620    2.5770 hc        1 C6W      0.046700
     41 H81C        0.6510    3.1670    1.8010 hc        1 C6W      0.050700
     42 H82C        0.1640    3.5170    3.2860 hc        1 C6W      0.050700
     43 HAI         1.4280    3.1230    5.1510 ha        1 C6W      0.078500
     44 H13         3.5920    3.2390    6.0720 ha        1 C6W      0.070500
@<TRIPOS>BOND
     1    1   16 1   
     2    1   24 1   
     3    1   25 1   
     4    1   26 1   
     5    2   16 1   
     6    2   27 1   
     7    2   28 1   
     8    2   29 1   
     9    3   16 1   
    10    3   21 1   
    11    3   22 1   
    12    3   23 1   
    13    4    5 1   
    14    4   16 1   
    15    4   30 1   
    16    4   31 1   
    17    5   15 1   
    18    5   32 1   
    19    5   33 1   
    20    6   20 3   
    21    6   34 1   
    22    7   11 3   
    23    7   43 1   
    24    8   19 3   
    25    8   44 1   
    26    9   10 1   
    27    9   17 1   
    28    9   37 1   
    29    9   38 1   
    30   10   18 1   
    31   10   39 1   
    32   10   40 1   
    33   11   18 1   
    34   12   13 1   
    35   13   14 1   
    36   13   15 1   
    37   13   17 1   
    38   18   41 1   
    39   18   42 1   
    40   19   36 1   
    41   20   35 1   
@<TRIPOS>SUBSTRUCTURE
     1 C6W         1 TEMP              0 ****  ****    0 ROOT
