@<TRIPOS>MOLECULE
C6W
   44    44     1     0     0
SMALL
bcc


@<TRIPOS>ATOM
      1 C2          0.3150    0.0990   -0.0090 c3        1 C6W      0.078767
      2 C3          1.8460    0.2650    1.8850 c3        1 C6W      0.078767
      3 C1          2.6070   -0.6680   -0.2180 c3        1 C6W      0.078767
      4 C4          2.1900    1.7140   -0.0880 c3        1 C6W      0.090800
      5 C5          1.3150    2.9370    0.2530 c3        1 C6W      0.201400
      6 C10         4.8490    4.2560    8.0270 ca        1 C6W     -0.129000
      7 CAI         2.6590    3.7900    8.9330 ca        1 C6W     -0.129000
      8 C13         3.2430    3.3800   10.1300 ca        1 C6W     -0.130000
      9 C6          1.5670    4.0220    4.5540 c3        1 C6W      0.164400
     10 C7          2.2100    3.5260    5.8360 c3        1 C6W     -0.078400
     11 C9          3.4590    4.2310    7.8700 ca        1 C6W     -0.070300
     12 O3         -0.3460    4.7440    2.6380 o         1 C6W     -0.820000
     13 P           0.1560    3.3720    2.5500 p5        1 C6W      1.435800
     14 O4         -0.5410    2.1550    2.0680 o         1 C6W     -0.820000
     15 O1          1.5120    3.3350    1.5570 os        1 C6W     -0.572200
     16 N           1.7250    0.3660    0.4010 n4        1 C6W     -0.580800
     17 O2          0.9680    2.9360    3.8930 os        1 C6W     -0.575200
     18 C8          2.8310    4.6800    6.5980 c3        1 C6W     -0.040100
     19 C12         4.6290    3.4060   10.2780 ca        1 C6W     -0.137000
     20 C11         5.4310    3.8450    9.2250 ca        1 C6W     -0.130000
     21 H11C        2.3300   -1.6800    0.1800 hx        1 C6W      0.100033
     22 H12C        3.6760   -0.4480    0.0380 hx        1 C6W      0.100033
     23 H13C        2.4760   -0.6580   -1.3310 hx        1 C6W      0.100033
     24 H21C       -0.3940    0.7210    0.6230 hx        1 C6W      0.100033
     25 H22C        0.1930    0.3580   -1.0910 hx        1 C6W      0.100033
     26 H23C        0.0880   -0.9860    0.1550 hx        1 C6W      0.100033
     27 H31C        1.1640    1.0370    2.3640 hx        1 C6W      0.100033
     28 H32C        2.9060    0.4650    2.1840 hx        1 C6W      0.100033
     29 H33C        1.5320   -0.7600    2.2080 hx        1 C6W      0.100033
     30 H41C        3.2120    1.8870    0.3540 hx        1 C6W      0.078700
     31 H42C        2.2650    1.6420   -1.2090 hx        1 C6W      0.078700
     32 H51C        0.2300    2.7270    0.0400 h1        1 C6W      0.053200
     33 H52C        1.6870    3.7510   -0.4390 h1        1 C6W      0.053200
     34 H11         6.5240    3.8690    9.3400 ha        1 C6W      0.128000
     35 H12         5.0880    3.0830   11.2230 ha        1 C6W      0.127000
     36 H61C        0.7770    4.7960    4.7650 h1        1 C6W      0.039200
     37 H62C        2.3340    4.4720    3.8640 h1        1 C6W      0.039200
     38 H71C        1.4350    3.0180    6.4680 hc        1 C6W      0.047700
     39 H72C        2.9900    2.7600    5.5900 hc        1 C6W      0.047700
     40 H81C        3.5940    5.1860    5.9480 hc        1 C6W      0.050200
     41 H82C        2.0360    5.4420    6.8280 hc        1 C6W      0.050200
     42 HAI         1.5650    3.7700    8.8160 ha        1 C6W      0.132000
     43 H13         2.6070    3.0350   10.9590 ha        1 C6W      0.128000
     44 H10         5.4860    4.6030    7.1990 ha        1 C6W      0.132000
@<TRIPOS>BOND
     1    1   16 1   
     2    1   24 1   
     3    1   25 1   
     4    1   26 1   
     5    2   16 1   
     6    2   27 1   
     7    2   28 1   
     8    2   29 1   
     9    3   16 1   
    10    3   21 1   
    11    3   22 1   
    12    3   23 1   
    13    4    5 1   
    14    4   16 1   
    15    4   30 1   
    16    4   31 1   
    17    5   15 1   
    18    5   32 1   
    19    5   33 1   
    20    6   11 ar  
    21    6   20 ar  
    22    6   44 1   
    23    7    8 ar  
    24    7   11 ar  
    25    7   42 1   
    26    8   19 ar  
    27    8   43 1   
    28    9   10 1   
    29    9   17 1   
    30    9   36 1   
    31    9   37 1   
    32   10   18 1   
    33   10   38 1   
    34   10   39 1   
    35   11   18 1   
    36   12   13 1   
    37   13   14 1   
    38   13   15 1   
    39   13   17 1   
    40   18   40 1   
    41   18   41 1   
    42   19   20 ar  
    43   19   35 1   
    44   20   34 1   
@<TRIPOS>SUBSTRUCTURE
     1 C6W         1 TEMP              0 ****  ****    0 ROOT
