@<TRIPOS>MOLECULE
C70
   46    49     1     0     0
SMALL
bcc


@<TRIPOS>ATOM
      1 C01        -0.4290    0.3440    0.1360 cc        1 C70     -0.211200
      2 C02         0.8910   -0.0800    0.0840 cd        1 C70      0.096400
      3 S03         1.5830   -0.1800    1.6370 ss        1 C70      0.285500
      4 C04         0.2110    0.3170    2.4270 ca        1 C70     -0.161400
      5 C05        -0.8570    0.5870    1.4680 ca        1 C70     -0.103100
      6 C06        -0.1020    0.5200    3.7850 ca        1 C70      0.303800
      7 N07        -1.3540    0.9570    4.1730 nb        1 C70     -0.292000
      8 N08        -2.2770    1.1960    3.3560 nb        1 C70     -0.252000
      9 C09        -2.0900    1.0310    1.9870 ca        1 C70      0.449200
     10 N10        -3.2200    1.3430    1.1020 n4        1 C70     -0.741700
     11 C11         1.6570   -0.4100   -1.0790 ca        1 C70     -0.128800
     12 C12         0.9090    0.2720    4.8340 c         1 C70      0.464600
     13 C13        -4.2420    0.2210    1.0370 c3        1 C70      0.117500
     14 C14        -3.7950   -0.8770    0.0320 c3        1 C70      0.163800
     15 N15        -4.7520   -1.9560    0.0530 n3        1 C70     -0.823200
     16 C16        -6.1030   -1.5450   -0.2830 c3        1 C70      0.147800
     17 C17        -6.5990   -0.3960    0.5930 c3        1 C70     -0.080400
     18 C18        -5.6140    0.7590    0.6160 c3        1 C70     -0.104400
     19 C19         2.9160   -1.0340   -0.9350 ca        1 C70     -0.065000
     20 C20         3.6770   -1.3590   -2.0470 ca        1 C70     -0.124500
     21 C21         3.1960   -1.0640   -3.3350 ca        1 C70      0.080400
     22 C22         1.9480   -0.4430   -3.4910 ca        1 C70     -0.124500
     23 C23         1.1870   -0.1200   -2.3740 ca        1 C70     -0.065000
     24 CL24        4.1170   -1.4570   -4.6850 cl        1 C70      0.004600
     25 N25         0.4970    0.5190    6.2610 n4        1 C70     -0.737400
     26 O26         2.0560   -0.1180    4.6770 o         1 C70     -0.385100
     27 H01        -1.0680    0.4600   -0.7450 ha        1 C70      0.180000
     28 HN10       -2.8520    1.5280    0.1600 hn        1 C70      0.471300
     29 H13        -4.3170   -0.2180    2.0770 hx        1 C70      0.135700
     30 H14        -3.6830   -0.3970   -0.9870 h1        1 C70      0.040200
     31 H14A       -2.7920   -1.2890    0.3380 h1        1 C70      0.040200
     32 HN15       -4.4440   -2.7180   -0.5230 hn        1 C70      0.408800
     33 H16        -6.1930   -1.2370   -1.3660 h1        1 C70      0.067200
     34 H16A       -6.7690   -2.4410   -0.1210 h1        1 C70      0.067200
     35 H17        -6.7790   -0.7610    1.6380 hc        1 C70      0.084200
     36 H17A       -7.5790   -0.0310    0.1860 hc        1 C70      0.084200
     37 H18        -5.5550    1.2230   -0.4050 hc        1 C70      0.070700
     38 H18A       -5.9750    1.5390    1.3370 hc        1 C70      0.070700
     39 H19         3.3010   -1.2740    0.0710 ha        1 C70      0.138000
     40 H20         4.6580   -1.8480   -1.9230 ha        1 C70      0.179500
     41 H22         1.5710   -0.2080   -4.5010 ha        1 C70      0.179500
     42 H23         0.2140    0.3750   -2.5110 ha        1 C70      0.138000
     43 HN25        1.2860    0.3100    6.8920 hn        1 C70      0.486800
     44 HN2A       -0.3010   -0.0810    6.5090 hn        1 C70      0.486800
     45 H102       -3.6990    2.1920    1.4430 hn        1 C70      0.471300
     46 H253        0.2160    1.5000    6.3840 hn        1 C70      0.486800
@<TRIPOS>BOND
     1    1    2 2   
     2    1    5 1   
     3    1   27 1   
     4    2    3 1   
     5    2   11 1   
     6    3    4 1   
     7    4    5 ar  
     8    4    6 ar  
     9    5    9 ar  
    10    6    7 ar  
    11    6   12 1   
    12    7    8 ar  
    13    8    9 ar  
    14    9   10 1   
    15   10   13 1   
    16   10   28 1   
    17   10   45 1   
    18   11   19 ar  
    19   11   23 ar  
    20   12   25 1   
    21   12   26 2   
    22   13   14 1   
    23   13   18 1   
    24   13   29 1   
    25   14   15 1   
    26   14   30 1   
    27   14   31 1   
    28   15   16 1   
    29   15   32 1   
    30   16   17 1   
    31   16   33 1   
    32   16   34 1   
    33   17   18 1   
    34   17   35 1   
    35   17   36 1   
    36   18   37 1   
    37   18   38 1   
    38   19   20 ar  
    39   19   39 1   
    40   20   21 ar  
    41   20   40 1   
    42   21   22 ar  
    43   21   24 1   
    44   22   23 ar  
    45   22   41 1   
    46   23   42 1   
    47   25   43 1   
    48   25   44 1   
    49   25   46 1   
@<TRIPOS>SUBSTRUCTURE
     1 C70         1 TEMP              0 ****  ****    0 ROOT
