@<TRIPOS>MOLECULE
C70
   45    48     1     0     0
SMALL
bcc


@<TRIPOS>ATOM
      1 C01        -0.0760   -0.0020   -0.1180 cc        1 C70     -0.098200
      2 C02         1.3020   -0.0150   -0.0940 cd        1 C70     -0.044600
      3 S03         1.9020   -0.0710    1.4910 ss        1 C70      0.239500
      4 C04         0.4030   -0.0760    2.1950 ca        1 C70     -0.100400
      5 C05        -0.6230   -0.0360    1.2030 ca        1 C70     -0.279100
      6 C06        -0.0110   -0.1120    3.5610 ca        1 C70      0.131800
      7 N07        -1.3630   -0.1120    3.8670 nb        1 C70     -0.241000
      8 N08        -2.2740   -0.0770    3.0270 nb        1 C70     -0.347000
      9 C09        -2.0000   -0.0280    1.6180 ca        1 C70      0.724200
     10 N10        -3.0050    0.0390    0.7230 nu        1 C70     -0.776900
     11 C11         2.1850    0.0060   -1.2360 ca        1 C70     -0.060800
     12 C12         0.9610   -0.1500    4.6230 c         1 C70      0.486600
     13 C13        -4.4250    0.0410    1.0510 c3        1 C70      0.201500
     14 C14        -4.9650   -1.4020    1.2780 c3        1 C70      0.156800
     15 N15        -6.3690   -1.3790    1.6200 n7        1 C70     -0.821200
     16 C16        -7.2020   -0.7070    0.6420 c3        1 C70      0.155800
     17 C17        -6.7130    0.7060    0.3270 c3        1 C70     -0.078400
     18 C18        -5.2490    0.7090   -0.0620 c3        1 C70     -0.093400
     19 C19         3.4530    0.6010   -1.1380 ca        1 C70     -0.100500
     20 C20         4.3090    0.6240   -2.2340 ca        1 C70     -0.118000
     21 C21         3.9030    0.0480   -3.4440 ca        1 C70      0.036400
     22 C22         2.6420   -0.5480   -3.5530 ca        1 C70     -0.118000
     23 C23         1.7890   -0.5680   -2.4530 ca        1 C70     -0.100500
     24 Cl24        4.9420    0.0750   -4.7810 cl        1 C70     -0.055400
     25 N25         0.4100   -0.1900    6.0440 nz        1 C70     -0.745400
     26 O26         2.1880   -0.1550    4.5790 o         1 C70     -0.470100
     27 H01        -0.6780    0.0410   -1.0290 ha        1 C70      0.168000
     28 HN10       -2.7650    0.0390   -0.2470 hn        1 C70      0.458800
     29 H13        -4.5710    0.6330    2.0050 h1        1 C70      0.107700
     30 H14        -4.4140   -1.8730    2.1400 h1        1 C70      0.039200
     31 H14A       -4.7520   -2.0110    0.3500 h1        1 C70      0.039200
     32 HN15       -6.7000   -2.3120    1.7840 hn        1 C70      0.383800
     33 H16        -7.2670   -1.2830   -0.3280 h1        1 C70      0.044200
     34 H16A       -8.2410   -0.6470    1.0750 h1        1 C70      0.044200
     35 H17        -6.8690    1.3700    1.2180 hc        1 C70      0.064200
     36 H17A       -7.3240    1.1170   -0.5170 hc        1 C70      0.064200
     37 H18        -5.1160    0.1530   -1.0270 hc        1 C70      0.054200
     38 H18A       -4.9050    1.7640   -0.2210 hc        1 C70      0.054200
     39 H19         3.7740    1.0610   -0.1900 ha        1 C70      0.138000
     40 H20         5.3010    1.0950   -2.1480 ha        1 C70      0.161500
     41 H22         2.3230   -1.0030   -4.5050 ha        1 C70      0.161500
     42 H23         0.8010   -1.0450   -2.5390 ha        1 C70      0.138000
     43 HN25       -0.1750   -1.0210    6.1650 hn        1 C70      0.465800
     44 HN2A        1.1870   -0.2160    6.7130 hn        1 C70      0.465800
     45 H253       -0.1630    0.6400    6.2160 hn        1 C70      0.465800
@<TRIPOS>BOND
     1    1    2 2   
     2    1    5 1   
     3    1   27 1   
     4    2    3 1   
     5    2   11 1   
     6    3    4 1   
     7    4    5 ar  
     8    4    6 ar  
     9    5    9 ar  
    10    6    7 ar  
    11    6   12 1   
    12    7    8 ar  
    13    8    9 ar  
    14    9   10 1   
    15   10   13 1   
    16   10   28 1   
    17   11   19 ar  
    18   11   23 ar  
    19   12   25 1   
    20   12   26 2   
    21   13   14 1   
    22   13   18 1   
    23   13   29 1   
    24   14   15 1   
    25   14   30 1   
    26   14   31 1   
    27   15   16 1   
    28   15   32 1   
    29   16   17 1   
    30   16   33 1   
    31   16   34 1   
    32   17   18 1   
    33   17   35 1   
    34   17   36 1   
    35   18   37 1   
    36   18   38 1   
    37   19   20 ar  
    38   19   39 1   
    39   20   21 ar  
    40   20   40 1   
    41   21   22 ar  
    42   21   24 1   
    43   22   23 ar  
    44   22   41 1   
    45   23   42 1   
    46   25   43 1   
    47   25   44 1   
    48   25   45 1   
@<TRIPOS>SUBSTRUCTURE
     1 C70         1 TEMP              0 ****  ****    0 ROOT
