@<TRIPOS>MOLECULE
C70
   44    40     1     0     0
SMALL
bcc


@<TRIPOS>ATOM
      1 C01         1.2130   -0.2470   -0.9810 c1        1 C70     -0.056900
      2 C02         2.6510   -0.2350   -0.9610 ce        1 C70     -0.134200
      3 S03         3.1030   -0.2510    0.5120 ss        1 C70      0.234300
      4 C04         1.8070   -0.2730    1.4060 c1        1 C70     -0.059900
      5 C05         0.6850   -0.2710    0.5450 c1        1 C70     -0.170000
      6 C06         1.6250   -0.2390    2.7660 cg        1 C70     -0.079200
      7 N07         0.3550   -0.2040    3.2890 n1        1 C70     -0.073800
      8 N08        -0.7570   -0.2020    2.4360 n1        1 C70     -0.127000
      9 C09        -0.5810   -0.2350    1.0730 c1        1 C70      0.148000
     10 N10        -1.6890   -0.1180    0.1740 n3        1 C70     -0.306400
     11 C11         3.5380   -0.1430   -2.0380 cg        1 C70     -0.044300
     12 C12         2.6610   -0.2890    3.8740 c1        1 C70      0.602500
     13 C13        -3.0440   -0.0010    0.6970 c3        1 C70      0.037000
     14 C14        -3.8130   -1.2740    0.3600 c3        1 C70      0.139800
     15 N15        -5.2340   -1.1720    0.6910 n3        1 C70     -0.816200
     16 C16        -5.8670    0.0260    0.1230 c3        1 C70      0.160800
     17 C17        -5.1070    1.3010    0.4580 c3        1 C70     -0.076400
     18 C18        -3.6760    1.2060    0.1230 c3        1 C70     -0.087400
     19 C19         4.0380   -1.2910   -2.6380 c1        1 C70     -0.059500
     20 C20         4.9520   -1.1900   -3.6770 c1        1 C70     -0.059500
     21 C21         5.3670    0.0580   -4.1180 c1        1 C70      0.030900
     22 C22         4.8690    1.2050   -3.5190 c1        1 C70     -0.065500
     23 C23         3.9530    1.1050   -2.4780 c1        1 C70     -0.048500
     24 CL24        6.5220    0.1850   -5.4170 cl        1 C70     -0.100900
     25 N25         2.6700    0.7130    4.8830 n3        1 C70     -0.508400
     26 O26         3.5060   -1.1720    3.8810 o         1 C70     -0.634500
     27 H01         0.6530   -0.2410   -1.7780 DU        1 C70      0.152000
     28 HN10       -1.5450   -0.0880   -0.7260 hn        1 C70      0.270700
     29 H13        -3.0010    0.0950    1.6680 h1        1 C70      0.104700
     30 H14        -3.7230   -1.4530   -0.5950 h1        1 C70      0.036200
     31 H14A       -3.4260   -2.0170    0.8590 h1        1 C70      0.036200
     32 HN15       -5.6700   -1.9170    0.3930 hn        1 C70      0.369800
     33 H16        -5.9100   -0.0700   -0.8490 h1        1 C70      0.029700
     34 H16A       -6.7780    0.0990    0.4740 h1        1 C70      0.029700
     35 H17        -5.1970    1.4800    1.4150 hc        1 C70      0.053700
     36 H17A       -5.5020    2.0460   -0.0420 hc        1 C70      0.053700
     37 H18        -3.5800    1.1820   -0.8510 hc        1 C70      0.046200
     38 H18A       -3.2160    1.9990    0.4670 hc        1 C70      0.046200
     39 H19         3.7460   -2.1670   -2.3290 ha        1 C70      0.090500
     40 H20         5.3040   -1.9990   -4.0990 ha        1 C70      0.090500
     41 H22         5.1620    2.0860   -3.8300 ha        1 C70      0.091500
     42 H23         3.6030    1.9100   -2.0580 ha        1 C70      0.081500
     43 HN25        2.6790    1.5900    4.6510 hn        1 C70      0.286700
     44 HN2A        2.6560    0.4720    5.7680 hn        1 C70      0.286700
@<TRIPOS>BOND
     1    1    2 2   
     2    1    5 2   
     3    2    3 1   
     4    2   11 1   
     5    3    4 1   
     6    4    6 3   
     7    5    9 2   
     8    6    7 1   
     9    7    8 3   
    10    9   10 2   
    11   10   13 1   
    12   10   28 1   
    13   11   23 3   
    14   12   25 2   
    15   12   26 2   
    16   13   14 1   
    17   13   18 1   
    18   13   29 1   
    19   14   15 1   
    20   14   30 1   
    21   14   31 1   
    22   15   16 1   
    23   15   32 1   
    24   16   17 1   
    25   16   33 1   
    26   16   34 1   
    27   17   18 1   
    28   17   35 1   
    29   17   36 1   
    30   18   37 1   
    31   18   38 1   
    32   19   20 3   
    33   19   39 1   
    34   20   40 1   
    35   21   22 3   
    36   21   24 1   
    37   22   41 1   
    38   23   42 1   
    39   25   43 1   
    40   25   44 1   
@<TRIPOS>SUBSTRUCTURE
     1 C70         1 TEMP              0 ****  ****    0 ROOT
