@<TRIPOS>MOLECULE
C70
   45    48     1     0     0
SMALL
bcc


@<TRIPOS>ATOM
      1 C01        -0.0730    0.0050   -0.1160 cc        1 C70     -0.098200
      2 C02         1.3040   -0.0110   -0.0930 cd        1 C70     -0.044600
      3 S03         1.9050   -0.0740    1.4910 ss        1 C70      0.239500
      4 C04         0.4060   -0.0790    2.1960 ca        1 C70     -0.100400
      5 C05        -0.6200   -0.0340    1.2050 ca        1 C70     -0.279100
      6 C06        -0.0070   -0.1200    3.5620 ca        1 C70      0.131800
      7 N07        -1.3590   -0.1180    3.8690 nb        1 C70     -0.241000
      8 N08        -2.2700   -0.0790    3.0300 nb        1 C70     -0.347000
      9 C09        -1.9970   -0.0250    1.6200 ca        1 C70      0.724200
     10 N10        -3.0020    0.0480    0.7260 nh        1 C70     -0.776900
     11 C11         2.1870    0.0130   -1.2350 ca        1 C70     -0.060800
     12 C12         0.9650   -0.1640    4.6240 c         1 C70      0.486600
     13 C13        -4.4220    0.0510    1.0550 c3        1 C70      0.201500
     14 C14        -4.9650   -1.3920    1.2760 c3        1 C70      0.156800
     15 N15        -6.3690   -1.3670    1.6180 n3        1 C70     -0.821200
     16 C16        -7.2010   -0.6890    0.6440 c3        1 C70      0.155800
     17 C17        -6.7080    0.7240    0.3340 c3        1 C70     -0.078400
     18 C18        -5.2450    0.7250   -0.0560 c3        1 C70     -0.093400
     19 C19         3.4560    0.6070   -1.1360 ca        1 C70     -0.100500
     20 C20         4.3110    0.6330   -2.2320 ca        1 C70     -0.118000
     21 C21         3.9040    0.0620   -3.4440 ca        1 C70      0.036400
     22 C22         2.6420   -0.5340   -3.5550 ca        1 C70     -0.118000
     23 C23         1.7900   -0.5570   -2.4540 ca        1 C70     -0.100500
     24 CL24        4.9420    0.0920   -4.7810 cl        1 C70     -0.055400
     25 N25         0.4150   -0.2080    6.0440 n4        1 C70     -0.745400
     26 O26         2.1920   -0.1710    4.5790 o         1 C70     -0.470100
     27 H01        -0.6760    0.0520   -1.0280 ha        1 C70      0.168000
     28 HN10       -2.7630    0.0510   -0.2450 hn        1 C70      0.458800
     29 H13        -4.5660    0.6390    2.0110 h1        1 C70      0.107700
     30 H14        -4.4150   -1.8670    2.1360 h1        1 C70      0.039200
     31 H14A       -4.7540   -1.9970    0.3450 h1        1 C70      0.039200
     32 HN15       -6.7010   -2.3000    1.7780 hn        1 C70      0.383800
     33 H16        -8.2390   -0.6280    1.0770 h1        1 C70      0.044200
     34 H16A       -7.2670   -1.2610   -0.3290 h1        1 C70      0.044200
     35 H17        -6.8630    1.3840    1.2280 hc        1 C70      0.064200
     36 H17A       -7.3190    1.1400   -0.5080 hc        1 C70      0.064200
     37 H18        -4.8990    1.7800   -0.2100 hc        1 C70      0.054200
     38 H18A       -5.1130    0.1730   -1.0230 hc        1 C70      0.054200
     39 H19         3.7770    1.0630   -0.1860 ha        1 C70      0.138000
     40 H20         5.3040    1.1030   -2.1460 ha        1 C70      0.161500
     41 H22         2.3220   -0.9850   -4.5080 ha        1 C70      0.161500
     42 H23         0.8020   -1.0320   -2.5420 ha        1 C70      0.138000
     43 HN25       -0.1570    0.6220    6.2200 hn        1 C70      0.465800
     44 HN2A       -0.1710   -1.0390    6.1620 hn        1 C70      0.465800
     45 H253        1.1920   -0.2380    6.7130 hn        1 C70      0.465800
@<TRIPOS>BOND
     1    1    2 2   
     2    1    5 1   
     3    1   27 1   
     4    2    3 1   
     5    2   11 1   
     6    3    4 1   
     7    4    5 ar  
     8    4    6 ar  
     9    5    9 ar  
    10    6    7 ar  
    11    6   12 1   
    12    7    8 ar  
    13    8    9 ar  
    14    9   10 1   
    15   10   13 1   
    16   10   28 1   
    17   11   19 ar  
    18   11   23 ar  
    19   12   25 1   
    20   12   26 2   
    21   13   14 1   
    22   13   18 1   
    23   13   29 1   
    24   14   15 1   
    25   14   30 1   
    26   14   31 1   
    27   15   16 1   
    28   15   32 1   
    29   16   17 1   
    30   16   33 1   
    31   16   34 1   
    32   17   18 1   
    33   17   35 1   
    34   17   36 1   
    35   18   37 1   
    36   18   38 1   
    37   19   20 ar  
    38   19   39 1   
    39   20   21 ar  
    40   20   40 1   
    41   21   22 ar  
    42   21   24 1   
    43   22   23 ar  
    44   22   41 1   
    45   23   42 1   
    46   25   43 1   
    47   25   44 1   
    48   25   45 1   
@<TRIPOS>SUBSTRUCTURE
     1 C70         1 TEMP              0 ****  ****    0 ROOT
