@<TRIPOS>MOLECULE
C70
   44    47     1     0     0
SMALL
bcc


@<TRIPOS>ATOM
      1 C01         0.4320    0.4470    0.1300 cc        1 C70     -0.108200
      2 C02         1.5880   -0.2960    0.0060 cd        1 C70     -0.092600
      3 S03         1.2730   -1.9560   -0.1090 ss        1 C70      0.232500
      4 C04        -0.3760   -1.7660    0.0010 ca        1 C70     -0.122400
      5 C05        -0.7280   -0.3890    0.1280 ca        1 C70     -0.248100
      6 C06        -1.4340   -2.7150   -0.0150 ca        1 C70      0.257800
      7 N07        -2.7260   -2.2970    0.0840 nb        1 C70     -0.257000
      8 N08        -3.0670   -1.0820    0.1960 nb        1 C70     -0.391000
      9 C09        -2.1210   -0.0530    0.2390 ca        1 C70      0.670200
     10 N10        -2.4940    1.2570    0.4460 nh        1 C70     -0.833900
     11 C11         2.9340    0.2280   -0.0260 ca        1 C70     -0.021800
     12 C12        -1.0960   -4.1660   -0.1440 c         1 C70      0.585600
     13 C13        -3.8700    1.7110    0.3890 c3        1 C70      0.215500
     14 C14        -4.4000    1.8270   -1.0710 c3        1 C70      0.140800
     15 N15        -5.7650    2.3040   -1.1160 n3        1 C70     -0.816200
     16 C16        -5.9790    3.5550   -0.4170 c3        1 C70      0.160800
     17 C17        -5.4700    3.5180    1.0220 c3        1 C70     -0.076400
     18 C18        -4.0240    3.0770    1.0810 c3        1 C70     -0.087400
     19 C19         4.0120   -0.5710    0.3910 ca        1 C70     -0.111500
     20 C20         5.3120   -0.0770    0.3630 ca        1 C70     -0.120500
     21 C21         5.5480    1.2270   -0.0850 ca        1 C70      0.019400
     22 C22         4.4850    2.0330   -0.5050 ca        1 C70     -0.120500
     23 C23         3.1870    1.5320   -0.4750 ca        1 C70     -0.111500
     24 CL24        7.1340    1.8340   -0.1190 cl        1 C70     -0.089400
     25 N25        -2.0940   -5.0990   -0.1620 n         1 C70     -0.649000
     26 O26         0.1020   -4.5240   -0.2360 o         1 C70     -0.640100
     27 H01         0.3960    1.5340    0.2330 ha        1 C70      0.152000
     28 HN10       -1.7990    1.9420    0.2460 hn        1 C70      0.425800
     29 H13        -4.5120    0.9610    0.9400 h1        1 C70      0.104700
     30 H14        -3.6960    2.4920   -1.6540 h1        1 C70      0.036200
     31 H14A       -4.3880    0.8050   -1.5450 h1        1 C70      0.036200
     32 HN15       -6.0680    2.3810   -2.0690 hn        1 C70      0.369800
     33 H16        -5.4840    4.4260   -0.9430 h1        1 C70      0.029700
     34 H16A       -7.0880    3.7490   -0.4110 h1        1 C70      0.029700
     35 H17        -5.5700    4.5430    1.4640 hc        1 C70      0.053700
     36 H17A       -6.1040    2.8200    1.6300 hc        1 C70      0.053700
     37 H18        -3.6950    3.0040    2.1490 hc        1 C70      0.046700
     38 H18A       -3.3770    3.8410    0.5740 hc        1 C70      0.046700
     39 H19         3.8260   -1.5970    0.7480 ha        1 C70      0.141000
     40 H20         6.1490   -0.7120    0.6930 ha        1 C70      0.150500
     41 H22         4.6720    3.0580   -0.8600 ha        1 C70      0.150500
     42 H23         2.3520    2.1650   -0.8130 ha        1 C70      0.141000
     43 HN25       -3.0470   -4.8490   -0.0890 hn        1 C70      0.323500
     44 HN2A       -1.8530   -6.0560   -0.2450 hn        1 C70      0.323500
@<TRIPOS>BOND
     1    1    2 2   
     2    1    5 1   
     3    1   27 1   
     4    2    3 1   
     5    2   11 1   
     6    3    4 1   
     7    4    5 ar  
     8    4    6 ar  
     9    5    9 ar  
    10    6    7 ar  
    11    6   12 1   
    12    7    8 ar  
    13    8    9 ar  
    14    9   10 1   
    15   10   13 1   
    16   10   28 1   
    17   11   19 ar  
    18   11   23 ar  
    19   12   25 1   
    20   12   26 2   
    21   13   14 1   
    22   13   18 1   
    23   13   29 1   
    24   14   15 1   
    25   14   30 1   
    26   14   31 1   
    27   15   16 1   
    28   15   32 1   
    29   16   17 1   
    30   16   33 1   
    31   16   34 1   
    32   17   18 1   
    33   17   35 1   
    34   17   36 1   
    35   18   37 1   
    36   18   38 1   
    37   19   20 ar  
    38   19   39 1   
    39   20   21 ar  
    40   20   40 1   
    41   21   22 ar  
    42   21   24 1   
    43   22   23 ar  
    44   22   41 1   
    45   23   42 1   
    46   25   43 1   
    47   25   44 1   
@<TRIPOS>SUBSTRUCTURE
     1 C70         1 TEMP              0 ****  ****    0 ROOT
