@<TRIPOS>MOLECULE
C71
   70    72     1     0     0
SMALL
bcc


@<TRIPOS>ATOM
      1 C2          0.0950    3.0620    0.0310 c3        1 C71     -0.077400
      2 C5          1.9810    1.2150   -2.6260 c2        1 C71      0.953200
      3 C6          2.4320    1.6630   -4.0160 c3        1 C71     -0.197400
      4 C1          1.1130    3.2230    1.1530 c3        1 C71     -0.054000
      5 C3          0.3180    1.8020   -0.8340 c3        1 C71      0.152500
      6 C9          2.4850   -1.4960   -0.1260 ca        1 C71     -0.352500
      7 N4          1.0690    2.0840   -2.0320 nh        1 C71     -0.839200
      8 N7          2.4500    0.1650   -2.0710 ne        1 C71     -1.103300
      9 S8          3.2000   -1.0950   -1.6270 sy        1 C71      1.681700
     10 O10         2.9540   -2.1720   -2.5080 o         1 C71     -0.674800
     11 O11         4.5610   -0.8110   -1.3800 o         1 C71     -0.674800
     12 C12        -1.0970    1.2500   -1.1850 c         1 C71      0.629100
     13 N13        -1.6620    0.3830   -0.2790 n         1 C71     -0.540900
     14 O14        -1.6630    1.5850   -2.2470 o         1 C71     -0.626100
     15 C15        -3.0310   -0.1050   -0.3770 c3        1 C71      0.113400
     16 C17        -3.1550   -1.2390   -1.4240 c3        1 C71     -0.059900
     17 C18        -2.4020   -2.4890   -1.0410 c3        1 C71     -0.319600
     18 S19        -2.9170   -3.2040    0.4130 s6        1 C71      1.326000
     19 C20        -2.7850   -1.8610    1.4620 c3        1 C71     -0.319600
     20 C21        -3.5260   -0.6350    0.9900 c3        1 C71     -0.059900
     21 C22         2.8990   -0.8640    1.0510 ca        1 C71     -0.032500
     22 C23         2.3800   -1.2460    2.2860 ca        1 C71     -0.169000
     23 C24         1.4330   -2.2690    2.3550 ca        1 C71     -0.086000
     24 C25         1.0050   -2.9040    1.1890 ca        1 C71     -0.169000
     25 C26         1.5340   -2.5170   -0.0420 ca        1 C71     -0.032500
     26 C27         0.9850    2.1060    2.2010 c3        1 C71     -0.077400
     27 C28         1.1420    2.7430    3.5750 c3        1 C71     -0.077900
     28 C29         1.0990    4.2530    3.3910 c3        1 C71     -0.077900
     29 C30         0.8160    4.5260    1.9210 c3        1 C71     -0.077400
     30 C31         2.5290    3.2720    0.6070 c3        1 C71     -0.084100
     31 O32        -4.2530   -3.6130    0.3190 o         1 C71     -0.653800
     32 O33        -1.9740   -4.1650    0.8120 o         1 C71     -0.653800
     33 C16        -4.0490    0.9990   -0.8360 c3        1 C71      0.144800
     34 H21         0.1170    3.9850   -0.6080 hc        1 C71      0.058200
     35 H22A       -0.9310    3.0060    0.4860 hc        1 C71      0.058200
     36 H61         3.2480    1.0030   -4.3980 hc        1 C71      0.074700
     37 H62         1.5670    1.6060   -4.7220 hc        1 C71      0.074700
     38 H63         2.8130    2.7130   -3.9800 hc        1 C71      0.074700
     39 H3          0.8790    1.0370   -0.2180 h1        1 C71      0.103700
     40 HN4         0.6290    2.7390   -2.6450 hn        1 C71      0.440800
     41 HN13       -1.2390    0.3140    0.6190 hn        1 C71      0.315500
     42 H171       -4.2450   -1.4840   -1.5410 hc        1 C71      0.074450
     43 H172       -2.7830   -0.8620   -2.4140 hc        1 C71      0.074450
     44 H181       -2.5140   -3.2240   -1.8870 h1        1 C71      0.120950
     45 H182       -1.3000   -2.2610   -1.0100 h1        1 C71      0.120950
     46 H201       -3.1970   -2.1350    2.4740 h1        1 C71      0.120950
     47 H202       -1.7070   -1.6150    1.6530 h1        1 C71      0.120950
     48 H211       -3.4500    0.1800    1.7570 hc        1 C71      0.074450
     49 H212       -4.6160   -0.8900    0.8850 hc        1 C71      0.074450
     50 H22         3.6670   -0.0720    0.9970 ha        1 C71      0.152000
     51 H23         2.7260   -0.7510    3.2050 ha        1 C71      0.154000
     52 H24         1.0320   -2.5840    3.3310 ha        1 C71      0.134000
     53 H25         0.2630   -3.7210    1.2390 ha        1 C71      0.154000
     54 H26         1.2200   -3.0390   -0.9640 ha        1 C71      0.152000
     55 H271       -0.0200    1.6170    2.1200 hc        1 C71      0.042700
     56 H272        1.7560    1.3100    2.0370 hc        1 C71      0.042700
     57 H281        2.1130    2.4350    4.0390 hc        1 C71      0.043700
     58 H282        0.3250    2.4030    4.2590 hc        1 C71      0.043700
     59 H291        2.0780    4.7070    3.6870 hc        1 C71      0.043700
     60 H292        0.3100    4.7130    4.0370 hc        1 C71      0.043700
     61 H301        1.4450    5.3650    1.5360 hc        1 C71      0.042700
     62 H302       -0.2570    4.8190    1.7860 hc        1 C71      0.042700
     63 H311        2.6120    4.0500   -0.1900 hc        1 C71      0.039700
     64 H312        3.2430    3.5240    1.4280 hc        1 C71      0.039700
     65 H313        2.8240    2.2860    0.1740 hc        1 C71      0.039700
     66 H341       -3.1220    2.7700   -0.5100 hn        1 C71      0.355300
     67 H342       -4.7220    2.7940   -0.2020 hn        1 C71      0.355300
     68 H161       -3.9340    1.1170   -1.9540 h1        1 C71      0.051700
     69 H162       -5.0830    0.5990   -0.6380 h1        1 C71      0.051700
     70 N34        -3.8880    2.2460   -0.1310 n3        1 C71     -0.921800
@<TRIPOS>BOND
     1    1    4 1   
     2    1    5 1   
     3    1   34 1   
     4    1   35 1   
     5    2    3 1   
     6    2    7 1   
     7    2    8 2   
     8    3   36 1   
     9    3   37 1   
    10    3   38 1   
    11    4   26 1   
    12    4   29 1   
    13    4   30 1   
    14    5    7 1   
    15    5   12 1   
    16    5   39 1   
    17    6    9 1   
    18    6   21 ar  
    19    6   25 ar  
    20    7   40 1   
    21    8    9 1   
    22    9   10 2   
    23    9   11 2   
    24   12   13 1   
    25   12   14 2   
    26   13   15 1   
    27   13   41 1   
    28   15   16 1   
    29   15   20 1   
    30   15   33 1   
    31   16   17 1   
    32   16   42 1   
    33   16   43 1   
    34   17   18 1   
    35   17   44 1   
    36   17   45 1   
    37   18   19 1   
    38   18   31 2   
    39   18   32 2   
    40   19   20 1   
    41   19   46 1   
    42   19   47 1   
    43   20   48 1   
    44   20   49 1   
    45   21   22 ar  
    46   21   50 1   
    47   22   23 ar  
    48   22   51 1   
    49   23   24 ar  
    50   23   52 1   
    51   24   25 ar  
    52   24   53 1   
    53   25   54 1   
    54   26   27 1   
    55   26   55 1   
    56   26   56 1   
    57   27   28 1   
    58   27   57 1   
    59   27   58 1   
    60   28   29 1   
    61   28   59 1   
    62   28   60 1   
    63   29   61 1   
    64   29   62 1   
    65   30   63 1   
    66   30   64 1   
    67   30   65 1   
    68   33   68 1   
    69   33   69 1   
    70   33   70 1   
    71   66   70 1   
    72   67   70 1   
@<TRIPOS>SUBSTRUCTURE
     1 C71         1 TEMP              0 ****  ****    0 ROOT
