@<TRIPOS>MOLECULE
C71
   70    66     1     0     0
SMALL
bcc


@<TRIPOS>ATOM
      1 C2         -1.1880    2.3730   -1.4630 c3        1 C71     -0.174000
      2 C5          0.3660    1.4340    1.6110 c1        1 C71      0.436000
      3 C6         -0.9770    1.5190    2.3480 c2        1 C71     -0.227000
      4 C1         -2.7280    2.5620   -1.2910 c3        1 C71     -0.052000
      5 C3         -0.7260    1.1750   -0.6480 c3        1 C71      0.006000
      6 C9          3.0170    0.4850    4.6050 c1        1 C71     -0.812000
      7 N4          0.4100    1.5400    0.1280 n3        1 C71     -0.364000
      8 N7          1.5120    1.2640    2.3090 n1        1 C71     -1.071000
      9 S8          1.4670    1.1440    3.9870 ss        1 C71      2.954000
     10 O10         1.1620    2.4100    4.5930 o         1 C71     -0.948500
     11 O11         0.3530    0.3510    4.4220 o         1 C71     -0.948500
     12 C12        -0.3530    0.0200   -1.5920 c2        1 C71      0.298000
     13 N13        -0.2400   -1.3390   -1.0740 n         1 C71     -0.362000
     14 O14        -0.1450    0.2400   -2.7650 o         1 C71     -0.370000
     15 C15         0.1340   -2.4690   -1.9990 c3        1 C71      0.088000
     16 C17         0.6490   -3.6560   -1.1370 c3        1 C71     -0.133000
     17 C18         1.2010   -4.8360   -1.9380 c3        1 C71     -0.857000
     18 S19         2.4000   -4.2650   -3.0500 s4        1 C71      2.024800
     19 C20         1.7540   -2.9790   -3.9820 c2        1 C71     -0.857000
     20 C21         1.1740   -1.9220   -3.0620 c3        1 C71     -0.153000
     21 C22         3.7180    1.2110    5.5660 c1        1 C71     -0.029000
     22 C23         4.6720    0.5810    6.3530 c1        1 C71     -0.118500
     23 C24         4.9280   -0.7750    6.1840 c1        1 C71     -0.118500
     24 C25         4.2300   -1.4990    5.2270 c1        1 C71     -0.160000
     25 C26         3.2720   -0.8660    4.4360 c2        1 C71     -0.024000
     26 C27        -3.0420    3.4760    0.0480 c3        1 C71     -0.154500
     27 C28        -2.8830    4.7440   -0.3220 c3        1 C71     -0.157000
     28 C29        -3.1820    4.7580   -1.8580 c3        1 C71     -0.157000
     29 C30        -3.2160    3.2200   -2.3040 c3        1 C71     -0.154500
     30 C31        -3.4270    1.1760   -1.1680 c3        1 C71     -0.211000
     31 O32         2.8410   -5.3360   -3.9090 o         1 C71     -0.536900
     32 O33         3.5240   -3.7690   -2.3000 o         1 C71     -0.536900
     33 N34        -1.7290   -4.0030   -2.0080 n3        1 C71     -0.347000
     34 C16        -1.1040   -2.9150   -2.7310 c3        1 C71     -0.077000
     35 H21        -0.7270    3.1740   -1.1520 hc        1 C71      0.110500
     36 H22A       -0.9810    2.2240   -2.4120 hc        1 C71      0.110500
     37 H61        -1.5950    0.8570    1.9770 ha        1 C71      0.112667
     38 H62        -1.3530    2.4140    2.2380 ha        1 C71      0.112667
     39 H63        -0.8370    1.3370    3.3060 ha        1 C71      0.112667
     40 H3         -1.4470    0.8890   -0.0540 h1        1 C71      0.120000
     41 HN4         1.1750    1.8080   -0.2870 hn        1 C71      0.237000
     42 HN13       -0.2960   -1.4870   -0.1760 hn        1 C71      0.228000
     43 H171       -0.0850   -3.9750   -0.5870 hc        1 C71      0.108000
     44 H172        1.3590   -3.3240   -0.5460 hc        1 C71      0.108000
     45 H181        0.5320   -5.4440   -2.3060 h1        1 C71      0.162000
     46 H182        1.6480   -5.4370   -1.3090 h1        1 C71      0.162000
     47 H201        1.1550   -3.2980   -4.6860 ha        1 C71      0.159500
     48 H202        2.4610   -2.5640   -4.5220 ha        1 C71      0.159500
     49 H211        0.7300   -1.2500   -3.6070 hc        1 C71      0.108500
     50 H212        1.9110   -1.4930   -2.5790 hc        1 C71      0.108500
     51 H22         3.5380    2.1660    5.6850 ha        1 C71      0.152000
     52 H23         5.1630    1.0890    7.0260 ha        1 C71      0.135000
     53 H24         5.5990   -1.2180    6.7370 ha        1 C71      0.135000
     54 H25         4.4100   -2.4530    5.1070 ha        1 C71      0.138000
     55 H26         2.7800   -1.3760    3.7620 ha        1 C71      0.153000
     56 H271       -3.9700    3.3250    0.3520 hc        1 C71      0.082000
     57 H272       -2.4150    3.2530    0.7620 hc        1 C71      0.082000
     58 H281       -1.9660    5.0340   -0.1520 hc        1 C71      0.083750
     59 H282       -3.5240    5.3270    0.1590 hc        1 C71      0.083750
     60 H291       -2.4750    5.2330   -2.3350 hc        1 C71      0.083750
     61 H292       -4.0540    5.1820   -2.0300 hc        1 C71      0.083750
     62 H301       -4.1420    2.9360   -2.4820 hc        1 C71      0.082000
     63 H302       -2.6610    3.0850   -3.0930 hc        1 C71      0.082000
     64 H311       -3.1910    0.6210   -1.9430 hc        1 C71      0.080333
     65 H312       -3.1310    0.7330   -0.3480 hc        1 C71      0.080333
     66 H313       -4.4050    1.3020   -1.1390 hc        1 C71      0.080333
     67 H341       -2.0010   -4.6540   -2.6040 hn        1 C71      0.152000
     68 H342       -2.4620   -3.6850   -1.5450 hn        1 C71      0.152000
     69 H161       -0.8590   -3.2200   -3.6360 h1        1 C71      0.083000
     70 H162       -1.7300   -2.1660   -2.7980 h1        1 C71      0.083000
@<TRIPOS>BOND
     1    1    4 1   
     2    1    5 1   
     3    1   35 1   
     4    1   36 1   
     5    2    7 1   
     6    2    8 1   
     7    3   37 1   
     8    3   38 1   
     9    3   39 1   
    10    4   26 1   
    11    4   29 1   
    12    4   30 1   
    13    5    7 1   
    14    5   12 1   
    15    5   40 1   
    16    6   21 1   
    17    6   25 1   
    18    7   41 1   
    19    9   10 1   
    20    9   11 1   
    21   12   13 1   
    22   12   14 1   
    23   13   15 1   
    24   13   42 1   
    25   15   16 1   
    26   15   20 1   
    27   15   34 1   
    28   16   17 1   
    29   16   43 1   
    30   16   44 1   
    31   17   18 1   
    32   17   45 1   
    33   17   46 1   
    34   18   31 1   
    35   18   32 1   
    36   19   20 1   
    37   19   47 1   
    38   19   48 1   
    39   20   49 1   
    40   20   50 1   
    41   21   51 1   
    42   22   23 1   
    43   22   52 1   
    44   23   53 1   
    45   24   25 1   
    46   24   54 1   
    47   25   55 1   
    48   26   27 1   
    49   26   56 1   
    50   26   57 1   
    51   27   28 1   
    52   27   58 1   
    53   27   59 1   
    54   28   29 1   
    55   28   60 1   
    56   28   61 1   
    57   29   62 1   
    58   29   63 1   
    59   30   64 1   
    60   30   65 1   
    61   30   66 1   
    62   33   34 1   
    63   33   67 1   
    64   33   68 1   
    65   34   69 1   
    66   34   70 1   
@<TRIPOS>SUBSTRUCTURE
     1 C71         1 TEMP              0 ****  ****    0 ROOT
