@<TRIPOS>MOLECULE
C71
   70    69     1     0     0
SMALL
bcc


@<TRIPOS>ATOM
      1 C2          0.5370   -0.0080   -0.7280 c3        1 C71     -0.075400
      2 C5          0.2040    3.4720    0.6990 c2        1 C71      0.953200
      3 C6         -0.0110    4.7990   -0.0200 c3        1 C71     -0.182400
      4 C1         -0.8920   -0.5470   -0.6770 c3        1 C71     -0.048000
      5 C3          0.8640    1.0840    0.3070 c3        1 C71      0.149500
      6 C9          0.9800    4.0050    4.2410 ce        1 C71     -0.418400
      7 N4          0.5260    2.4150   -0.1380 nh        1 C71     -0.857200
      8 N7          0.0590    3.3700    1.9680 ne        1 C71     -1.107300
      9 S8          0.0190    2.8880    3.4180 sy        1 C71      1.700300
     10 O10        -1.2760    2.9340    3.9750 o         1 C71     -0.701300
     11 O11         0.6280    1.6060    3.5250 o         1 C71     -0.701300
     12 C12         2.4020    0.9790    0.5650 c         1 C71      0.634100
     13 N13         2.7770    0.4920    1.7940 n         1 C71     -0.458100
     14 O14         3.1930    1.2950   -0.3480 o         1 C71     -0.633100
     15 C15         4.0890    0.3130    2.2660 c2        1 C71      0.018400
     16 C17         7.7450    0.4970    5.0560 c3        1 C71      0.031100
     17 C18         7.1680    1.7290    5.6410 c2        1 C71     -1.376200
     18 S19         6.1220    1.8300    6.6110 s4        1 C71      2.024800
     19 C20         3.3180   -0.3000    4.5840 c3        1 C71     -0.083900
     20 C21         4.3360   -0.0600    3.5460 c2        1 C71     -0.235200
     21 C22         0.5650    4.5160    5.6050 c3        1 C71      0.016000
     22 C23         1.7520    4.5300    6.5320 c2        1 C71     -0.135200
     23 C24         3.0350    4.6150    6.1080 ce        1 C71     -0.156000
     24 C25         3.2290    4.9150    4.6770 ce        1 C71     -0.163100
     25 C26         2.2150    4.4120    3.9820 c1        1 C71      0.114200
     26 C27        -1.0900   -1.4140    0.5590 c3        1 C71     -0.090600
     27 C28        -0.6550   -3.8050   -2.2690 c2        1 C71     -0.218000
     28 C29        -0.2370   -2.5550   -2.0780 c2        1 C71     -0.169200
     29 C30        -1.1480   -1.3940   -1.9350 c3        1 C71     -0.046200
     30 C31        -1.9140    0.5800   -0.6670 c3        1 C71     -0.090600
     31 O32         5.5220    0.7200    7.1730 o         1 C71     -0.505400
     32 O33         5.6940    3.0730    7.0480 o         1 C71     -0.505400
     33 C16         5.2630    0.5470    1.3330 c3        1 C71      0.199000
     34 H21         0.7570    0.3680   -1.7630 hc        1 C71      0.062200
     35 H22A        1.2400   -0.8650   -0.5340 hc        1 C71      0.062200
     36 H61        -0.7710    4.6800   -0.8300 hc        1 C71      0.073367
     37 H62         0.9560    5.1400   -0.4650 hc        1 C71      0.073367
     38 H63        -0.3720    5.5780    0.6940 hc        1 C71      0.073367
     39 H3          0.7650    2.6270   -1.0820 hn        1 C71      0.444800
     40 HN4         0.2910    0.8590    1.2570 h1        1 C71      0.105700
     41 HN13        2.0540    0.3880    2.4870 hn        1 C71      0.363500
     42 H171        7.6060    0.4890    3.9450 hc        1 C71      0.038033
     43 H172        7.2550   -0.4180    5.4770 hc        1 C71      0.038033
     44 H181        8.8420    0.4380    5.2680 hc        1 C71      0.038033
     45 H182        7.6760    2.6080    5.1940 h4        1 C71      0.220000
     46 H201        2.5210    0.4890    4.5890 hc        1 C71      0.054700
     47 H202        3.7910   -0.3260    5.5980 hc        1 C71      0.054700
     48 H211        2.8170   -1.2870    4.4130 hc        1 C71      0.054700
     49 H212        5.3820   -0.2370    3.8470 ha        1 C71      0.129000
     50 H22        -0.2250    3.8180    6.0000 hc        1 C71      0.088700
     51 H23         0.1180    5.5450    5.5690 hc        1 C71      0.088700
     52 H24         1.5070    4.4890    7.6040 ha        1 C71      0.144000
     53 H25         3.9130    4.5650    6.7680 ha        1 C71      0.176000
     54 H26         4.0450    5.5540    4.3360 ha        1 C71      0.169000
     55 H271       -0.9170   -0.8260    1.4920 hc        1 C71      0.039867
     56 H272       -0.3830   -2.2780    0.5420 hc        1 C71      0.039867
     57 H281       -2.1340   -1.8100    0.5830 hc        1 C71      0.039867
     58 H282       -1.7170   -4.0790   -2.3090 ha        1 C71      0.112500
     59 H291        0.0440   -4.6410   -2.3970 ha        1 C71      0.112500
     60 H292        0.8400   -2.3190   -2.0440 ha        1 C71      0.120000
     61 H301       -2.2160   -1.7410   -1.9100 hc        1 C71      0.047700
     62 H302       -1.0320   -0.7350   -2.8390 hc        1 C71      0.047700
     63 H311       -2.9450    0.1640   -0.7850 hc        1 C71      0.039867
     64 H312       -1.7210    1.2900   -1.5060 hc        1 C71      0.039867
     65 H313       -1.8770    1.1380    0.2990 hc        1 C71      0.039867
     66 H341        4.5280   -0.5810   -0.1850 hn        1 C71      0.350800
     67 H342        6.0920   -0.1750   -0.3500 hn        1 C71      0.350800
     68 H161        6.2110    0.5210    1.9470 h1        1 C71      0.041200
     69 H162        5.1670    1.5940    0.9120 h1        1 C71      0.041200
     70 N34         5.3930   -0.4630    0.3080 n3        1 C71     -0.898800
@<TRIPOS>BOND
     1    1    4 1   
     2    1    5 1   
     3    1   34 1   
     4    1   35 1   
     5    2    3 1   
     6    2    7 1   
     7    2    8 2   
     8    3   36 1   
     9    3   37 1   
    10    3   38 1   
    11    4   26 1   
    12    4   29 1   
    13    4   30 1   
    14    5    7 1   
    15    5   12 1   
    16    5   40 1   
    17    6    9 1   
    18    6   21 1   
    19    6   25 2   
    20    7   39 1   
    21    8    9 1   
    22    9   10 2   
    23    9   11 2   
    24   12   13 1   
    25   12   14 2   
    26   13   15 1   
    27   13   41 1   
    28   15   20 2   
    29   15   33 1   
    30   16   17 1   
    31   16   42 1   
    32   16   43 1   
    33   16   44 1   
    34   17   18 2   
    35   17   45 1   
    36   18   31 1   
    37   18   32 1   
    38   19   20 1   
    39   19   46 1   
    40   19   47 1   
    41   19   48 1   
    42   20   49 1   
    43   21   22 1   
    44   21   50 1   
    45   21   51 1   
    46   22   23 2   
    47   22   52 1   
    48   23   24 1   
    49   23   53 1   
    50   24   25 2   
    51   24   54 1   
    52   26   55 1   
    53   26   56 1   
    54   26   57 1   
    55   27   28 2   
    56   27   58 1   
    57   27   59 1   
    58   28   29 1   
    59   28   60 1   
    60   29   61 1   
    61   29   62 1   
    62   30   63 1   
    63   30   64 1   
    64   30   65 1   
    65   33   68 1   
    66   33   69 1   
    67   33   70 1   
    68   66   70 1   
    69   67   70 1   
@<TRIPOS>SUBSTRUCTURE
     1 C71         1 TEMP              0 ****  ****    0 ROOT
