@<TRIPOS>MOLECULE
C72
   46    49     1     0     0
SMALL
bcc


@<TRIPOS>ATOM
      1 C01        -0.1060   -0.0030   -0.0440 cc        1 C72     -0.099200
      2 C02         1.2720    0.0330   -0.0450 cd        1 C72     -0.052600
      3 S03         1.8930    0.0990    1.5280 ss        1 C72      0.221500
      4 C04         0.4000    0.0810    2.2590 ca        1 C72     -0.011100
      5 C05        -0.6340    0.0240    1.2860 ca        1 C72     -0.286100
      6 C06         0.0520    0.1140    3.6410 ca        1 C72     -0.395900
      7 C07        -1.3390    0.0800    3.9370 ca        1 C72      0.538200
      8 N08        -2.3250    0.0230    3.0610 nb        1 C72     -0.737000
      9 C09        -2.0180   -0.0010    1.6980 ca        1 C72      0.793200
     10 N10        -3.0060   -0.0320    0.7730 nu        1 C72     -0.794900
     11 C11         2.1330    0.0240   -1.2030 ca        1 C72     -0.055800
     12 C12         1.0820    0.1750    4.6230 c         1 C72      0.581700
     13 C13        -4.4310   -0.0780    1.0670 c3        1 C72      0.205500
     14 C14        -4.9120   -1.5300    1.3630 c3        1 C72      0.155800
     15 N15        -6.3250   -1.5560    1.6690 n7        1 C72     -0.821200
     16 C16        -7.1610   -0.9750    0.6360 c3        1 C72      0.155800
     17 C17        -6.7280    0.4390    0.2540 c3        1 C72     -0.077400
     18 C18        -5.2570    0.4870   -0.1020 c3        1 C72     -0.093400
     19 C19         1.7100    0.5990   -2.4110 ca        1 C72     -0.102500
     20 C20         2.5410    0.5910   -3.5270 ca        1 C72     -0.118000
     21 C21         3.8090    0.0050   -3.4440 ca        1 C72      0.034400
     22 C22         4.2440   -0.5710   -2.2440 ca        1 C72     -0.118000
     23 C23         3.4090   -0.5600   -1.1320 ca        1 C72     -0.102500
     24 Cl24        4.8230   -0.0070   -4.8010 cl        1 C72     -0.058400
     25 N25         0.6430    0.2410    6.0900 nz        1 C72     -0.761400
     26 O26         2.3070    0.1890    4.5170 o         1 C72     -0.480100
     27 H01        -0.7190   -0.0540   -0.9480 ha        1 C72      0.165000
     28 H07        -1.7060    0.0950    4.9830 h4        1 C72      0.004100
     29 HN10       -2.7410   -0.0950   -0.1880 hn        1 C72      0.456800
     30 H13        -4.6290    0.5580    1.9820 h1        1 C72      0.105700
     31 H14        -4.3630   -1.9240    2.2640 h1        1 C72      0.038700
     32 H14A       -4.6470   -2.1800    0.4780 h1        1 C72      0.038700
     33 HN15       -6.6160   -2.4940    1.8710 hn        1 C72      0.380800
     34 H16        -7.1760   -1.6070   -0.3010 h1        1 C72      0.043200
     35 H16A       -8.2120   -0.9400    1.0410 h1        1 C72      0.043200
     36 H17        -7.3360    0.7740   -0.6260 hc        1 C72      0.063200
     37 H17A       -6.9360    1.1420    1.1020 hc        1 C72      0.063200
     38 H18        -5.0740   -0.1150   -1.0300 hc        1 C72      0.053200
     39 H18A       -4.9560    1.5460   -0.3120 hc        1 C72      0.053200
     40 H19         0.7160    1.0670   -2.4760 ha        1 C72      0.138000
     41 H20         2.2000    1.0460   -4.4710 ha        1 C72      0.160000
     42 H22         5.2420   -1.0330   -2.1800 ha        1 C72      0.160000
     43 H23         3.7520   -1.0200   -0.1920 ha        1 C72      0.138000
     44 HN25        0.0650    1.0690    6.2450 hn        1 C72      0.458800
     45 HN2A        1.4780    0.2940    6.6850 hn        1 C72      0.458800
     46 H253        0.1080   -0.5940    6.3340 hn        1 C72      0.458800
@<TRIPOS>BOND
     1    1    2 2   
     2    1    5 1   
     3    1   27 1   
     4    2    3 1   
     5    2   11 1   
     6    3    4 1   
     7    4    5 ar  
     8    4    6 ar  
     9    5    9 ar  
    10    6    7 ar  
    11    6   12 1   
    12    7    8 ar  
    13    7   28 1   
    14    8    9 ar  
    15    9   10 1   
    16   10   13 1   
    17   10   29 1   
    18   11   19 ar  
    19   11   23 ar  
    20   12   25 1   
    21   12   26 2   
    22   13   14 1   
    23   13   18 1   
    24   13   30 1   
    25   14   15 1   
    26   14   31 1   
    27   14   32 1   
    28   15   16 1   
    29   15   33 1   
    30   16   17 1   
    31   16   34 1   
    32   16   35 1   
    33   17   18 1   
    34   17   36 1   
    35   17   37 1   
    36   18   38 1   
    37   18   39 1   
    38   19   20 ar  
    39   19   40 1   
    40   20   21 ar  
    41   20   41 1   
    42   21   22 ar  
    43   21   24 1   
    44   22   23 ar  
    45   22   42 1   
    46   23   43 1   
    47   25   44 1   
    48   25   45 1   
    49   25   46 1   
@<TRIPOS>SUBSTRUCTURE
     1 C72         1 TEMP              0 ****  ****    0 ROOT
