@<TRIPOS>MOLECULE
C72
   47    50     1     0     0
SMALL
bcc


@<TRIPOS>ATOM
      1 C01        -0.4680    0.3440    0.2150 cc        1 C72     -0.196200
      2 C02         0.8450   -0.0810    0.1420 cd        1 C72      0.071400
      3 S03         1.5530   -0.1990    1.6830 ss        1 C72      0.274500
      4 C04         0.1910    0.2940    2.4990 ca        1 C72     -0.061100
      5 C05        -0.8790    0.5760    1.5620 ca        1 C72     -0.151100
      6 C06        -0.0610    0.4690    3.8760 ca        1 C72     -0.244900
      7 C07        -1.3450    0.9130    4.2630 ca        1 C72      0.460200
      8 N08        -2.3430    1.1830    3.4100 nb        1 C72     -0.642000
      9 C09        -2.1150    1.0180    2.0790 ca        1 C72      0.556200
     10 N10        -3.2300    1.3340    1.1620 n4        1 C72     -0.754700
     11 C11         1.5950   -0.4010   -1.0380 ca        1 C72     -0.119800
     12 C12         1.0070    0.1850    4.8300 c         1 C72      0.565700
     13 C13        -4.2370    0.2040    1.0530 c3        1 C72      0.117500
     14 C14        -3.7470   -0.8810    0.0540 c3        1 C72      0.162800
     15 N15        -4.6930   -1.9710    0.0350 n3        1 C72     -0.823200
     16 C16        -6.0360   -1.5700   -0.3410 c3        1 C72      0.147800
     17 C17        -6.5720   -0.4330    0.5270 c3        1 C72     -0.080400
     18 C18        -5.6000    0.7310    0.5920 c3        1 C72     -0.104400
     19 C19         1.1710    0.0240   -2.3100 ca        1 C72     -0.074500
     20 C20         1.9130   -0.2880   -3.4430 ca        1 C72     -0.121500
     21 C21         3.0940   -1.0340   -3.3240 ca        1 C72      0.070400
     22 C22         3.5290   -1.4640   -2.0590 ca        1 C72     -0.121500
     23 C23         2.7870   -1.1480   -0.9310 ca        1 C72     -0.074500
     24 CL24        3.9930   -1.4150   -4.6960 cl        1 C72     -0.005400
     25 N25         0.7250    0.3980    6.3020 n4        1 C72     -0.754400
     26 O26         2.1400   -0.2140    4.6000 o         1 C72     -0.393100
     27 H01        -1.1190    0.4680   -0.6550 ha        1 C72      0.176000
     28 H07        -1.6350    1.0790    5.3200 h4        1 C72      0.042100
     29 HN10       -2.8370    1.5370    0.2340 hn        1 C72      0.471300
     30 H13        -4.3410   -0.2450    2.0870 hx        1 C72      0.134700
     31 H14        -2.7500   -1.2860    0.3880 h1        1 C72      0.042200
     32 H14A       -3.6080   -0.3920   -0.9570 h1        1 C72      0.042200
     33 HN15       -4.3590   -2.7240   -0.5360 hn        1 C72      0.408800
     34 H16        -6.6990   -2.4740   -0.2090 h1        1 C72      0.066700
     35 H16A       -6.0940   -1.2540   -1.4240 h1        1 C72      0.066700
     36 H17        -7.5430   -0.0750    0.0920 hc        1 C72      0.083200
     37 H17A       -6.7830   -0.8090    1.5630 hc        1 C72      0.083200
     38 H18        -5.5130    1.2040   -0.4220 hc        1 C72      0.070200
     39 H18A       -5.9930    1.5010    1.3080 hc        1 C72      0.070200
     40 H19         0.2520    0.6200   -2.4150 ha        1 C72      0.136500
     41 H20         1.5730    0.0540   -4.4360 ha        1 C72      0.176500
     42 H22         4.4580   -2.0520   -1.9640 ha        1 C72      0.176500
     43 H23         3.1330   -1.4950    0.0580 ha        1 C72      0.136500
     44 HN25        0.4770    1.3770    6.4810 hn        1 C72      0.480133
     45 HN2A        1.5710    0.1630    6.8460 hn        1 C72      0.480133
     46 H102       -3.7280    2.1730    1.5010 hn        1 C72      0.471300
     47 H253       -0.0440   -0.2070    6.6100 hn        1 C72      0.480133
@<TRIPOS>BOND
     1    1    2 2   
     2    1    5 1   
     3    1   27 1   
     4    2    3 1   
     5    2   11 1   
     6    3    4 1   
     7    4    5 ar  
     8    4    6 ar  
     9    5    9 ar  
    10    6    7 ar  
    11    6   12 1   
    12    7    8 ar  
    13    7   28 1   
    14    8    9 ar  
    15    9   10 1   
    16   10   13 1   
    17   10   29 1   
    18   10   46 1   
    19   11   19 ar  
    20   11   23 ar  
    21   12   25 1   
    22   12   26 2   
    23   13   14 1   
    24   13   18 1   
    25   13   30 1   
    26   14   15 1   
    27   14   31 1   
    28   14   32 1   
    29   15   16 1   
    30   15   33 1   
    31   16   17 1   
    32   16   34 1   
    33   16   35 1   
    34   17   18 1   
    35   17   36 1   
    36   17   37 1   
    37   18   38 1   
    38   18   39 1   
    39   19   20 ar  
    40   19   40 1   
    41   20   21 ar  
    42   20   41 1   
    43   21   22 ar  
    44   21   24 1   
    45   22   23 ar  
    46   22   42 1   
    47   23   43 1   
    48   25   44 1   
    49   25   45 1   
    50   25   47 1   
@<TRIPOS>SUBSTRUCTURE
     1 C72         1 TEMP              0 ****  ****    0 ROOT
