@<TRIPOS>MOLECULE
C72
   45    48     1     0     0
SMALL
bcc


@<TRIPOS>ATOM
      1 C01         0.3670    0.3970    0.1210 cc        1 C72     -0.101200
      2 C02         1.5380   -0.3120   -0.0310 cd        1 C72     -0.085600
      3 S03         1.2500   -1.9700   -0.2360 ss        1 C72      0.162500
      4 C04        -0.4130   -1.8190   -0.1080 ca        1 C72      0.000900
      5 C05        -0.7820   -0.4560    0.0750 ca        1 C72     -0.265100
      6 C06        -1.4220   -2.8020   -0.1550 ca        1 C72     -0.289900
      7 C07        -2.7470   -2.3570   -0.0620 ca        1 C72      0.480200
      8 N08        -3.1370   -1.0780    0.0940 nb        1 C72     -0.748000
      9 C09        -2.1760   -0.1100    0.1890 ca        1 C72      0.723200
     10 N10        -2.5150    1.2110    0.4600 nh        1 C72     -0.837900
     11 C11         2.8750    0.2320   -0.0330 ca        1 C72     -0.016800
     12 C12        -1.0800   -4.2330   -0.3240 c         1 C72      0.684700
     13 C13        -3.8760    1.7010    0.3770 c3        1 C72      0.212500
     14 C14        -4.3690    1.8730   -1.0890 c3        1 C72      0.137800
     15 N15        -5.7200    2.3850   -1.1550 n3        1 C72     -0.816200
     16 C16        -5.9220    3.6200   -0.4230 c3        1 C72      0.160800
     17 C17        -5.4480    3.5280    1.0260 c3        1 C72     -0.076400
     18 C18        -4.0150    3.0510    1.1040 c3        1 C72     -0.085400
     19 C19         3.1050    1.5730   -0.3760 ca        1 C72     -0.113500
     20 C20         4.3960    2.0950   -0.3740 ca        1 C72     -0.120000
     21 C21         5.4740    1.2740   -0.0300 ca        1 C72      0.017400
     22 C22         5.2610   -0.0670    0.3110 ca        1 C72     -0.120000
     23 C23         3.9690   -0.5800    0.3090 ca        1 C72     -0.113500
     24 CL24        7.0510    1.9060   -0.0260 cl        1 C72     -0.091400
     25 N25        -1.9220   -5.1750    0.2200 n         1 C72     -0.672000
     26 O26        -0.0590   -4.6120   -0.9390 o         1 C72     -0.620100
     27 H01         0.3140    1.4770    0.2780 ha        1 C72      0.150000
     28 H07        -3.5960   -3.0640   -0.1390 h4        1 C72      0.023100
     29 HN10       -1.8110    1.8780    0.2300 hn        1 C72      0.418800
     30 H13        -4.5510    0.9530    0.8920 h1        1 C72      0.101700
     31 H14        -3.6350    2.5380   -1.6350 h1        1 C72      0.035200
     32 H14A       -4.3690    0.8670   -1.5940 h1        1 C72      0.035200
     33 HN15       -5.9940    2.5020   -2.1120 hn        1 C72      0.367800
     34 H16        -5.3960    4.4940   -0.9110 h1        1 C72      0.029200
     35 H16A       -7.0270    3.8390   -0.4360 h1        1 C72      0.029200
     36 H17        -5.5340    4.5420    1.4960 hc        1 C72      0.052700
     37 H17A       -6.1120    2.8290    1.5980 hc        1 C72      0.052700
     38 H18        -3.7120    2.9390    2.1780 hc        1 C72      0.046700
     39 H18A       -3.3380    3.8120    0.6350 hc        1 C72      0.046700
     40 H19         2.2590    2.2190   -0.6550 ha        1 C72      0.140500
     41 H20         4.5640    3.1480   -0.6460 ha        1 C72      0.149000
     42 H22         6.1110   -0.7130    0.5810 ha        1 C72      0.149000
     43 H23         3.8020   -1.6350    0.5800 ha        1 C72      0.140500
     44 HN25       -2.6780   -4.9150    0.7970 hn        1 C72      0.312500
     45 HN2A       -1.6890   -6.1330    0.1370 hn        1 C72      0.312500
@<TRIPOS>BOND
     1    1    2 2   
     2    1    5 1   
     3    1   27 1   
     4    2    3 1   
     5    2   11 1   
     6    3    4 1   
     7    4    5 ar  
     8    4    6 ar  
     9    5    9 ar  
    10    6    7 ar  
    11    6   12 1   
    12    7    8 ar  
    13    7   28 1   
    14    8    9 ar  
    15    9   10 1   
    16   10   13 1   
    17   10   29 1   
    18   11   19 ar  
    19   11   23 ar  
    20   12   25 1   
    21   12   26 2   
    22   13   14 1   
    23   13   18 1   
    24   13   30 1   
    25   14   15 1   
    26   14   31 1   
    27   14   32 1   
    28   15   16 1   
    29   15   33 1   
    30   16   17 1   
    31   16   34 1   
    32   16   35 1   
    33   17   18 1   
    34   17   36 1   
    35   17   37 1   
    36   18   38 1   
    37   18   39 1   
    38   19   20 ar  
    39   19   40 1   
    40   20   21 ar  
    41   20   41 1   
    42   21   22 ar  
    43   21   24 1   
    44   22   23 ar  
    45   22   42 1   
    46   23   43 1   
    47   25   44 1   
    48   25   45 1   
@<TRIPOS>SUBSTRUCTURE
     1 C72         1 TEMP              0 ****  ****    0 ROOT
