@<TRIPOS>MOLECULE
C72
   45    41     1     0     0
SMALL
bcc


@<TRIPOS>ATOM
      1 C01         1.0590    0.0320   -1.0810 c1        1 C72     -0.104000
      2 C02         2.4950   -0.1040   -1.0410 c2        1 C72     -0.327000
      3 S03         2.9130   -0.2710    0.4350 ss        1 C72      0.601000
      4 C04         1.6020   -0.2260    1.3090 c1        1 C72     -0.244000
      5 C05         0.4990   -0.0480    0.4330 c1        1 C72     -0.139000
      6 C06         1.3960   -0.2760    2.6640 c1        1 C72     -0.171000
      7 C07         0.0950   -0.1520    3.1820 c2        1 C72     -0.009000
      8 N08        -0.9890    0.0230    2.3180 n1        1 C72     -0.208000
      9 C09        -0.7870    0.0740    0.9510 c1        1 C72      0.153000
     10 N10        -2.2250    0.2240    0.9490 n3        1 C72     -0.249000
     11 C11         3.6020    0.0680   -1.9030 c1        1 C72     -0.010000
     12 C12         1.9320   -1.6140    3.1620 c1        1 C72      0.353000
     13 C13        -2.9880   -0.1090   -0.2420 c3        1 C72     -0.009000
     14 C14        -3.4170    1.1880   -0.9340 c3        1 C72     -0.073000
     15 N15        -4.4200    1.9340   -0.1600 n3        1 C72     -0.304000
     16 C16        -5.5730    1.1040    0.2320 c3        1 C72     -0.077000
     17 C17        -5.1520   -0.1910    0.9280 c3        1 C72     -0.160000
     18 C18        -4.1450   -0.9490    0.1490 c3        1 C72     -0.191000
     19 C19         4.1690    1.3280   -2.0690 c1        1 C72     -0.115000
     20 C20         5.2640    1.4940   -2.9140 c1        1 C72     -0.115000
     21 C21         5.7910    0.3990   -3.5920 c1        1 C72     -0.060000
     22 C22         5.2250   -0.8600   -3.4260 c1        1 C72     -0.119000
     23 C23         4.1290   -1.0260   -2.5810 c1        1 C72     -0.117000
     24 CL24        7.1600    0.6090   -4.6600 cl        1 C72     -0.013000
     25 N25         2.8530   -1.6530    4.2540 n3        1 C72     -0.432000
     26 O26         1.5450   -2.6520    2.6530 o         1 C72     -0.369000
     27 H01         0.5160    0.1520   -1.8880 DU        1 C72      0.165000
     28 H07        -0.0520   -0.1880    4.1540 h4        1 C72      0.162000
     29 HN10       -2.6530    0.5640    1.6890 hn        1 C72      0.207000
     30 H13        -2.4150   -0.6210   -0.8540 h1        1 C72      0.105000
     31 H14        -2.6260    1.7580   -1.0600 h1        1 C72      0.078500
     32 H14A       -3.7940    0.9680   -1.8150 h1        1 C72      0.078500
     33 HN15       -4.7130    2.6530   -0.6500 hn        1 C72      0.163000
     34 H16        -6.0920    0.8780   -0.5740 h1        1 C72      0.069000
     35 H16A       -6.1450    1.6220    0.8430 h1        1 C72      0.069000
     36 H17        -5.9500   -0.7590    1.0570 hc        1 C72      0.091500
     37 H17A       -4.7730    0.0290    1.8080 hc        1 C72      0.091500
     38 H18        -3.8230   -1.7040    0.6940 hc        1 C72      0.092000
     39 H18A       -4.5710   -1.3020   -0.6640 hc        1 C72      0.092000
     40 H19         3.7970    2.1000   -1.5910 ha        1 C72      0.145500
     41 H20         5.6650    2.3830   -3.0310 ha        1 C72      0.145500
     42 H22         5.5960   -1.6310   -3.9030 ha        1 C72      0.151000
     43 H23         3.7290   -1.9140   -2.4640 ha        1 C72      0.145000
     44 HN25        3.1460   -0.8740    4.6320 hn        1 C72      0.227500
     45 HN2A        3.1260   -2.4600    4.5960 hn        1 C72      0.227500
@<TRIPOS>BOND
     1    1    2 1   
     2    1    5 1   
     3    2    3 1   
     4    2   11 1   
     5    3    4 1   
     6    4    6 1   
     7    5    9 1   
     8    6    7 1   
     9    7    8 1   
    10    7   28 1   
    11    9   10 1   
    12   10   13 1   
    13   10   29 1   
    14   11   23 1   
    15   12   25 1   
    16   12   26 1   
    17   13   14 1   
    18   13   18 1   
    19   13   30 1   
    20   14   15 1   
    21   14   31 1   
    22   14   32 1   
    23   15   16 1   
    24   15   33 1   
    25   16   17 1   
    26   16   34 1   
    27   16   35 1   
    28   17   18 1   
    29   17   36 1   
    30   17   37 1   
    31   18   38 1   
    32   18   39 1   
    33   19   20 1   
    34   19   40 1   
    35   20   41 1   
    36   21   22 1   
    37   21   24 1   
    38   22   42 1   
    39   23   43 1   
    40   25   44 1   
    41   25   45 1   
@<TRIPOS>SUBSTRUCTURE
     1 C72         1 TEMP              0 ****  ****    0 ROOT
