@<TRIPOS>MOLECULE
C72
   46    49     1     0     0
SMALL
bcc


@<TRIPOS>ATOM
      1 C01        -0.1040   -0.0050   -0.0420 cc        1 C72     -0.099200
      2 C02         1.2730    0.0260   -0.0410 cd        1 C72     -0.052600
      3 S03         1.8930    0.0880    1.5330 ss        1 C72      0.221500
      4 C04         0.3980    0.0730    2.2620 ca        1 C72     -0.011100
      5 C05        -0.6340    0.0220    1.2870 ca        1 C72     -0.286100
      6 C06         0.0490    0.1050    3.6440 ca        1 C72     -0.395900
      7 C07        -1.3430    0.0750    3.9380 ca        1 C72      0.538200
      8 N08        -2.3280    0.0220    3.0600 nb        1 C72     -0.737000
      9 C09        -2.0180   -0.0010    1.6980 ca        1 C72      0.793200
     10 N10        -3.0060   -0.0270    0.7710 nh        1 C72     -0.794900
     11 C11         2.1360    0.0170   -1.1980 ca        1 C72     -0.055800
     12 C12         1.0770    0.1620    4.6270 c         1 C72      0.581700
     13 C13        -4.4310   -0.0700    1.0620 c3        1 C72      0.205500
     14 C14        -4.9160   -1.5200    1.3560 c3        1 C72      0.155800
     15 N15        -6.3300   -1.5430    1.6590 n3        1 C72     -0.821200
     16 C16        -7.1630   -0.9590    0.6270 c3        1 C72      0.155800
     17 C17        -6.7250    0.4550    0.2480 c3        1 C72     -0.077400
     18 C18        -5.2530    0.5000   -0.1060 c3        1 C72     -0.093400
     19 C19         1.7160    0.5950   -2.4050 ca        1 C72     -0.102500
     20 C20         2.5490    0.5860   -3.5200 ca        1 C72     -0.118000
     21 C21         3.8150   -0.0030   -3.4370 ca        1 C72      0.034400
     22 C22         4.2470   -0.5830   -2.2370 ca        1 C72     -0.118000
     23 C23         3.4100   -0.5710   -1.1260 ca        1 C72     -0.102500
     24 CL24        4.8310   -0.0170   -4.7920 cl        1 C72     -0.058400
     25 N25         0.6360    0.2280    6.0940 n4        1 C72     -0.761400
     26 O26         2.3020    0.1720    4.5230 o         1 C72     -0.480100
     27 H01        -0.7160   -0.0520   -0.9470 ha        1 C72      0.165000
     28 H07        -1.7120    0.0900    4.9840 h4        1 C72      0.004100
     29 HN10       -2.7390   -0.0890   -0.1890 hn        1 C72      0.456800
     30 H13        -4.6290    0.5650    1.9780 h1        1 C72      0.105700
     31 H14        -4.6520   -2.1700    0.4690 h1        1 C72      0.038700
     32 H14A       -4.3700   -1.9180    2.2560 h1        1 C72      0.038700
     33 HN15       -6.6230   -2.4810    1.8600 hn        1 C72      0.380800
     34 H16        -8.2150   -0.9210    1.0300 h1        1 C72      0.043200
     35 H16A       -7.1780   -1.5890   -0.3120 h1        1 C72      0.043200
     36 H17        -6.9330    1.1570    1.0970 hc        1 C72      0.063200
     37 H17A       -7.3310    0.7930   -0.6320 hc        1 C72      0.063200
     38 H18        -5.0710   -0.1020   -1.0350 hc        1 C72      0.053200
     39 H18A       -4.9500    1.5580   -0.3140 hc        1 C72      0.053200
     40 H19         0.7240    1.0670   -2.4710 ha        1 C72      0.138000
     41 H20         2.2110    1.0440   -4.4630 ha        1 C72      0.160000
     42 H22         5.2430   -1.0480   -2.1720 ha        1 C72      0.160000
     43 H23         3.7500   -1.0340   -0.1860 ha        1 C72      0.138000
     44 HN25        1.4710    0.2770    6.6900 hn        1 C72      0.458800
     45 HN2A        0.0600    1.0560    6.2490 hn        1 C72      0.458800
     46 H253        0.0990   -0.6060    6.3360 hn        1 C72      0.458800
@<TRIPOS>BOND
     1    1    2 2   
     2    1    5 1   
     3    1   27 1   
     4    2    3 1   
     5    2   11 1   
     6    3    4 1   
     7    4    5 ar  
     8    4    6 ar  
     9    5    9 ar  
    10    6    7 ar  
    11    6   12 1   
    12    7    8 ar  
    13    7   28 1   
    14    8    9 ar  
    15    9   10 1   
    16   10   13 1   
    17   10   29 1   
    18   11   19 ar  
    19   11   23 ar  
    20   12   25 1   
    21   12   26 2   
    22   13   14 1   
    23   13   18 1   
    24   13   30 1   
    25   14   15 1   
    26   14   31 1   
    27   14   32 1   
    28   15   16 1   
    29   15   33 1   
    30   16   17 1   
    31   16   34 1   
    32   16   35 1   
    33   17   18 1   
    34   17   36 1   
    35   17   37 1   
    36   18   38 1   
    37   18   39 1   
    38   19   20 ar  
    39   19   40 1   
    40   20   21 ar  
    41   20   41 1   
    42   21   22 ar  
    43   21   24 1   
    44   22   23 ar  
    45   22   42 1   
    46   23   43 1   
    47   25   44 1   
    48   25   45 1   
    49   25   46 1   
@<TRIPOS>SUBSTRUCTURE
     1 C72         1 TEMP              0 ****  ****    0 ROOT
