@<TRIPOS>MOLECULE
C73
   46    48     1     0     0
SMALL
bcc


@<TRIPOS>ATOM
      1 S01         0.2380   -0.6760    0.1880 ss        1 C73      0.354200
      2 C02         1.8070   -0.2100   -0.1220 cc        1 C73     -0.061500
      3 C03         2.4510    0.2260    1.0700 cd        1 C73     -0.230600
      4 C04         1.5730    0.1370    2.1820 cd        1 C73     -0.127000
      5 C05         0.3140   -0.3320    1.8110 cc        1 C73     -0.014100
      6 N06         2.4260   -0.3420   -1.3770 ns        1 C73     -0.368100
      7 C07         2.0630    0.5170   -2.4090 c         1 C73      0.625100
      8 N08         2.8700    0.4230   -3.7060 nz        1 C73     -0.744400
      9 O09         1.0970    1.2750   -2.4810 o         1 C73     -0.435100
     10 C10         3.8200    0.6860    1.0890 c         1 C73      0.605700
     11 O11         4.5990    0.7050    0.1320 o         1 C73     -0.503100
     12 N12         4.3770    1.2310    2.3750 ny        1 C73     -0.665800
     13 C13         5.2720    0.2290    3.0750 c3        1 C73      0.115500
     14 C14         4.4380   -0.7780    3.9150 c3        1 C73      0.163800
     15 N15         5.3200   -1.7650    4.4870 n7        1 C73     -0.824200
     16 C16         6.3530   -1.2020    5.3370 c3        1 C73      0.147800
     17 C17         7.1710   -0.1240    4.6280 c3        1 C73     -0.081400
     18 C18         6.2810    0.9290    3.9920 c3        1 C73     -0.102400
     19 C19        -0.8120   -0.5220    2.6910 ca        1 C73     -0.099000
     20 C20        -0.6190   -0.9060    4.0280 ca        1 C73     -0.087000
     21 C21        -1.7080   -1.0950    4.8710 ca        1 C73     -0.116000
     22 C22        -3.0090   -0.8990    4.3870 ca        1 C73      0.060400
     23 C23        -3.2120   -0.5130    3.0530 ca        1 C73     -0.116000
     24 C24        -2.1210   -0.3280    2.2140 ca        1 C73     -0.087000
     25 Cl25       -4.3310   -1.1250    5.4080 cl        1 C73     -0.011400
     26 H04         1.8260    0.3930    3.2160 ha        1 C73      0.174000
     27 HN06        3.3790   -0.6640   -1.3350 hn        1 C73      0.357500
     28 HN08        3.8420    0.7100   -3.5590 hn        1 C73      0.484467
     29 HN0A        2.8490   -0.5310   -4.0840 hn        1 C73      0.484467
     30 HN12        3.6160    1.5120    3.0030 hn        1 C73      0.466800
     31 H13         5.8320   -0.3220    2.2590 hx        1 C73      0.129700
     32 H14         3.8570   -0.1910    4.6900 h1        1 C73      0.040700
     33 H14A        3.6990   -1.3090    3.2510 h1        1 C73      0.040700
     34 HN15        4.8000   -2.4790    4.9620 hn        1 C73      0.408800
     35 H16         7.0390   -2.0490    5.6260 h1        1 C73      0.067200
     36 H16A        5.9260   -0.7630    6.2860 h1        1 C73      0.067200
     37 H17         7.8240   -0.5920    3.8440 hc        1 C73      0.084200
     38 H17A        7.8420    0.3710    5.3790 hc        1 C73      0.084200
     39 H18         5.7450    1.5020    4.7930 hc        1 C73      0.070200
     40 H18A        6.9160    1.6480    3.4100 hc        1 C73      0.070200
     41 H20         0.3990   -1.0730    4.4120 ha        1 C73      0.134500
     42 H21        -1.5480   -1.4020    5.9180 ha        1 C73      0.175000
     43 H23        -4.2350   -0.3550    2.6720 ha        1 C73      0.175000
     44 H24        -2.2890   -0.0130    1.1710 ha        1 C73      0.134500
     45 H083        2.4290    1.0620   -4.3890 hn        1 C73      0.484467
     46 H122        4.9500    2.0590    2.1570 hn        1 C73      0.466800
@<TRIPOS>BOND
     1    1    2 1   
     2    1    5 1   
     3    2    3 2   
     4    2    6 1   
     5    3    4 1   
     6    3   10 1   
     7    4    5 2   
     8    4   26 1   
     9    5   19 1   
    10    6    7 1   
    11    6   27 1   
    12    7    8 1   
    13    7    9 2   
    14    8   28 1   
    15    8   29 1   
    16    8   45 1   
    17   10   11 2   
    18   10   12 1   
    19   12   13 1   
    20   12   30 1   
    21   12   46 1   
    22   13   14 1   
    23   13   18 1   
    24   13   31 1   
    25   14   15 1   
    26   14   32 1   
    27   14   33 1   
    28   15   16 1   
    29   15   34 1   
    30   16   17 1   
    31   16   35 1   
    32   16   36 1   
    33   17   18 1   
    34   17   37 1   
    35   17   38 1   
    36   18   39 1   
    37   18   40 1   
    38   19   20 ar  
    39   19   24 ar  
    40   20   21 ar  
    41   20   41 1   
    42   21   22 ar  
    43   21   42 1   
    44   22   23 ar  
    45   22   25 1   
    46   23   24 ar  
    47   23   43 1   
    48   24   44 1   
@<TRIPOS>SUBSTRUCTURE
     1 C73         1 TEMP              0 ****  ****    0 ROOT
