@<TRIPOS>MOLECULE
C73
   44    46     1     0     0
SMALL
bcc


@<TRIPOS>ATOM
      1 S01        -1.3100    2.0400    0.1440 ss        1 C73      0.157200
      2 C02         0.3770    1.9940    0.2670 cc        1 C73      0.114500
      3 C03         0.8470    0.6630    0.2590 cd        1 C73     -0.264600
      4 C04        -0.2350   -0.2610    0.1770 cd        1 C73     -0.090000
      5 C05        -1.4640    0.3680    0.1060 cc        1 C73     -0.141100
      6 N06         1.1820    3.1080    0.3770 n         1 C73     -0.443100
      7 C07         0.6600    4.4100    0.2550 c         1 C73      0.763100
      8 N08         1.5280    5.4930    0.2700 n         1 C73     -0.653000
      9 O09        -0.5770    4.5840    0.1080 o         1 C73     -0.641100
     10 C10         2.2720    0.2980    0.3320 c         1 C73      0.715700
     11 O11         3.1540    1.1230    0.6770 o         1 C73     -0.656100
     12 N12         2.6230   -0.9940   -0.0010 n         1 C73     -0.563900
     13 C13         3.9860   -1.4690    0.0250 c3        1 C73      0.099700
     14 C14         4.4770   -1.8560   -1.4010 c3        1 C73      0.148800
     15 N15         5.8430   -2.3330   -1.3960 n3        1 C73     -0.818200
     16 C16         6.0840   -3.4310   -0.4810 c3        1 C73      0.161800
     17 C17         5.6090   -3.1310    0.9390 c3        1 C73     -0.076400
     18 C18         4.1640   -2.6860    0.9500 c3        1 C73     -0.092400
     19 C19        -2.7470   -0.2850    0.0110 ca        1 C73      0.009000
     20 C20        -2.9350   -1.5800    0.5170 ca        1 C73     -0.120500
     21 C21        -4.1750   -2.2070    0.4220 ca        1 C73     -0.118000
     22 C22        -5.2440   -1.5370   -0.1800 ca        1 C73      0.012400
     23 C23        -5.0750   -0.2440   -0.6850 ca        1 C73     -0.118000
     24 C24        -3.8330    0.3750   -0.5890 ca        1 C73     -0.120500
     25 CL25       -6.7590   -2.2990   -0.2990 cl        1 C73     -0.094400
     26 H04        -0.1090   -1.3470    0.1760 ha        1 C73      0.149000
     27 HN06        2.1680    2.9480    0.4680 hn        1 C73      0.367500
     28 HN08        2.4670    5.3970    0.5630 hn        1 C73      0.323000
     29 HN0A        1.1050    6.3880    0.3180 hn        1 C73      0.323000
     30 HN12        1.9290   -1.6260   -0.3170 hn        1 C73      0.309500
     31 H13         4.6410   -0.6290    0.4100 h1        1 C73      0.105700
     32 H14         3.7620   -2.6180   -1.8330 h1        1 C73      0.030700
     33 H14A        4.4460   -0.9420   -2.0590 h1        1 C73      0.030700
     34 HN15        6.1140   -2.5950   -2.3260 hn        1 C73      0.365800
     35 H16         5.5860   -4.3860   -0.8240 h1        1 C73      0.028200
     36 H16A        7.1960   -3.6140   -0.4670 h1        1 C73      0.028200
     37 H17         5.7250   -4.0580    1.5580 hc        1 C73      0.051200
     38 H17A        6.2540   -2.3340    1.3930 hc        1 C73      0.051200
     39 H18         3.8600   -2.4170    1.9950 hc        1 C73      0.044700
     40 H18A        3.5060   -3.5270    0.6090 hc        1 C73      0.044700
     41 H20        -2.0970   -2.1040    1.0000 ha        1 C73      0.140000
     42 H21        -4.3100   -3.2230    0.8220 ha        1 C73      0.148000
     43 H23        -5.9180    0.2830   -1.1580 ha        1 C73      0.148000
     44 H24        -3.6990    1.3920   -0.9910 ha        1 C73      0.140000
@<TRIPOS>BOND
     1    1    2 1   
     2    1    5 1   
     3    2    3 2   
     4    2    6 1   
     5    3    4 1   
     6    3   10 1   
     7    4    5 2   
     8    4   26 1   
     9    5   19 1   
    10    6    7 1   
    11    6   27 1   
    12    7    8 1   
    13    7    9 2   
    14    8   28 1   
    15    8   29 1   
    16   10   11 2   
    17   10   12 1   
    18   12   13 1   
    19   12   30 1   
    20   13   14 1   
    21   13   18 1   
    22   13   31 1   
    23   14   15 1   
    24   14   32 1   
    25   14   33 1   
    26   15   16 1   
    27   15   34 1   
    28   16   17 1   
    29   16   35 1   
    30   16   36 1   
    31   17   18 1   
    32   17   37 1   
    33   17   38 1   
    34   18   39 1   
    35   18   40 1   
    36   19   20 ar  
    37   19   24 ar  
    38   20   21 ar  
    39   20   41 1   
    40   21   22 ar  
    41   21   42 1   
    42   22   23 ar  
    43   22   25 1   
    44   23   24 ar  
    45   23   43 1   
    46   24   44 1   
@<TRIPOS>SUBSTRUCTURE
     1 C73         1 TEMP              0 ****  ****    0 ROOT
