@<TRIPOS>MOLECULE
C73
   46    48     1     0     0
SMALL
bcc


@<TRIPOS>ATOM
      1 S01        -0.0740   -0.0900    0.1580 ss        1 C73      0.308200
      2 C02         1.5990   -0.1000    0.0810 cc        1 C73      0.005500
      3 C03         2.1620   -0.0630    1.3870 cd        1 C73     -0.258600
      4 C04         1.1390   -0.0240    2.3810 cd        1 C73     -0.136000
      5 C05        -0.1300   -0.0310    1.8250 cc        1 C73     -0.011100
      6 N06         2.3730   -0.1340   -1.0850 n         1 C73     -0.394100
      7 C07         1.8000   -0.1870   -2.3340 c         1 C73      0.635100
      8 N08         2.7300   -0.2380   -3.5420 n4        1 C73     -0.737400
      9 O09         0.6000   -0.1940   -2.6220 o         1 C73     -0.450100
     10 C10         3.5830   -0.0530    1.6530 c         1 C73      0.599700
     11 O11         4.4890   -0.1070    0.8210 o         1 C73     -0.487100
     12 N12         3.9850    0.0440    3.1020 n4        1 C73     -0.661800
     13 C13         5.4760    0.0420    3.3490 c3        1 C73      0.112500
     14 C14         6.0400   -1.4070    3.3160 c3        1 C73      0.168800
     15 N15         7.4700   -1.3710    3.5040 n3        1 C73     -0.823200
     16 C16         7.8830   -0.7370    4.7420 c3        1 C73      0.148800
     17 C17         7.3110    0.6720    4.8940 c3        1 C73     -0.079400
     18 C18         5.8060    0.6860    4.7000 c3        1 C73     -0.102400
     19 C19        -1.3810   -0.0020    2.5410 ca        1 C73     -0.096000
     20 C20        -1.5000   -0.6200    3.7960 ca        1 C73     -0.088000
     21 C21        -2.7110   -0.5970    4.4810 ca        1 C73     -0.115500
     22 C22        -3.8200    0.0490    3.9170 ca        1 C73      0.058400
     23 C23        -3.7100    0.6690    2.6630 ca        1 C73     -0.115500
     24 C24        -2.4990    0.6410    1.9820 ca        1 C73     -0.088000
     25 CL25       -5.2880    0.0800    4.7450 cl        1 C73     -0.013400
     26 H04         1.3100    0.0170    3.4610 ha        1 C73      0.171000
     27 HN06        3.3710   -0.1350   -0.9680 hn        1 C73      0.378500
     28 HN08        3.3230    0.5970   -3.5910 hn        1 C73      0.488467
     29 HN0A        2.1280   -0.2720   -4.3830 hn        1 C73      0.488467
     30 HN12        3.5600   -0.7440    3.6060 hn        1 C73      0.464800
     31 H13         5.9490    0.6450    2.5160 hx        1 C73      0.135700
     32 H14         5.5020   -2.0150    4.1030 h1        1 C73      0.043700
     33 H14A        5.8360   -1.8640    2.3070 h1        1 C73      0.043700
     34 HN15        7.8660   -2.2870    3.4090 hn        1 C73      0.408800
     35 H16         7.5880   -1.3440    5.6480 h1        1 C73      0.065700
     36 H16A        9.0090   -0.6730    4.7210 h1        1 C73      0.065700
     37 H17         7.7950    1.3630    4.1550 hc        1 C73      0.082200
     38 H17A        7.5510    1.0490    5.9230 hc        1 C73      0.082200
     39 H18         5.4380    1.7450    4.7360 hc        1 C73      0.065700
     40 H18A        5.3170    0.1150    5.5330 hc        1 C73      0.065700
     41 H20        -0.6370   -1.1390    4.2400 ha        1 C73      0.134500
     42 H21        -2.7980   -1.0880    5.4650 ha        1 C73      0.174500
     43 H23        -4.5820    1.1790    2.2190 ha        1 C73      0.174500
     44 H24        -2.4190    1.1400    1.0030 ha        1 C73      0.134500
     45 H083        3.3200   -1.0770   -3.5220 hn        1 C73      0.488467
     46 H122        3.5940    0.9170    3.4820 hn        1 C73      0.464800
@<TRIPOS>BOND
     1    1    2 1   
     2    1    5 1   
     3    2    3 2   
     4    2    6 1   
     5    3    4 1   
     6    3   10 1   
     7    4    5 2   
     8    4   26 1   
     9    5   19 1   
    10    6    7 1   
    11    6   27 1   
    12    7    8 1   
    13    7    9 2   
    14    8   28 1   
    15    8   29 1   
    16    8   45 1   
    17   10   11 2   
    18   10   12 1   
    19   12   13 1   
    20   12   30 1   
    21   12   46 1   
    22   13   14 1   
    23   13   18 1   
    24   13   31 1   
    25   14   15 1   
    26   14   32 1   
    27   14   33 1   
    28   15   16 1   
    29   15   34 1   
    30   16   17 1   
    31   16   35 1   
    32   16   36 1   
    33   17   18 1   
    34   17   37 1   
    35   17   38 1   
    36   18   39 1   
    37   18   40 1   
    38   19   20 ar  
    39   19   24 ar  
    40   20   21 ar  
    41   20   41 1   
    42   21   22 ar  
    43   21   42 1   
    44   22   23 ar  
    45   22   25 1   
    46   23   24 ar  
    47   23   43 1   
    48   24   44 1   
@<TRIPOS>SUBSTRUCTURE
     1 C73         1 TEMP              0 ****  ****    0 ROOT
