@<TRIPOS>MOLECULE
C73
   44    40     1     0     0
SMALL
bcc


@<TRIPOS>ATOM
      1 S01        -2.4120    0.1940   -0.7550 ss        1 C73      0.708000
      2 C02        -0.8450    0.1950   -0.7330 c1        1 C73     -0.211000
      3 C03        -0.4220    0.1830    0.6530 c1        1 C73     -0.226000
      4 C04        -1.7240    0.1750    1.5760 c1        1 C73     -0.076000
      5 C05        -2.9000    0.1820    0.7130 c2        1 C73     -0.404000
      6 N06        -0.0020    0.3980   -1.8490 n2        1 C73     -0.284000
      7 C07        -0.5820    0.5580   -3.1830 c2        1 C73      0.376000
      8 N08         0.2760    0.6560   -4.3310 n         1 C73     -0.408000
      9 O09        -1.7440    0.5160   -3.3240 o         1 C73     -0.389000
     10 C10         1.0620    0.1680    1.1610 c1        1 C73      0.360000
     11 O11         1.2990    0.1550    2.3930 o         1 C73     -0.348000
     12 N12         2.1370    0.2920    0.2300 n3        1 C73     -0.371000
     13 C13         3.4830    0.4010    0.7060 c3        1 C73     -0.030000
     14 C14         4.3770    0.8950   -0.4490 c3        1 C73     -0.090000
     15 N15         4.5230   -0.1000   -1.5040 n3        1 C73     -0.279000
     16 C16         4.9460   -1.4120   -0.9970 c3        1 C73     -0.089000
     17 C17         4.0550   -1.9150    0.1570 c3        1 C73     -0.196000
     18 C18         3.9090   -0.9180    1.2250 c3        1 C73     -0.181000
     19 C19        -4.2530    0.2550    1.1440 c1        1 C73      0.006000
     20 C20        -4.9860   -0.9140    1.3270 c1        1 C73     -0.122000
     21 C21        -6.3160   -0.8450    1.7010 c1        1 C73     -0.122000
     22 C22        -6.9190    0.3860    1.8950 c1        1 C73     -0.065000
     23 C23        -6.1840    1.5550    1.7120 c1        1 C73     -0.120000
     24 C24        -4.8540    1.4860    1.3370 c1        1 C73     -0.110000
     25 CL25       -8.6390    0.4750    2.3960 cl        1 C73     -0.016000
     26 H04        -1.7310    0.1670    2.5550 DU        1 C73      0.168000
     27 HN06        0.8670    0.3630   -1.7530 hn        1 C73      0.243000
     28 HN08        1.1570    0.5170   -4.2450 hn        1 C73      0.232500
     29 HN0A       -0.0890    0.8060   -5.1690 hn        1 C73      0.232500
     30 HN12        1.9520    0.3820   -0.7090 hn        1 C73      0.213000
     31 H13         3.5130    1.0760    1.4600 h1        1 C73      0.136000
     32 H14         5.2520    1.1080   -0.0950 h1        1 C73      0.099500
     33 H14A        3.9680    1.7340   -0.8440 h1        1 C73      0.099500
     34 HN15        3.7310   -0.1870   -1.9510 hn        1 C73      0.141000
     35 H16         4.9110   -2.0600   -1.7310 h1        1 C73      0.093500
     36 H16A        5.8840   -1.3420   -0.6740 h1        1 C73      0.093500
     37 H17         3.1650   -2.1350   -0.1980 hc        1 C73      0.084000
     38 H17A        4.4570   -2.7310    0.5390 hc        1 C73      0.084000
     39 H18         3.2420   -1.2380    1.8740 hc        1 C73      0.094000
     40 H18A        4.7470   -0.8190    1.6680 hc        1 C73      0.094000
     41 H20        -4.5700   -1.7650    1.1920 ha        1 C73      0.143500
     42 H21        -6.8050   -1.6280    1.8230 ha        1 C73      0.143500
     43 H23        -6.6040    2.4170    1.8470 ha        1 C73      0.148000
     44 H24        -4.3350    2.3140    1.2080 ha        1 C73      0.143000
@<TRIPOS>BOND
     1    1    2 1   
     2    1    5 1   
     3    2    3 1   
     4    3    4 1   
     5    4    5 1   
     6    5   19 1   
     7    6    7 1   
     8    6   27 1   
     9    7    8 1   
    10    7    9 1   
    11    8   28 1   
    12    8   29 1   
    13   10   11 1   
    14   10   12 1   
    15   12   13 1   
    16   12   30 1   
    17   13   14 1   
    18   13   18 1   
    19   13   31 1   
    20   14   15 1   
    21   14   32 1   
    22   14   33 1   
    23   15   16 1   
    24   15   34 1   
    25   16   17 1   
    26   16   35 1   
    27   16   36 1   
    28   17   18 1   
    29   17   37 1   
    30   17   38 1   
    31   18   39 1   
    32   18   40 1   
    33   19   24 1   
    34   20   21 1   
    35   20   41 1   
    36   21   42 1   
    37   22   23 1   
    38   22   25 1   
    39   23   43 1   
    40   24   44 1   
@<TRIPOS>SUBSTRUCTURE
     1 C73         1 TEMP              0 ****  ****    0 ROOT
