@<TRIPOS>MOLECULE
C73
   47    49     1     0     0
SMALL
bcc


@<TRIPOS>ATOM
      1 S01        -0.0550    0.3740    0.1800 ss        1 C73      0.273200
      2 C02         1.5930    0.7440    0.0610 cc        1 C73     -0.247500
      3 C03         2.1960    0.7300    1.3730 cd        1 C73     -0.125600
      4 C04         1.2660    0.4270    2.3570 cd        1 C73     -0.097000
      5 C05        -0.0460    0.1850    1.8290 cc        1 C73      0.091900
      6 N06         2.2700    0.9830   -1.1560 n4        1 C73     -0.396200
      7 C07         2.8000   -0.2930   -1.8320 c         1 C73      0.418100
      8 N08         3.3950   -0.1850   -3.2080 n4        1 C73     -0.739400
      9 O09         2.7740   -1.3860   -1.3000 o         1 C73     -0.285100
     10 C10         3.6110    1.0450    1.5770 c         1 C73      0.597700
     11 O11         4.3960    1.2700    0.6480 o         1 C73     -0.499100
     12 N12         4.1670    1.1370    2.9560 n4        1 C73     -0.660800
     13 C13         5.3440    0.1910    3.1780 c3        1 C73      0.114500
     14 C14         4.8490   -1.2470    3.4970 c3        1 C73      0.166800
     15 N15         5.9940   -2.1190    3.5890 n3        1 C73     -0.824200
     16 C16         6.9470   -1.7230    4.6120 c3        1 C73      0.142800
     17 C17         7.4080   -0.2760    4.4560 c3        1 C73     -0.081400
     18 C18         6.2330    0.6810    4.3250 c3        1 C73     -0.104400
     19 C19        -1.1940   -0.1360    2.5780 ca        1 C73     -0.127000
     20 C20        -1.2110   -0.0990    4.0000 ca        1 C73     -0.032500
     21 C21        -2.3570   -0.4040    4.7060 ca        1 C73     -0.135500
     22 C22        -3.5430   -0.7600    4.0260 ca        1 C73      0.143400
     23 C23        -3.5450   -0.8040    2.6110 ca        1 C73     -0.135500
     24 C24        -2.4010   -0.4990    1.9080 ca        1 C73     -0.032500
     25 CL25       -4.9240   -1.1250    4.8780 cl        1 C73      0.096600
     26 H04         1.4610    0.3580    3.4350 ha        1 C73      0.192000
     27 HN06        3.0970    1.5890   -0.9740 hn        1 C73      0.500800
     28 HN08        4.2160    0.4380   -3.2180 hn        1 C73      0.508133
     29 HN0A        2.7050    0.1520   -3.8970 hn        1 C73      0.508133
     30 HN12        3.4450    0.9460    3.6580 hn        1 C73      0.476800
     31 H13         5.9410    0.1970    2.2150 hx        1 C73      0.133700
     32 H14         4.1900   -1.6220    2.6640 h1        1 C73      0.036200
     33 H14A        4.2340   -1.2060    4.4460 h1        1 C73      0.036200
     34 HN15        5.7090   -3.0750    3.7000 hn        1 C73      0.415800
     35 H16         6.5280   -1.8610    5.6520 h1        1 C73      0.078200
     36 H16A        7.8410   -2.4040    4.5080 h1        1 C73      0.078200
     37 H17         8.0780   -0.1790    3.5620 hc        1 C73      0.092700
     38 H17A        8.0070    0.0100    5.3620 hc        1 C73      0.092700
     39 H18         6.6200    1.7140    4.1220 hc        1 C73      0.076700
     40 H18A        5.6560    0.7000    5.2870 hc        1 C73      0.076700
     41 H20        -0.3020    0.1860    4.5540 ha        1 C73      0.145000
     42 H21        -2.3540   -0.3670    5.8120 ha        1 C73      0.201000
     43 H23        -4.4720   -1.0860    2.0750 ha        1 C73      0.201000
     44 H24        -2.4160   -0.5450    0.8050 ha        1 C73      0.145000
     45 H062        1.6260    1.4540   -1.8130 hn        1 C73      0.500800
     46 H083        3.7070   -1.1340   -3.5070 hn        1 C73      0.508133
     47 H122        4.5210    2.0990    3.1000 hn        1 C73      0.476800
@<TRIPOS>BOND
     1    1    2 1   
     2    1    5 1   
     3    2    3 2   
     4    2    6 1   
     5    3    4 1   
     6    3   10 1   
     7    4    5 2   
     8    4   26 1   
     9    5   19 1   
    10    6    7 1   
    11    6   27 1   
    12    6   45 1   
    13    7    8 1   
    14    7    9 2   
    15    8   28 1   
    16    8   29 1   
    17    8   46 1   
    18   10   11 2   
    19   10   12 1   
    20   12   13 1   
    21   12   30 1   
    22   12   47 1   
    23   13   14 1   
    24   13   18 1   
    25   13   31 1   
    26   14   15 1   
    27   14   32 1   
    28   14   33 1   
    29   15   16 1   
    30   15   34 1   
    31   16   17 1   
    32   16   35 1   
    33   16   36 1   
    34   17   18 1   
    35   17   37 1   
    36   17   38 1   
    37   18   39 1   
    38   18   40 1   
    39   19   20 ar  
    40   19   24 ar  
    41   20   21 ar  
    42   20   41 1   
    43   21   22 ar  
    44   21   42 1   
    45   22   23 ar  
    46   22   25 1   
    47   23   24 ar  
    48   23   43 1   
    49   24   44 1   
@<TRIPOS>SUBSTRUCTURE
     1 C73         1 TEMP              0 ****  ****    0 ROOT
