@<TRIPOS>MOLECULE
C75
   38    40     1     0     0
SMALL
bcc


@<TRIPOS>ATOM
      1 O4          0.2660    0.0370   -0.0380 o         1 C75     -0.574300
      2 S2          1.6230    0.2780   -0.0320 sy        1 C75      1.502200
      3 O3          2.4040   -0.0270    1.0610 o         1 C75     -0.574300
      4 N6          2.1820   -1.1330   -1.2920 n4        1 C75     -0.686900
      5 C61         2.7090   -2.3160   -0.6070 c3        1 C75      0.081100
      6 C16         2.1110    1.5060   -0.9030 ca        1 C75     -0.599500
      7 C15         1.2500    2.1340   -1.8400 ca        1 C75      0.022500
      8 C14         1.6440    3.2450   -2.5540 ca        1 C75     -0.158500
      9 C13         2.9310    3.8010   -2.3610 ca        1 C75      0.051500
     10 C18         3.7990    3.1930   -1.4260 ca        1 C75     -0.158500
     11 C17         3.3950    2.0800   -0.7200 ca        1 C75      0.022500
     12 C4          3.3490    4.9540   -3.0860 cc        1 C75      0.208200
     13 O2          2.4420    5.4870   -4.0230 os        1 C75     -0.348800
     14 C3          4.5140    5.7280   -3.0750 cd        1 C75     -0.141300
     15 C2          4.3330    6.7740   -4.0300 cd        1 C75     -0.247300
     16 C1          3.0630    6.6000   -4.5900 cc        1 C75      0.366500
     17 C6          2.3790    7.3590   -5.5880 ce        1 C75     -0.173800
     18 C7          1.1530    7.1320   -6.0990 cd        1 C75     -0.087600
     19 S1          0.0300    5.9160   -5.7590 ss        1 C75     -0.036800
     20 C9         -1.1750    6.5220   -6.9320 cc        1 C75      0.495800
     21 N3         -2.2870    5.9010   -7.0680 n2        1 C75     -0.771100
     22 N2         -0.6590    7.6780   -7.5660 n         1 C75     -0.540400
     23 C8          0.6180    8.0640   -7.1510 c         1 C75      0.701700
     24 O1          1.2100    9.0490   -7.6070 o         1 C75     -0.558500
     25 H6          2.8840   -0.7700   -1.9310 hn        1 C75      0.438300
     26 H611        1.8910   -2.7860    0.0060 hx        1 C75      0.101700
     27 H612        3.5480   -2.0090    0.0770 hx        1 C75      0.101700
     28 H613        3.0930   -3.0750   -1.3400 hx        1 C75      0.101700
     29 H15         0.2300    1.7280   -1.9840 ha        1 C75      0.165500
     30 H17         4.0780    1.6290    0.0250 ha        1 C75      0.165500
     31 H14         0.9560    3.7210   -3.2750 ha        1 C75      0.177000
     32 H18         4.8020    3.6210   -1.2570 ha        1 C75      0.177000
     33 H3          5.3980    5.5730   -2.4570 ha        1 C75      0.177000
     34 H2          5.0490    7.5590   -4.2730 ha        1 C75      0.190000
     35 HA          2.9560    8.2320   -5.9640 ha        1 C75      0.190000
     36 H3N        -2.9550    6.2460   -7.7230 hn        1 C75      0.423400
     37 H2N        -1.1600    8.1900   -8.2530 hn        1 C75      0.356500
     38 H62         1.3740   -1.4040   -1.8490 hn        1 C75      0.438300
@<TRIPOS>BOND
     1    1    2 2   
     2    2    3 2   
     3    2    4 1   
     4    2    6 1   
     5    4    5 1   
     6    4   25 1   
     7    4   38 1   
     8    5   26 1   
     9    5   27 1   
    10    5   28 1   
    11    6    7 ar  
    12    6   11 ar  
    13    7    8 ar  
    14    7   29 1   
    15    8    9 ar  
    16    8   31 1   
    17    9   10 ar  
    18    9   12 1   
    19   10   11 ar  
    20   10   32 1   
    21   11   30 1   
    22   12   13 1   
    23   12   14 2   
    24   13   16 1   
    25   14   15 1   
    26   14   33 1   
    27   15   16 2   
    28   15   34 1   
    29   16   17 1   
    30   17   18 2   
    31   17   35 1   
    32   18   19 1   
    33   18   23 1   
    34   19   20 1   
    35   20   21 2   
    36   20   22 1   
    37   21   36 1   
    38   22   23 1   
    39   22   37 1   
    40   23   24 2   
@<TRIPOS>SUBSTRUCTURE
     1 C75         1 TEMP              0 ****  ****    0 ROOT
