@<TRIPOS>MOLECULE
C75
   37    39     1     0     0
SMALL
bcc


@<TRIPOS>ATOM
      1 O4         -4.8750   -2.0550   -0.8630 o         1 C75     -0.652300
      2 S2         -5.0450   -0.7890   -0.2630 sy        1 C75      1.513200
      3 O3         -5.9660    0.0990   -0.8580 o         1 C75     -0.652300
      4 N6         -5.4020   -1.0060    1.2960 n3        1 C75     -0.920100
      5 C61        -6.1540   -0.0950    2.0940 c3        1 C75      0.210100
      6 C16        -3.5330   -0.0260   -0.2110 ca        1 C75     -0.370500
      7 C15        -2.3530   -0.7790   -0.1790 ca        1 C75     -0.019500
      8 C14        -1.1070   -0.1620   -0.1570 ca        1 C75     -0.135500
      9 C13        -1.0190    1.2390   -0.1700 ca        1 C75     -0.069500
     10 C18        -2.1970    2.0030   -0.2140 ca        1 C75     -0.135500
     11 C17        -3.4340    1.3700   -0.2350 ca        1 C75     -0.019500
     12 C4          0.2610    1.9030   -0.1440 cc        1 C75      0.309200
     13 O2          1.4010    1.0900   -0.0820 os        1 C75     -0.345800
     14 C3          0.6360    3.2420   -0.1680 cd        1 C75     -0.236300
     15 C2          2.0710    3.2750   -0.1190 cd        1 C75     -0.211300
     16 C1          2.5060    1.9540   -0.0670 cc        1 C75      0.277500
     17 C6          3.8270    1.4160   -0.0060 ce        1 C75     -0.113800
     18 C7          4.2020    0.1240    0.0270 cd        1 C75     -0.102600
     19 S1          3.2740   -1.3000    0.0070 ss        1 C75     -0.170800
     20 C9          4.6960   -2.3870    0.0770 cc        1 C75      0.515800
     21 N3          4.6950   -3.6720    0.0900 n2        1 C75     -0.786100
     22 N2          5.8670   -1.6020    0.1180 n         1 C75     -0.502400
     23 C8          5.6570   -0.2190    0.0920 c         1 C75      0.707700
     24 O1          6.5940    0.5910    0.1210 o         1 C75     -0.584500
     25 H6         -5.1060   -1.8170    1.7850 hn        1 C75      0.449800
     26 H611       -6.9910   -0.6300    2.6200 h1        1 C75      0.044367
     27 H612       -5.5040    0.3900    2.8730 h1        1 C75      0.044367
     28 H613       -6.6010    0.7070    1.4430 h1        1 C75      0.044367
     29 H15        -2.4160   -1.8820   -0.1920 ha        1 C75      0.156500
     30 H17        -4.3570    1.9750   -0.2900 ha        1 C75      0.156500
     31 H14        -0.1860   -0.7650   -0.1340 ha        1 C75      0.150500
     32 H18        -2.1390    3.1020   -0.2360 ha        1 C75      0.150500
     33 H3         -0.0200    4.1070   -0.2170 ha        1 C75      0.169000
     34 H2          2.6910    4.1680   -0.1220 ha        1 C75      0.171000
     35 HA          4.6220    2.1930    0.0140 ha        1 C75      0.174000
     36 H3N         3.7980   -4.1050    0.0560 hn        1 C75      0.423400
     37 H2N         6.7750   -2.0010    0.1560 hn        1 C75      0.361500
@<TRIPOS>BOND
     1    1    2 2   
     2    2    3 2   
     3    2    4 1   
     4    2    6 1   
     5    4    5 1   
     6    4   25 1   
     7    5   26 1   
     8    5   27 1   
     9    5   28 1   
    10    6    7 ar  
    11    6   11 ar  
    12    7    8 ar  
    13    7   29 1   
    14    8    9 ar  
    15    8   31 1   
    16    9   10 ar  
    17    9   12 1   
    18   10   11 ar  
    19   10   32 1   
    20   11   30 1   
    21   12   13 1   
    22   12   14 2   
    23   13   16 1   
    24   14   15 1   
    25   14   33 1   
    26   15   16 2   
    27   15   34 1   
    28   16   17 1   
    29   17   18 2   
    30   17   35 1   
    31   18   19 1   
    32   18   23 1   
    33   19   20 1   
    34   20   21 2   
    35   20   22 1   
    36   21   36 1   
    37   22   23 1   
    38   22   37 1   
    39   23   24 2   
@<TRIPOS>SUBSTRUCTURE
     1 C75         1 TEMP              0 ****  ****    0 ROOT
