@<TRIPOS>MOLECULE
C75
   37    29     1     0     0
SMALL
bcc


@<TRIPOS>ATOM
      1 O4         -3.5360   -4.2220    2.0050 o         1 C75     -0.931500
      2 S2         -2.2100   -4.4200    1.5970 ss        1 C75      2.852000
      3 O3         -1.5690   -4.6930    2.8590 o         1 C75     -0.931500
      4 N6         -2.0830   -5.7520    0.5420 n2        1 C75     -0.893000
      5 C61        -2.3730   -7.0470    1.0160 c3        1 C75     -0.065000
      6 C16        -1.5460   -2.9730    0.8380 c1        1 C75     -0.815000
      7 C15        -2.2650   -2.3130   -0.1570 c2        1 C75     -0.020000
      8 C14        -1.7410   -1.1460   -0.7430 c1        1 C75     -0.130000
      9 C13        -0.5330   -0.6620   -0.3390 c1        1 C75      0.036000
     10 C18         0.2050   -1.3440    0.6870 c1        1 C75     -0.139000
     11 C17        -0.3010   -2.4730    1.2550 c1        1 C75     -0.019000
     12 C4         -0.0270    0.4690   -0.9070 c1        1 C75     -0.010500
     13 O2         -0.2990    1.7640   -0.5230 os        1 C75     -0.089000
     14 C3          0.8460    0.5130   -1.9660 c1        1 C75     -0.158000
     15 C2          1.1190    1.8410   -2.2430 c1        1 C75     -0.158000
     16 C1          0.4150    2.6140   -1.3560 c1        1 C75     -0.010500
     17 C6          0.4010    4.2070   -1.3090 c1        1 C75      0.004000
     18 C7          1.4280    4.8900   -0.6980 c1        1 C75     -0.362000
     19 S1          2.7040    4.2430    0.0060 s         1 C75      0.404000
     20 C9          3.6090    5.4630    0.5920 c2        1 C75     -0.023000
     21 N3          4.8010    5.3410    1.1940 n1        1 C75     -0.253000
     22 N2          2.9310    6.7570    0.2360 n         1 C75     -0.387000
     23 C8          1.5460    6.4090   -0.5760 c2        1 C75      0.352000
     24 O1          0.7990    7.1870   -1.0250 o         1 C75     -0.308000
     25 H6         -1.9360   -5.6220   -0.3100 hn        1 C75      0.245000
     26 H611       -1.5510   -7.4620    1.3680 h1        1 C75      0.083667
     27 H612       -2.7220   -7.5880    0.2880 h1        1 C75      0.083667
     28 H613       -3.0770   -6.9840    1.7720 h1        1 C75      0.083667
     29 H15        -3.1880   -2.6840   -0.4650 ha        1 C75      0.156000
     30 H17         0.2150   -2.9490    1.9720 ha        1 C75      0.157000
     31 H14        -2.2510   -0.6740   -1.4550 ha        1 C75      0.157000
     32 H18         1.0870   -0.9920    0.9810 ha        1 C75      0.144000
     33 H3          1.2130   -0.2620   -2.4400 DU        1 C75      0.169667
     34 H2          1.7110    2.1690   -2.9500 DU        1 C75      0.169667
     35 HA         -0.3140    4.6850   -1.7000 ha        1 C75      0.179000
     36 H3N         5.2620    6.1180    1.5080 DU        1 C75      0.169667
     37 H2N         3.2340    7.5940    0.4460 hn        1 C75      0.258000
@<TRIPOS>BOND
     1    1    2 1   
     2    2    3 1   
     3    4    5 1   
     4    4   25 1   
     5    5   26 1   
     6    5   27 1   
     7    5   28 1   
     8    6    7 1   
     9    6   11 1   
    10    7    8 1   
    11    7   29 1   
    12    8   31 1   
    13    9   10 1   
    14   10   32 1   
    15   11   30 1   
    16   12   13 1   
    17   12   14 1   
    18   13   16 1   
    19   14   15 1   
    20   15   16 1   
    21   17   18 1   
    22   17   35 1   
    23   18   23 1   
    24   19   20 1   
    25   20   21 1   
    26   20   22 1   
    27   22   23 1   
    28   22   37 1   
    29   23   24 1   
@<TRIPOS>SUBSTRUCTURE
     1 C75         1 TEMP              0 ****  ****    0 ROOT
