@<TRIPOS>MOLECULE
C75
   38    39     1     0     0
SMALL
bcc


@<TRIPOS>ATOM
      1 O4          0.2190    0.0320   -0.0290 o         1 C75     -0.451400
      2 S2          1.5480    0.3430    0.0360 s4        1 C75      1.657300
      3 O3          2.3380   -0.0300    1.0870 o         1 C75     -0.451400
      4 N6          2.1940   -1.1970   -1.3700 n8        1 C75     -1.010800
      5 C61         2.8560   -2.3030   -0.6940 c3        1 C75      0.091100
      6 C16         2.0400    1.5500   -0.8290 ca        1 C75     -0.633500
      7 C15         1.1930    2.1700   -1.7880 ca        1 C75      0.029500
      8 C14         1.6020    3.2640   -2.5160 ca        1 C75     -0.162500
      9 C13         2.8930    3.8130   -2.3250 ca        1 C75      0.060500
     10 C18         3.7500    3.2110   -1.3730 ca        1 C75     -0.162500
     11 C17         3.3320    2.1160   -0.6510 ca        1 C75      0.029500
     12 C4          3.3270    4.9480   -3.0650 cc        1 C75      0.202200
     13 O2          2.4270    5.4810   -4.0110 os        1 C75     -0.347800
     14 C3          4.5040    5.7050   -3.0670 cd        1 C75     -0.133300
     15 C2          4.3380    6.7380   -4.0360 cd        1 C75     -0.250300
     16 C1          3.0640    6.5750   -4.5940 cc        1 C75      0.373500
     17 C6          2.3920    7.3300   -5.6030 ce        1 C75     -0.178800
     18 C7          1.1610    7.1170   -6.1080 cd        1 C75     -0.085600
     19 S1          0.0160    5.9310   -5.7460 ss        1 C75     -0.032800
     20 C9         -1.1800    6.5420   -6.9270 cc        1 C75      0.494800
     21 N3         -2.3040    5.9400   -7.0490 n2        1 C75     -0.769100
     22 N2         -0.6430    7.6760   -7.5810 ns        1 C75     -0.539400
     23 C8          0.6420    8.0440   -7.1740 c         1 C75      0.700700
     24 O1          1.2540    9.0080   -7.6460 o         1 C75     -0.556500
     25 H6          2.8120   -0.7850   -2.0530 hn        1 C75      0.415300
     26 H611        2.1180   -2.8340   -0.0330 h1        1 C75      0.087033
     27 H612        3.6890   -1.9010   -0.0550 h1        1 C75      0.087033
     28 H613        3.2820   -3.0450   -1.4210 h1        1 C75      0.087033
     29 H15         0.1730    1.7660   -1.9360 ha        1 C75      0.167500
     30 H17         4.0090    1.6660    0.1010 ha        1 C75      0.167500
     31 H14         0.9240    3.7320   -3.2520 ha        1 C75      0.178000
     32 H18         4.7570    3.6310   -1.2070 ha        1 C75      0.178000
     33 H3          5.3850    5.5450   -2.4460 ha        1 C75      0.178000
     34 H2          5.0650    7.5080   -4.2930 ha        1 C75      0.192000
     35 HA          2.9850    8.1860   -5.9940 ha        1 C75      0.191000
     36 H3N        -2.9680    6.2860   -7.7090 hn        1 C75      0.424400
     37 H2N        -1.1340    8.1870   -8.2760 hn        1 C75      0.357500
     38 H62         1.3700   -1.5310   -1.8510 hn        1 C75      0.415300
@<TRIPOS>BOND
     1    1    2 1   
     2    2    3 1   
     3    2    6 1   
     4    4    5 1   
     5    4   25 1   
     6    4   38 1   
     7    5   26 1   
     8    5   27 1   
     9    5   28 1   
    10    6    7 ar  
    11    6   11 ar  
    12    7    8 ar  
    13    7   29 1   
    14    8    9 ar  
    15    8   31 1   
    16    9   10 ar  
    17    9   12 1   
    18   10   11 ar  
    19   10   32 1   
    20   11   30 1   
    21   12   13 1   
    22   12   14 2   
    23   13   16 1   
    24   14   15 1   
    25   14   33 1   
    26   15   16 2   
    27   15   34 1   
    28   16   17 1   
    29   17   18 2   
    30   17   35 1   
    31   18   19 1   
    32   18   23 1   
    33   19   20 1   
    34   20   21 2   
    35   20   22 1   
    36   21   36 1   
    37   22   23 1   
    38   22   37 1   
    39   23   24 2   
@<TRIPOS>SUBSTRUCTURE
     1 C75         1 TEMP              0 ****  ****    0 ROOT
