@<TRIPOS>MOLECULE
C77
   75    78     1     0     0
SMALL
bcc


@<TRIPOS>ATOM
      1 N1          0.4630    1.8810    0.2950 n2        1 C77     -0.229000
      2 C2          1.7960    1.8310    0.5190 c1        1 C77      0.026000
      3 N3          2.3210    1.4540    1.7480 n3        1 C77     -0.126000
      4 C4          1.4920    1.1110    2.7710 c2        1 C77      0.078000
      5 C5          0.0300    1.1480    2.5560 c2        1 C77     -0.193000
      6 C6         -0.4010    1.5560    1.2880 c2        1 C77      0.011000
      7 N6         -1.8530    1.6470    1.0000 n4        1 C77     -0.027000
      8 N7         -0.5400    0.7330    3.7720 n3        1 C77     -0.275000
      9 C8          0.4590    0.4590    4.7030 c1        1 C77      0.111000
     10 N9          1.7020    0.6970    4.1160 n3        1 C77     -0.086000
     11 CAA         6.5400    3.1360    3.0470 c3        1 C77     -0.231500
     12 CAB         6.2000    0.6590    2.6690 c3        1 C77     -0.231500
     13 OAD         5.4640   -9.6890   20.2140 o         1 C77     -0.257000
     14 CAG         3.1970   -2.4520    8.5250 c2        1 C77     -0.158000
     15 CAH         5.5410   -5.2660   11.7980 c3        1 C77     -0.158000
     16 CAI         4.6100   -5.0960   10.6150 c3        1 C77     -0.157000
     17 CAJ         5.2480   -6.5550   12.5380 c3        1 C77     -0.165000
     18 CAL         6.1460   -6.6850   13.7520 c3        1 C77     -0.141000
     19 CAM         3.7630   -9.3300   15.8110 c3        1 C77     -0.278000
     20 CAN         2.6650   -1.6500    6.2790 c2        1 C77     -0.389000
     21 NAR         3.7640   -4.5040    7.6790 n2        1 C77      0.034000
     22 NAS         2.9620   -4.0770    6.8630 n2        1 C77      0.059000
     23 NAT         4.6120   -8.8960   18.1140 n3        1 C77     -0.076000
     24 NAU         7.8350   -7.4790   15.9210 n2        1 C77     -0.215000
     25 OAV         3.6070   -0.6610    4.3350 os        1 C77     -0.140000
     26 OAW         6.2500    1.6220    4.8940 os        1 C77     -0.297000
     27 OAX         4.4460    2.0630    3.5670 os        1 C77     -0.361000
     28 SAY         4.2530   -7.7110   15.3040 ss        1 C77      0.062000
     29 CAZ         5.6600   -9.2820   19.0990 c1        1 C77      0.054000
     30 CBA         3.9920   -3.5390    8.7750 c2        1 C77     -0.037000
     31 CBE         3.4540   -1.7070    5.1730 c2        1 C77      0.148000
     32 CBF         5.8590   -7.9440   14.5400 c3        1 C77     -0.178000
     33 CBG         5.1090    1.3790    5.7160 c3        1 C77     -0.015000
     34 CBH         3.8870    1.6850    4.8440 c3        1 C77      0.089000
     35 CBI         2.9360    0.5360    4.7620 c2        1 C77     -0.378000
     36 NBJ         2.4720   -2.7220    7.2390 n4        1 C77      0.053000
     37 CBL         5.8610    1.8650    3.5360 c3        1 C77      0.210000
     38 CBM         4.1270   -9.6940   17.2060 c2        1 C77     -0.151000
     39 CBN         6.8670   -8.2530   15.6090 c2        1 C77     -0.075000
     40 H2          3.3220    1.4740    1.8930 hn        1 C77      0.315000
     41 HN6        -1.9990    1.9430    0.0230 hn        1 C77      0.260000
     42 HN6A       -2.2770    2.3370    1.6270 hn        1 C77      0.260000
     43 H8         -1.5050    0.6850    3.9570 hn        1 C77      0.252000
     44 HAA         6.2150    3.3520    2.0030 hc        1 C77      0.093167
     45 HAAA        6.2650    3.9950    3.7020 hc        1 C77      0.093167
     46 HAAB        7.6460    2.9950    3.0750 hc        1 C77      0.093167
     47 HAB         5.9340    0.8760    1.6080 hc        1 C77      0.093167
     48 HABA        5.6260   -0.2320    3.0180 hc        1 C77      0.093167
     49 HABB        7.2920    0.4450    2.7430 hc        1 C77      0.093167
     50 HAG         3.0530   -1.4890    9.0260 hx        1 C77      0.247000
     51 HAH         5.9770   -3.8700    9.4570 hc        1 C77      0.129500
     52 HAHA        6.6060   -5.2690   11.4450 hc        1 C77      0.090000
     53 HAI         5.4250   -4.3970   12.4980 hc        1 C77      0.090000
     54 HAIA        4.7170   -5.9720    9.9230 hc        1 C77      0.095000
     55 HAJ         4.1730   -6.5740   12.8620 hc        1 C77      0.090500
     56 HAJA        5.4070   -7.4280   11.8510 hc        1 C77      0.090500
     57 HAK         3.5480   -5.0750   10.9740 hc        1 C77      0.095000
     58 HAKA        4.9050   -2.9410   10.5920 hc        1 C77      0.129500
     59 HAL         7.2190   -6.6990   13.4180 hc        1 C77      0.111000
     60 HALA        6.0210   -5.7890   14.4180 hc        1 C77      0.111000
     61 HAM         4.1660  -10.1050   15.1110 h1        1 C77      0.135000
     62 HAMA        2.6430   -9.3410   15.7260 h1        1 C77      0.135000
     63 HAN         1.4540   -2.7980    7.4100 hn        1 C77      0.278000
     64 HANA        2.0950   -0.7260    6.5240 hx        1 C77      0.246000
     65 HNAT        4.7250   -7.9270   17.8350 hn        1 C77      0.220000
     66 HNAU        8.4240   -7.8020   16.6620 hn        1 C77      0.162000
     67 HBE         4.0460   -2.5720    4.8210 h4        1 C77      0.164000
     68 HBF         5.8120   -8.8260   13.8470 h1        1 C77      0.119000
     69 HBG         5.1420    0.3110    6.0480 h1        1 C77      0.090000
     70 HBH         5.1910    2.0660    6.5940 h1        1 C77      0.090000
     71 HBI         3.3360    2.5950    5.2090 h1        1 C77      0.115000
     72 HBM         6.6580   -9.2330   16.1000 h4        1 C77      0.100000
     73 HBN         3.9970  -10.7640   17.4670 h4        1 C77      0.169000
     74 H63        -2.2850    0.7320    1.1430 hn        1 C77      0.260000
     75 CAK         4.9330   -3.8090    9.8770 c3        1 C77     -0.116000
@<TRIPOS>BOND
     1    1    2 1   
     2    1    6 1   
     3    2    3 1   
     4    3    4 1   
     5    3   40 1   
     6    4    5 1   
     7    4   10 1   
     8    5    6 1   
     9    5    8 1   
    10    6    7 1   
    11    7   41 1   
    12    7   42 1   
    13    7   74 1   
    14    8    9 1   
    15    8   43 1   
    16    9   10 1   
    17   10   35 1   
    18   11   37 1   
    19   11   44 1   
    20   11   45 1   
    21   11   46 1   
    22   12   37 1   
    23   12   47 1   
    24   12   48 1   
    25   12   49 1   
    26   13   29 1   
    27   14   30 1   
    28   14   36 1   
    29   14   50 1   
    30   15   16 1   
    31   15   17 1   
    32   15   52 1   
    33   15   53 1   
    34   16   54 1   
    35   16   57 1   
    36   16   75 1   
    37   17   18 1   
    38   17   55 1   
    39   17   56 1   
    40   18   32 1   
    41   18   59 1   
    42   18   60 1   
    43   19   28 1   
    44   19   38 1   
    45   19   61 1   
    46   19   62 1   
    47   20   31 1   
    48   20   36 1   
    49   20   64 1   
    50   21   22 1   
    51   21   30 1   
    52   22   36 1   
    53   23   29 1   
    54   23   38 1   
    55   23   65 1   
    56   24   39 1   
    57   24   66 1   
    58   25   31 1   
    59   25   35 1   
    60   26   33 1   
    61   26   37 1   
    62   27   34 1   
    63   27   37 1   
    64   28   32 1   
    65   30   75 1   
    66   31   67 1   
    67   32   39 1   
    68   32   68 1   
    69   33   34 1   
    70   33   69 1   
    71   33   70 1   
    72   34   35 1   
    73   34   71 1   
    74   36   63 1   
    75   38   73 1   
    76   39   72 1   
    77   51   75 1   
    78   58   75 1   
@<TRIPOS>SUBSTRUCTURE
     1 C77         1 TEMP              0 ****  ****    0 ROOT
