@<TRIPOS>MOLECULE
C77
   74    75     1     0     0
SMALL
bcc


@<TRIPOS>ATOM
      1 N1          1.8850   -1.8480    0.5880 n2        1 C77     -0.286000
      2 C2          3.0180   -1.3000    1.0400 c1        1 C77     -0.016000
      3 N3          3.0650   -0.4500    2.1430 n3        1 C77     -0.189000
      4 C4          1.8930   -0.1550    2.7910 c2        1 C77      0.071000
      5 C5          0.6520   -0.7220    2.3340 c2        1 C77     -0.248000
      6 C6          0.6780   -1.5970    1.1910 c2        1 C77      0.242000
      7 N6         -0.4950   -2.1230    0.7020 n3        1 C77     -0.352000
      8 N7         -0.3590   -0.2240    3.1920 n3        1 C77     -0.232000
      9 C8          0.1780    0.6120    4.1380 c1        1 C77      0.093000
     10 N9          1.5700    0.6790    3.8980 n3        1 C77     -0.164000
     11 CAA         6.4390    3.0180    2.9860 c3        1 C77     -0.228500
     12 CAB         6.9360    1.5220    4.9630 c3        1 C77     -0.228500
     13 OAD         8.5440  -11.0570   15.8270 o         1 C77     -0.254000
     14 CAG         4.3500   -1.3520    8.8710 c2        1 C77     -0.138000
     15 CAH         4.8090   -5.7850   10.9530 c3        1 C77     -0.158000
     16 CAI         4.0310   -4.5340   10.6060 c3        1 C77     -0.156000
     17 CAJ         4.2770   -6.4200   12.2200 c3        1 C77     -0.163000
     18 CAL         5.0400   -7.6860   12.5530 c3        1 C77     -0.147000
     19 CAM         3.1320   -8.8040   18.6240 c1        1 C77     -0.222500
     20 CAN         3.2520    0.8260    8.1910 c3        1 C77      0.044000
     21 NAR         2.4650   -2.5900    8.6840 n2        1 C77     -0.091000
     22 NAS         2.1420   -1.3960    8.4100 n2        1 C77      0.017000
     23 NAT         8.1920   -8.6620   15.7620 n2        1 C77     -0.369000
     24 NAU         5.6120  -10.2650   14.8730 n2        1 C77     -0.266000
     25 OAV         2.5790    0.8410    5.9220 os        1 C77      0.116000
     26 OAW         5.3230    3.3020    5.1330 os        1 C77     -0.298000
     27 OAX         4.7770    1.4900    3.8910 os        1 C77     -0.318000
     28 SAY         5.2240   -7.2840   15.1640 sh        1 C77     -0.025000
     29 CAZ         8.2470   -9.8890   15.7710 c1        1 C77      0.317000
     30 CBA         3.8520   -2.6620    8.9880 c2        1 C77     -0.156000
     31 CBE         3.5530    1.1180    6.7590 c2        1 C77     -0.245000
     32 CBF         4.5610   -8.3030   13.8550 c3        1 C77     -0.177000
     33 CBG         3.9290    3.4620    4.8590 c3        1 C77     -0.042000
     34 CBH         3.5440    2.2190    4.0420 c3        1 C77      0.054000
     35 CBI         2.5160    1.3430    4.6720 c2        1 C77     -0.111000
     36 NBJ         3.2250   -0.5850    8.5200 na        1 C77     -0.176000
     37 CBL         5.8860    2.3380    4.2300 c3        1 C77      0.198000
     38 CBM         4.0180   -9.4320   18.1230 c1        1 C77     -0.222500
     39 CBN         4.9390   -9.7550   13.9150 c2        1 C77     -0.052000
     40 H2          3.9350   -0.0790    2.4600 hn        1 C77      0.272000
     41 HN6        -0.4520   -2.7940   -0.0290 hn        1 C77      0.229500
     42 HN6A       -1.2920   -2.1280    1.2860 hn        1 C77      0.229500
     43 H8         -1.3160   -0.4400    3.0960 hn        1 C77      0.260000
     44 HAA         5.6490    3.6440    2.5070 hc        1 C77      0.097167
     45 HAAA        7.2980    3.6690    3.2700 hc        1 C77      0.097167
     46 HAAB        6.7810    2.2440    2.2580 hc        1 C77      0.097167
     47 HAB         7.7000    2.2120    5.3930 hc        1 C77      0.097167
     48 HABA        7.4220    0.8200    4.2450 hc        1 C77      0.097167
     49 HABB        6.4670    0.9320    5.7860 hc        1 C77      0.097167
     50 HAG         5.3410   -0.9300    9.0110 h4        1 C77      0.188000
     51 HAH         5.6620   -3.6520    9.4780 hc        1 C77      0.092500
     52 HAHA        4.7400   -6.5180   10.1060 hc        1 C77      0.079500
     53 HAI         5.8940   -5.5330   11.0860 hc        1 C77      0.079500
     54 HAIA        4.0940   -3.8030   11.4550 hc        1 C77      0.092500
     55 HAJ         4.3630   -5.6960   13.0740 hc        1 C77      0.092500
     56 HAJA        3.1870   -6.6570   12.0930 hc        1 C77      0.092500
     57 HAK         2.9480   -4.7870   10.4650 hc        1 C77      0.092500
     58 HAKA        4.4970   -4.6290    8.4920 hc        1 C77      0.092500
     59 HAL         6.1370   -7.4590   12.6270 hc        1 C77      0.097500
     60 HALA        4.9090   -8.4270   11.7190 hc        1 C77      0.097500
     61 HAM         4.7590   -7.9410   16.2230 hs        1 C77      0.059000
     62 HAMA        2.3480   -8.2460   19.0690 ha        1 C77      0.223500
     63 HAN         2.2520    1.2760    8.4660 h1        1 C77      0.127500
     64 HANA        4.0590    1.3050    8.8180 h1        1 C77      0.127500
     65 HNAT        7.3850   -8.1020   15.5790 hn        1 C77      0.285000
     66 HNAU        5.8010  -11.2440   14.8100 hn        1 C77      0.165000
     67 HBE         4.4940    1.5730    6.4310 h4        1 C77      0.184000
     68 HBF         3.4390   -8.2550   13.9090 h1        1 C77      0.128000
     69 HBG         3.4100    3.5320    5.8470 h1        1 C77      0.112000
     70 HBH         3.7810    4.4010    4.2700 h1        1 C77      0.112000
     71 HBI         3.2030    2.5180    3.0100 h1        1 C77      0.128000
     72 HBM         4.5560  -10.3230   13.0350 h4        1 C77      0.107000
     73 HBN         4.8050   -9.9970   17.6870 ha        1 C77      0.223500
     74 CAK         4.5750   -3.8960    9.3410 c3        1 C77     -0.077000
@<TRIPOS>BOND
     1    1    2 1   
     2    1    6 1   
     3    2    3 1   
     4    3    4 1   
     5    3   40 1   
     6    4    5 1   
     7    4   10 1   
     8    5    6 1   
     9    5    8 1   
    10    6    7 1   
    11    7   41 1   
    12    7   42 1   
    13    8    9 1   
    14    8   43 1   
    15    9   10 1   
    16   10   35 1   
    17   11   37 1   
    18   11   44 1   
    19   11   45 1   
    20   11   46 1   
    21   12   37 1   
    22   12   47 1   
    23   12   48 1   
    24   12   49 1   
    25   13   29 1   
    26   14   30 1   
    27   14   36 1   
    28   14   50 1   
    29   15   16 1   
    30   15   17 1   
    31   15   52 1   
    32   15   53 1   
    33   16   54 1   
    34   16   57 1   
    35   16   74 1   
    36   17   18 1   
    37   17   55 1   
    38   17   56 1   
    39   18   32 1   
    40   18   59 1   
    41   18   60 1   
    42   19   38 1   
    43   19   62 1   
    44   20   31 1   
    45   20   36 1   
    46   20   63 1   
    47   20   64 1   
    48   21   22 1   
    49   21   30 1   
    50   22   36 1   
    51   23   29 1   
    52   23   65 1   
    53   24   39 1   
    54   24   66 1   
    55   25   31 1   
    56   25   35 1   
    57   26   33 1   
    58   26   37 1   
    59   27   34 1   
    60   27   37 1   
    61   28   32 1   
    62   28   61 1   
    63   30   74 1   
    64   31   67 1   
    65   32   39 1   
    66   32   68 1   
    67   33   34 1   
    68   33   69 1   
    69   33   70 1   
    70   34   35 1   
    71   34   71 1   
    72   38   73 1   
    73   39   72 1   
    74   51   74 1   
    75   58   74 1   
@<TRIPOS>SUBSTRUCTURE
     1 C77         1 TEMP              0 ****  ****    0 ROOT
