@<TRIPOS>MOLECULE
C77
   74    72     1     0     0
SMALL
bcc


@<TRIPOS>ATOM
      1 N1         -4.1160    4.2550   -8.1710 n1        1 C77     -0.268000
      2 C2         -2.7860    3.9470   -8.1970 c1        1 C77      0.023000
      3 N3         -2.0570    3.9650   -7.0440 n1        1 C77     -0.215000
      4 C4         -2.6560    4.2910   -5.8640 c1        1 C77     -0.088000
      5 C5         -3.9690    4.5960   -5.8370 c1        1 C77     -0.088000
      6 C6         -4.7080    4.5770   -7.0100 c1        1 C77      0.238000
      7 N6         -6.0030    5.0830   -7.3110 n3        1 C77     -0.353000
      8 N7         -4.3070    4.8800   -4.5520 n1        1 C77     -0.168000
      9 C8         -3.1960    4.7480   -3.7880 c1        1 C77     -0.035000
     10 N9         -2.1760    4.3850   -4.5930 n1        1 C77     -0.168000
     11 CAA         2.2570    6.5490   -3.3070 c3        1 C77     -0.230500
     12 CAB         3.0590    4.7650   -4.8530 c3        1 C77     -0.230500
     13 OAD         4.2910   -7.8410    7.2780 o         1 C77     -0.341000
     14 CAG         0.5510    0.8540    0.7620 c1        1 C77     -0.140000
     15 CAH         1.1160   -3.5110    3.1120 c3        1 C77     -0.158000
     16 CAI         0.1820   -2.4300    2.5190 c3        1 C77     -0.156000
     17 CAJ         0.3130   -4.4240    4.0500 c3        1 C77     -0.160000
     18 CAK         0.9790   -1.5310    1.5730 c3        1 C77     -0.077000
     19 CAL         1.2440   -5.5010    4.6390 c3        1 C77     -0.151000
     20 CAM         0.1710   -6.7100    8.1520 c3        1 C77     -0.306000
     21 CAN        -0.5190    2.7680   -0.6360 c3        1 C77     -0.024000
     22 NAR        -1.0090   -0.6110    0.2430 n2        1 C77     -0.086000
     23 NAS        -1.1980    0.5160   -0.5130 n2        1 C77      0.009000
     24 NAT         1.9820   -8.3120    8.0200 n         1 C77     -0.323000
     25 NAU         2.4480   -7.4890    5.7430 n         1 C77     -0.326000
     26 OAV        -1.2710    2.9050   -2.8360 os        1 C77     -0.257000
     27 OAW         1.6990    4.1260   -2.8040 os        1 C77     -0.283000
     28 OAX         0.8320    5.2790   -4.5850 os        1 C77     -0.269000
     29 SAY         0.3530   -5.6370    7.1790 ss        1 C77      0.073000
     30 CAZ         3.1030   -7.9160    7.0240 c2        1 C77      0.340000
     31 CBA         0.0600   -0.4110    1.0260 c2        1 C77     -0.153000
     32 CBE        -0.1810    2.8930   -2.1230 c3        1 C77     -0.024000
     33 CBF         0.4290   -6.4050    5.6750 c3        1 C77     -0.231000
     34 CBG         0.5160    4.2820   -2.4160 c3        1 C77     -0.016000
     35 CBH        -0.2230    4.8730   -3.6040 c3        1 C77     -0.013000
     36 CBI        -0.9760    3.8780   -4.0800 c2        1 C77      0.146000
     37 NBJ        -0.2270    1.4130   -0.1830 n3        1 C77     -0.170000
     38 CBL         1.9290    5.2040   -3.9310 c3        1 C77      0.196000
     39 CBM         0.8360   -8.0270    7.4620 c3        1 C77     -0.019000
     40 CBN         1.1170   -7.6400    5.8990 c3        1 C77     -0.016000
     41 H2         -2.3560    3.7120   -9.0420 ha        1 C77      0.189000
     42 HN6        -6.5130    5.4590   -6.6490 hn        1 C77      0.243000
     43 HN6A       -6.3230    5.0380   -8.1630 hn        1 C77      0.243000
     44 H8         -3.1520    4.8520   -2.8260 DU        1 C77      0.211500
     45 HAA         1.4360    6.9510   -2.9460 hc        1 C77      0.098000
     46 HAAA        2.9060    6.4240   -2.5820 hc        1 C77      0.098000
     47 HAAB        2.6390    7.1430   -3.9910 hc        1 C77      0.098000
     48 HAB         3.8960    4.7060   -4.3400 hc        1 C77      0.098000
     49 HABA        2.8460    3.8860   -5.2350 hc        1 C77      0.098000
     50 HABB        3.1630    5.4180   -5.5750 hc        1 C77      0.098000
     51 HAG         1.3110    1.2840    1.2140 DU        1 C77      0.211500
     52 HAH         1.8340   -3.0810    3.6130 hc        1 C77      0.080000
     53 HAHA        1.4990   -4.0460    2.3850 hc        1 C77      0.080000
     54 HAI        -0.1920   -1.8900    3.2430 hc        1 C77      0.093000
     55 HAIA       -0.5430   -2.8610    2.0250 hc        1 C77      0.093000
     56 HAJ        -0.0670   -3.8930    4.7740 hc        1 C77      0.091500
     57 HAJA       -0.4040   -4.8520    3.5510 hc        1 C77      0.091500
     58 HAK         1.7240   -1.1330    2.0550 hc        1 C77      0.093000
     59 HAKA        1.3220   -2.0660    0.8270 hc        1 C77      0.093000
     60 HAL         1.5890   -6.0640    3.9170 hc        1 C77      0.095000
     61 HALA        1.9880   -5.0710    5.0990 hc        1 C77      0.095000
     62 HAM         0.6300   -6.4950    8.9820 h1        1 C77      0.122000
     63 HAMA       -0.7770   -6.8580    8.3170 h1        1 C77      0.122000
     64 HAN        -1.4700    2.9600   -0.5000 h1        1 C77      0.120500
     65 HANA        0.0200    3.4070   -0.1240 h1        1 C77      0.120500
     66 HNAT        2.1040   -8.6300    8.8750 hn        1 C77      0.226000
     67 HNAU        2.8710   -7.2870    4.9720 hn        1 C77      0.230000
     68 HBE         0.4010    2.1550   -2.4040 h1        1 C77      0.145000
     69 HBF        -0.4810   -6.5780    5.3340 h1        1 C77      0.123000
     70 HBG         0.4700    4.8750   -1.6390 h1        1 C77      0.140000
     71 HBH        -0.7690    5.6340   -3.3360 h1        1 C77      0.168000
     72 HBI        -0.4900    3.3940   -4.7780 h4        1 C77      0.154000
     73 HBM         0.2280   -8.7880    7.5220 h1        1 C77      0.128000
     74 HBN         0.7750   -8.3390    5.3040 h1        1 C77      0.127000
@<TRIPOS>BOND
     1    1    6 1   
     2    2    3 1   
     3    2   41 1   
     4    4    5 1   
     5    6    7 1   
     6    7   42 1   
     7    7   43 1   
     8    8    9 1   
     9    9   10 1   
    10   11   38 1   
    11   11   45 1   
    12   11   46 1   
    13   11   47 1   
    14   12   38 1   
    15   12   48 1   
    16   12   49 1   
    17   12   50 1   
    18   13   30 1   
    19   14   31 1   
    20   14   37 1   
    21   15   16 1   
    22   15   17 1   
    23   15   52 1   
    24   15   53 1   
    25   16   18 1   
    26   16   54 1   
    27   16   55 1   
    28   17   19 1   
    29   17   56 1   
    30   17   57 1   
    31   18   31 1   
    32   18   58 1   
    33   18   59 1   
    34   19   33 1   
    35   19   60 1   
    36   19   61 1   
    37   20   29 1   
    38   20   39 1   
    39   20   62 1   
    40   20   63 1   
    41   21   32 1   
    42   21   37 1   
    43   21   64 1   
    44   21   65 1   
    45   22   23 1   
    46   22   31 1   
    47   23   37 1   
    48   24   30 1   
    49   24   39 1   
    50   24   66 1   
    51   25   30 1   
    52   25   40 1   
    53   25   67 1   
    54   26   32 1   
    55   26   36 1   
    56   27   34 1   
    57   27   38 1   
    58   28   35 1   
    59   28   38 1   
    60   29   33 1   
    61   32   34 1   
    62   32   68 1   
    63   33   40 1   
    64   33   69 1   
    65   34   35 1   
    66   34   70 1   
    67   35   36 1   
    68   35   71 1   
    69   36   72 1   
    70   39   40 1   
    71   39   73 1   
    72   40   74 1   
@<TRIPOS>SUBSTRUCTURE
     1 C77         1 TEMP              0 ****  ****    0 ROOT
