@<TRIPOS>MOLECULE
C77
   74    80     1     0     0
SMALL
bcc


@<TRIPOS>ATOM
      1 N1         -8.5320    3.4160   -0.5950 nb        1 C77     -0.794000
      2 C2         -8.7410    2.0740   -0.6320 ca        1 C77      0.685900
      3 N3         -7.9000    1.0500   -0.3570 nb        1 C77     -0.741000
      4 C4         -6.6570    1.4760    0.0180 ca        1 C77      0.455800
      5 C5         -6.2790    2.8810    0.1070 ca        1 C77     -0.231200
      6 C6         -7.2790    3.8540   -0.2300 ca        1 C77      0.759200
      7 N6         -6.9750    5.1900   -0.2150 nh        1 C77     -0.955500
      8 N7         -4.9470    2.9960    0.5350 nc        1 C77     -0.544100
      9 C8         -4.5220    1.7380    0.7020 cd        1 C77      0.420700
     10 N9         -5.5030    0.7610    0.3800 na        1 C77     -0.302000
     11 CAA        -6.7890   -4.9560   -0.6680 c3        1 C77     -0.112600
     12 CAB        -5.4070   -4.1700    1.3020 c3        1 C77     -0.112600
     13 OAD        11.4160   -1.9270    0.1610 o         1 C77     -0.616500
     14 CAG        -0.1000   -1.3460   -0.4790 cc        1 C77     -0.229600
     15 CAH         4.6130   -0.5560    0.6990 c3        1 C77     -0.079400
     16 CAI         3.1970   -0.0930    0.4280 c3        1 C77     -0.077400
     17 CAJ         5.6080    0.5490    0.4140 c3        1 C77     -0.081400
     18 CAL         7.0240    0.0920    0.7080 c3        1 C77     -0.072400
     19 CAM         9.7740    1.9870   -1.4160 c3        1 C77     -0.045300
     20 CAN        -2.5120   -0.7950   -0.9990 c3        1 C77      0.035300
     21 NAR         0.1420    0.2790    1.0780 nd        1 C77     -0.349000
     22 NAS        -1.0390    0.3780    0.6310 nc        1 C77     -0.160800
     23 NAT        11.4350    0.3760   -0.3880 n         1 C77     -0.513900
     24 NAU         9.8620   -0.4420    1.1490 n         1 C77     -0.516900
     25 OAV        -4.0470   -1.0240    0.8850 os        1 C77     -0.400600
     26 OAW        -4.8310   -3.5970   -0.9930 os        1 C77     -0.426600
     27 OAX        -6.6840   -2.6270   -0.0760 os        1 C77     -0.412600
     28 SAY         8.1160    1.3810   -1.4020 ss        1 C77     -0.291200
     29 CAZ        10.9290   -0.7880    0.2670 c         1 C77      0.749500
     30 CBA         0.8170   -0.7930    0.4320 cd        1 C77      0.269600
     31 CBE        -3.4710   -1.7180   -0.2290 c3        1 C77      0.087100
     32 CBF         8.0280    1.1680    0.3690 c3        1 C77     -0.009600
     33 CBG        -4.6220   -2.1950   -1.1330 c3        1 C77      0.095100
     34 CBH        -5.9010   -1.5430   -0.5620 c3        1 C77      0.098100
     35 CBI        -5.4140   -0.6610    0.6270 c3        1 C77      0.237800
     36 NBJ        -1.2560   -0.5600   -0.3250 na        1 C77      0.043400
     37 CBL        -5.9250   -3.8480   -0.0910 c3        1 C77      0.339600
     38 CBM        10.5020    1.4790   -0.1780 c3        1 C77      0.057700
     39 CBN         9.4490    0.9310    0.8860 c3        1 C77      0.060700
     40 H2         -9.7690    1.7740   -0.9340 h5        1 C77      0.052100
     41 HN6        -7.6830    5.8660   -0.3590 hn        1 C77      0.447800
     42 HN6A       -6.1020    5.4710    0.1570 hn        1 C77      0.447800
     43 H8         -3.5220    1.4350    1.0490 h5        1 C77      0.103800
     44 HAA        -7.6840   -5.0970   -0.0180 hc        1 C77      0.058700
     45 HAAA       -7.1220   -4.6870   -1.6980 hc        1 C77      0.058700
     46 HAAB       -6.1970   -5.9010   -0.7080 hc        1 C77      0.058700
     47 HAB        -4.7670   -5.0820    1.2610 hc        1 C77      0.058700
     48 HABA       -4.8020   -3.3140    1.6910 hc        1 C77      0.058700
     49 HABB       -6.2690   -4.3490    1.9870 hc        1 C77      0.058700
     50 HAG        -0.0270   -2.1680   -1.1860 h4        1 C77      0.190000
     51 HAH         4.7050   -0.8800    1.7690 hc        1 C77      0.040700
     52 HAHA        4.8480   -1.4480    0.0600 hc        1 C77      0.040700
     53 HAI         2.9600    0.7960    1.0710 hc        1 C77      0.053700
     54 HAIA        3.1050    0.2350   -0.6410 hc        1 C77      0.053700
     55 HAJ         5.5320    0.8610   -0.6620 hc        1 C77      0.052200
     56 HAJA        5.3620    1.4470    1.0400 hc        1 C77      0.052200
     57 HAK         2.4490   -2.1000    0.0760 hc        1 C77      0.053700
     58 HAKA        2.2910   -1.5180    1.7860 hc        1 C77      0.053700
     59 HAL         7.1080   -0.1650    1.7990 hc        1 C77      0.055700
     60 HALA        7.2380   -0.8400    0.1190 hc        1 C77      0.055700
     61 HAM        10.2540    1.6590   -2.3700 h1        1 C77      0.082700
     62 HAMA        9.7710    3.1050   -1.4130 h1        1 C77      0.082700
     63 HAN        -2.2770   -1.2710   -1.9930 h1        1 C77      0.081200
     64 HANA       -3.0220    0.1960   -1.1720 h1        1 C77      0.081200
     65 HNAT       11.7890    0.2390   -1.3070 hn        1 C77      0.312500
     66 HNAU        9.1560   -1.1300    1.2780 hn        1 C77      0.316500
     67 HBE        -2.9300   -2.5950    0.2240 h1        1 C77      0.105700
     68 HBF         7.6720    2.1390    0.8090 h1        1 C77      0.083700
     69 HBG        -4.4430   -2.0060   -2.2190 h1        1 C77      0.100700
     70 HBH        -6.5320   -1.0000   -1.3080 h1        1 C77      0.128700
     71 HBI        -5.9760   -0.9160    1.5760 h2        1 C77      0.114700
     72 HBM        11.0850    2.3230    0.2870 h1        1 C77      0.088700
     73 HBN         9.5800    1.5000    1.8510 h1        1 C77      0.087700
     74 CAK         2.2050   -1.2050    0.7090 c3        1 C77     -0.092700
@<TRIPOS>BOND
     1    1    2 ar  
     2    1    6 ar  
     3    2    3 ar  
     4    2   40 1   
     5    3    4 ar  
     6    4    5 ar  
     7    4   10 1   
     8    5    6 ar  
     9    5    8 1   
    10    6    7 1   
    11    7   41 1   
    12    7   42 1   
    13    8    9 2   
    14    9   10 1   
    15    9   43 1   
    16   10   35 1   
    17   11   37 1   
    18   11   44 1   
    19   11   45 1   
    20   11   46 1   
    21   12   37 1   
    22   12   47 1   
    23   12   48 1   
    24   12   49 1   
    25   13   29 2   
    26   14   30 2   
    27   14   36 1   
    28   14   50 1   
    29   15   16 1   
    30   15   17 1   
    31   15   51 1   
    32   15   52 1   
    33   16   53 1   
    34   16   54 1   
    35   16   74 1   
    36   17   18 1   
    37   17   55 1   
    38   17   56 1   
    39   18   32 1   
    40   18   59 1   
    41   18   60 1   
    42   19   28 1   
    43   19   38 1   
    44   19   61 1   
    45   19   62 1   
    46   20   31 1   
    47   20   36 1   
    48   20   63 1   
    49   20   64 1   
    50   21   22 2   
    51   21   30 1   
    52   22   36 1   
    53   23   29 1   
    54   23   38 1   
    55   23   65 1   
    56   24   29 1   
    57   24   39 1   
    58   24   66 1   
    59   25   31 1   
    60   25   35 1   
    61   26   33 1   
    62   26   37 1   
    63   27   34 1   
    64   27   37 1   
    65   28   32 1   
    66   30   74 1   
    67   31   33 1   
    68   31   67 1   
    69   32   39 1   
    70   32   68 1   
    71   33   34 1   
    72   33   69 1   
    73   34   35 1   
    74   34   70 1   
    75   35   71 1   
    76   38   39 1   
    77   38   72 1   
    78   39   73 1   
    79   57   74 1   
    80   58   74 1   
@<TRIPOS>SUBSTRUCTURE
     1 C77         1 TEMP              0 ****  ****    0 ROOT
