@<TRIPOS>MOLECULE
C77
   74    77     1     0     0
SMALL
bcc


@<TRIPOS>ATOM
      1 N1          1.3890    0.4640    1.4320 n2        1 C77     -0.286000
      2 C2          2.5780    0.7280    1.9860 c1        1 C77     -0.014000
      3 N3          2.8090    0.6710    3.3580 n7        1 C77     -0.190000
      4 C4          1.7680    0.3380    4.1840 c2        1 C77      0.071000
      5 C5          0.4730    0.0430    3.6280 c2        1 C77     -0.251000
      6 C6          0.3050    0.1160    2.1990 c2        1 C77      0.246000
      7 N6         -0.9270   -0.1200    1.6390 n8        1 C77     -0.354000
      8 N7         -0.3770   -0.2640    4.7190 n7        1 C77     -0.225000
      9 C8          0.3060   -0.1710    5.9030 c1        1 C77      0.076000
     10 N9          1.6310    0.2210    5.5970 n3        1 C77     -0.166000
     11 CAA         6.5050    2.7070    5.6410 c3        1 C77     -0.229500
     12 CAB         7.0810    0.3080    6.1990 c3        1 C77     -0.229500
     13 OAD         4.4990   -2.2290   11.7690 o         1 C77     -0.410000
     14 CAG         1.7520   -3.3510    8.1420 c2        1 C77      0.046000
     15 CAH         6.3580   -9.0330    9.7390 c3        1 C77     -0.159000
     16 CAI         6.2160  -10.5300    9.8330 c3        1 C77     -0.211000
     17 CAJ         6.1030   -8.3690   11.0760 c3        1 C77     -0.162000
     18 CAL         6.2630   -6.8660   10.9750 c3        1 C77     -0.137000
     19 CAM         3.8210   -5.8220   13.9030 c2        1 C77     -1.130000
     20 CAN         3.7280   -2.0510    9.0370 c3        1 C77      0.021000
     21 NAR         2.6550   -5.3970    8.5740 n2        1 C77     -0.077000
     22 NAS         3.4970   -4.5450    8.9340 n2        1 C77     -0.001000
     23 NAT         4.0300   -3.3750   13.6950 ns        1 C77     -0.330000
     24 NAU         6.1770   -3.6740   12.4750 ns        1 C77     -0.181000
     25 OAV         2.8270   -0.7960    7.2270 os        1 C77      0.071000
     26 OAW         5.6680    1.6090    7.6500 os        1 C77     -0.295000
     27 OAX         4.8220    0.9520    5.6570 os        1 C77     -0.321000
     28 SAY         4.1550   -6.3860   12.5160 s4        1 C77      1.341000
     29 CAZ         4.8420   -3.0950   12.6120 c2        1 C77      0.298000
     30 CBA         1.4780   -4.7560    8.0390 c2        1 C77     -0.271000
     31 CBE         3.9100   -1.0970    7.9070 c2        1 C77     -0.214000
     32 CBF         5.9220   -6.1790   12.2910 c3        1 C77     -0.495000
     33 CBG         4.2720    1.9070    7.7370 c3        1 C77     -0.041000
     34 CBH         3.6850    1.4270    6.3990 c3        1 C77      0.047000
     35 CBI         2.6650    0.3450    6.5170 c2        1 C77     -0.100000
     36 NBJ         3.0090   -3.2700    8.7040 na        1 C77     -0.173000
     37 CBL         6.0360    1.4070    6.2770 c3        1 C77      0.199000
     38 CBM         4.1890   -4.5450   14.5350 c3        1 C77      0.092000
     39 CBN         6.6210   -4.8840   12.3240 c1        1 C77     -0.082000
     40 H2          3.7220    0.8440    3.7210 hn        1 C77      0.273000
     41 HN6        -1.0110   -0.1470    0.6500 hn        1 C77      0.232500
     42 HN6A       -1.6180   -0.5770    2.1770 hn        1 C77      0.232500
     43 H8         -1.3310   -0.4950    4.6250 hn        1 C77      0.263000
     44 HAA         5.7290    3.4980    5.7660 hc        1 C77      0.097833
     45 HAAA        7.4480    3.0410    6.1350 hc        1 C77      0.097833
     46 HAAB        6.6900    2.5450    4.5530 hc        1 C77      0.097833
     47 HAB         7.9460    0.5800    6.8500 hc        1 C77      0.097833
     48 HABA        6.6550   -0.6640    6.5430 hc        1 C77      0.097833
     49 HABB        7.4230    0.2010    5.1430 hc        1 C77      0.097833
     50 HAG         1.1460   -2.4870    7.8460 h4        1 C77      0.228000
     51 HAH         6.4090  -10.9990    8.8380 hc        1 C77      0.074000
     52 HAHA        5.6370   -8.6320    8.9790 hc        1 C77      0.085000
     53 HAI         7.3900   -8.7730    9.3860 hc        1 C77      0.085000
     54 HAIA        5.1850  -10.8100   10.1600 hc        1 C77      0.074000
     55 HAJ         6.8190   -8.7750   11.8400 hc        1 C77      0.078500
     56 HAJA        5.0660   -8.6200   11.4280 hc        1 C77      0.078500
     57 HAK         6.9440  -10.9520   10.5680 hc        1 C77      0.074000
     58 HAKA        0.2140   -6.3980    7.4910 ha        1 C77      0.064000
     59 HAL         5.6040   -6.4630   10.1600 hc        1 C77      0.107500
     60 HALA        7.3230   -6.6240   10.6930 hc        1 C77      0.107500
     61 HAM         3.8730   -5.3950   11.7070 hs        1 C77     -0.207000
     62 HAMA        3.2430   -6.4730   14.5760 h4        1 C77      0.179000
     63 HAN         3.1660   -1.5410    9.8790 h1        1 C77      0.153500
     64 HANA        4.7520   -2.3220    9.4340 h1        1 C77      0.153500
     65 HNAT        3.1000   -3.0200   13.6100 hn        1 C77      0.229000
     66 HNAU        6.8710   -2.9510   12.3980 hn        1 C77      0.267000
     67 HBE         4.8620   -0.5750    7.7490 h4        1 C77      0.190000
     68 HBF         6.3950   -6.7560   13.1410 h1        1 C77      0.169000
     69 HBG         3.8800    1.3590    8.6280 h1        1 C77      0.113000
     70 HBH         4.1440    3.0110    7.8660 h1        1 C77      0.113000
     71 HBI         3.2470    2.2950    5.8290 h1        1 C77      0.128000
     72 HBM         5.2650   -4.5700   14.8820 h1        1 C77      0.083000
     73 HBN         3.5490   -4.3680   15.4480 h1        1 C77      0.083000
     74 CAK         0.3140   -5.3040    7.5190 c1        1 C77     -0.069000
@<TRIPOS>BOND
     1    1    2 1   
     2    1    6 1   
     3    2    3 1   
     4    3    4 1   
     5    3   40 1   
     6    4    5 1   
     7    4   10 1   
     8    5    6 1   
     9    5    8 1   
    10    6    7 1   
    11    7   41 1   
    12    7   42 1   
    13    8    9 1   
    14    8   43 1   
    15    9   10 1   
    16   10   35 1   
    17   11   37 1   
    18   11   44 1   
    19   11   45 1   
    20   11   46 1   
    21   12   37 1   
    22   12   47 1   
    23   12   48 1   
    24   12   49 1   
    25   13   29 1   
    26   14   30 1   
    27   14   36 1   
    28   14   50 1   
    29   15   16 1   
    30   15   17 1   
    31   15   52 1   
    32   15   53 1   
    33   16   51 1   
    34   16   54 1   
    35   16   57 1   
    36   17   18 1   
    37   17   55 1   
    38   17   56 1   
    39   18   32 1   
    40   18   59 1   
    41   18   60 1   
    42   19   28 1   
    43   19   38 1   
    44   19   62 1   
    45   20   31 1   
    46   20   36 1   
    47   20   63 1   
    48   20   64 1   
    49   21   22 1   
    50   21   30 1   
    51   22   36 1   
    52   23   29 1   
    53   23   38 1   
    54   23   65 1   
    55   24   29 1   
    56   24   39 1   
    57   24   66 1   
    58   25   31 1   
    59   25   35 1   
    60   26   33 1   
    61   26   37 1   
    62   27   34 1   
    63   27   37 1   
    64   28   32 1   
    65   28   61 1   
    66   30   74 1   
    67   31   67 1   
    68   32   39 1   
    69   32   68 1   
    70   33   34 1   
    71   33   69 1   
    72   33   70 1   
    73   34   35 1   
    74   34   71 1   
    75   38   72 1   
    76   38   73 1   
    77   58   74 1   
@<TRIPOS>SUBSTRUCTURE
     1 C77         1 TEMP              0 ****  ****    0 ROOT
