@<TRIPOS>MOLECULE
C78
   86    88     1     0     0
SMALL
bcc


@<TRIPOS>ATOM
      1 N1          0.8050    1.5080   -5.6120 nh        1 C78     -0.299000
      2 C2          0.2260    2.3100   -4.6550 ca        1 C78      0.118000
      3 C3         -0.2030    3.6320   -4.9550 ca        1 C78     -0.230000
      4 C4         -0.6320    4.4840   -3.9470 ca        1 C78     -0.094000
      5 C5         -0.6690    4.0690   -2.6190 ca        1 C78     -0.217000
      6 C7         -0.2730    2.7630   -2.3050 ca        1 C78     -0.060000
      7 C6          0.1550    1.8890   -3.2950 ca        1 C78     -0.183000
      8 C8         -0.2890    2.3220   -0.8780 c3        1 C78      0.041000
      9 O9         -1.0170    1.0790   -0.8260 os        1 C78     -0.251000
     10 C10        -0.7250    0.2390    0.2200 c2        1 C78      0.388000
     11 O11         0.0210    0.6760    1.1270 o         1 C78     -0.493000
     12 N12        -1.4510   -0.9450    0.1750 n         1 C78     -0.274000
     13 C13        -0.9310   -2.1710    0.7570 c3        1 C78     -0.022000
     14 C14         0.3900   -2.6730    0.1370 c3        1 C78     -0.079000
     15 C15         0.2540   -2.7900   -1.3270 ca        1 C78     -0.355000
     16 C16         0.8780   -1.8660   -2.1880 ca        1 C78     -0.055000
     17 C17         0.7230   -1.9300   -3.5490 ca        1 C78     -0.315500
     18 C18        -0.5070   -3.8220   -1.9070 ca        1 C78     -0.055000
     19 C19        -0.6830   -3.9130   -3.2640 ca        1 C78     -0.315500
     20 C20        -0.0910   -2.9520   -4.1660 ca        1 C78      0.322000
     21 C21        -0.8700   -2.1210    2.3010 c2        1 C78      0.300000
     22 O22        -1.7830   -2.6510    2.9660 o         1 C78     -0.383000
     23 O23        -0.2800   -3.0070   -5.4200 o         1 C78     -0.533000
     24 P24        -0.1610   -2.1030   -7.4980 p3        1 C78      2.517000
     25 O25        -1.5340   -2.4210   -7.9420 o         1 C78     -1.178333
     26 O26         0.9730   -2.9050   -8.0000 o         1 C78     -1.178333
     27 O27         0.1160   -0.7300   -7.0020 o         1 C78     -1.178333
     28 N28         0.2420   -1.5450    2.8790 n         1 C78     -0.364000
     29 C29         0.4270   -1.3110    4.2960 c3        1 C78      0.089000
     30 C30         1.8550   -0.7690    4.5780 c3        1 C78     -0.162000
     31 C31         2.9210   -1.8080    4.3080 c3        1 C78     -0.153000
     32 C32         2.6840   -3.0660    5.1170 c3        1 C78     -0.154000
     33 C33         1.2950   -3.6190    4.8760 c3        1 C78     -0.153000
     34 C34         0.2270   -2.5840    5.1510 c3        1 C78     -0.162000
     35 C35        -0.5210   -0.2140    4.8870 c2        1 C78      0.285000
     36 O36        -0.7470   -0.1890    6.1160 o         1 C78     -0.399000
     37 N37        -0.9970    0.7740    4.0540 n         1 C78     -0.363000
     38 C38        -1.9200    1.7780    4.5340 c3        1 C78      0.033000
     39 C39        -3.3890    1.3180    4.5600 c3        1 C78     -0.176000
     40 C40        -3.9770    1.1750    3.1740 c3        1 C78     -0.163000
     41 C41        -3.8520    2.4590    2.3810 c3        1 C78     -0.156000
     42 C42        -2.4110    2.9260    2.3200 c3        1 C78     -0.162000
     43 C43        -1.8480    3.0910    3.7210 c3        1 C78     -0.128000
     44 C44        -0.4390    3.6670    3.7410 c2        1 C78      0.308000
     45 N45         0.4810    3.2460    2.8220 n         1 C78     -0.419000
     46 O46        -0.1310    4.5440    4.5810 o         1 C78     -0.417000
     47 HN11        0.8170    0.5140   -5.4280 hn        1 C78      0.239000
     48 HN12        0.5210    1.6730   -6.5560 hn        1 C78      0.239000
     49 HC31       -0.1990    3.9790   -5.9980 ha        1 C78      0.121000
     50 HC41       -0.9560    5.5030   -4.2050 ha        1 C78      0.102000
     51 HC51       -1.0130    4.7510   -1.8320 ha        1 C78      0.107000
     52 HC61        0.4200    0.8490   -3.0340 ha        1 C78      0.162000
     53 HC81       -0.8250    3.0470   -0.2090 h1        1 C78      0.086000
     54 HC82        0.7560    2.1670   -0.4980 h1        1 C78      0.086000
     55 H121       -1.8310   -1.1210   -0.7440 hn        1 C78      0.255000
     56 H131       -1.7250   -2.9520    0.5240 h1        1 C78      0.143000
     57 H141        1.2280   -1.9720    0.3910 hc        1 C78      0.070000
     58 H142        0.6160   -3.6670    0.6080 hc        1 C78      0.070000
     59 H161        1.5020   -1.0710   -1.7480 ha        1 C78      0.074000
     60 H171        1.2130   -1.2090   -4.2170 ha        1 C78      0.123500
     61 H181       -0.9730   -4.5670   -1.2420 ha        1 C78      0.074000
     62 H191       -1.2820   -4.7180   -3.7080 ha        1 C78      0.123500
     63 H281        0.8240   -0.9960    2.2790 hn        1 C78      0.249000
     64 H301        2.0480    0.1450    3.9590 hc        1 C78      0.104750
     65 H302        1.8860   -0.4660    5.6580 hc        1 C78      0.104750
     66 H311        2.9400   -2.0630    3.2160 hc        1 C78      0.082500
     67 H312        3.9240   -1.3780    4.5680 hc        1 C78      0.082500
     68 H321        3.4500   -3.8370    4.8420 hc        1 C78      0.070500
     69 H322        2.8110   -2.8370    6.2080 hc        1 C78      0.070500
     70 H331        1.2140   -3.9810    3.8170 hc        1 C78      0.082500
     71 H332        1.1250   -4.5040    5.5450 hc        1 C78      0.082500
     72 H341        0.2650   -2.2770    6.2290 hc        1 C78      0.104750
     73 H342       -0.7880   -3.0160    4.9520 hc        1 C78      0.104750
     74 H371       -0.9480    0.6560    3.0650 hn        1 C78      0.247000
     75 H381       -1.6190    2.0160    5.6010 h1        1 C78      0.122000
     76 H391       -3.9730    2.0780    5.1420 hc        1 C78      0.088500
     77 H392       -3.4610    0.3410    5.1070 hc        1 C78      0.088500
     78 H401       -5.0590    0.8920    3.2580 hc        1 C78      0.089500
     79 H402       -3.4600    0.3430    2.6260 hc        1 C78      0.089500
     80 H411       -4.4860    3.2560    2.8510 hc        1 C78      0.080000
     81 H412       -4.2320    2.2960    1.3380 hc        1 C78      0.080000
     82 H421       -2.3530    3.9070    1.7790 hc        1 C78      0.094000
     83 H422       -1.8120    2.1840    1.7240 hc        1 C78      0.094000
     84 H431       -2.4920    3.8350    4.2750 hc        1 C78      0.119000
     85 H451        1.4100    3.5790    2.8860 hn        1 C78      0.235000
     86 H452        0.2880    2.5000    2.1970 hn        1 C78      0.235000
@<TRIPOS>BOND
     1    1    2 1   
     2    1   47 1   
     3    1   48 1   
     4    2    3 1   
     5    2    7 1   
     6    3    4 1   
     7    3   49 1   
     8    4    5 1   
     9    4   50 1   
    10    5    6 1   
    11    5   51 1   
    12    6    7 1   
    13    6    8 1   
    14    7   52 1   
    15    8    9 1   
    16    8   53 1   
    17    8   54 1   
    18    9   10 1   
    19   10   11 1   
    20   10   12 1   
    21   12   13 1   
    22   12   55 1   
    23   13   14 1   
    24   13   21 1   
    25   13   56 1   
    26   14   15 1   
    27   14   57 1   
    28   14   58 1   
    29   15   16 1   
    30   15   18 1   
    31   16   17 1   
    32   16   59 1   
    33   17   20 1   
    34   17   60 1   
    35   18   19 1   
    36   18   61 1   
    37   19   20 1   
    38   19   62 1   
    39   20   23 1   
    40   21   22 1   
    41   21   28 1   
    42   24   25 1   
    43   24   26 1   
    44   24   27 1   
    45   28   29 1   
    46   28   63 1   
    47   29   30 1   
    48   29   34 1   
    49   29   35 1   
    50   30   31 1   
    51   30   64 1   
    52   30   65 1   
    53   31   32 1   
    54   31   66 1   
    55   31   67 1   
    56   32   33 1   
    57   32   68 1   
    58   32   69 1   
    59   33   34 1   
    60   33   70 1   
    61   33   71 1   
    62   34   72 1   
    63   34   73 1   
    64   35   36 1   
    65   35   37 1   
    66   37   38 1   
    67   37   74 1   
    68   38   39 1   
    69   38   43 1   
    70   38   75 1   
    71   39   40 1   
    72   39   76 1   
    73   39   77 1   
    74   40   41 1   
    75   40   78 1   
    76   40   79 1   
    77   41   42 1   
    78   41   80 1   
    79   41   81 1   
    80   42   43 1   
    81   42   82 1   
    82   42   83 1   
    83   43   44 1   
    84   43   84 1   
    85   44   45 1   
    86   44   46 1   
    87   45   85 1   
    88   45   86 1   
@<TRIPOS>SUBSTRUCTURE
     1 C78         1 TEMP              0 ****  ****    0 ROOT
