@<TRIPOS>MOLECULE
C78
   90    93     1     0     0
SMALL
bcc


@<TRIPOS>ATOM
      1 N1          0.0000    0.0000    0.0000 nv        1 C78     -0.560200
      2 C2          1.3970    0.0000    0.0000 ca        1 C78      0.041600
      3 C3          2.0930    0.0000    1.2020 ca        1 C78     -0.070000
      4 C4          3.4730    0.0010    1.1990 ca        1 C78     -0.088000
      5 C5          4.1640    0.0020    0.0010 ca        1 C78     -0.071000
      6 C7          3.4740    0.0010   -1.1980 ca        1 C78     -0.163300
      7 C6          2.0930    0.0070   -1.2020 ca        1 C78     -0.086000
      8 C8          4.2300    0.0010   -2.5020 c3        1 C78      0.325700
      9 O9          4.4730   -1.3670   -2.9200 os        1 C78     -0.397900
     10 C10         5.1370   -1.6130   -4.0660 c         1 C78      0.488100
     11 O11         5.5330   -0.6910   -4.7490 o         1 C78     -0.489000
     12 N12         5.3630   -2.8840   -4.4540 ny        1 C78      0.229200
     13 C13         6.1800   -3.1530   -5.6380 c3        1 C78     -0.015500
     14 C14         5.5800   -2.4320   -6.8460 c3        1 C78     -0.007100
     15 C15         4.1770   -2.9280   -7.0820 ca        1 C78     -0.199300
     16 C16         3.1110   -2.2980   -6.4680 ca        1 C78     -0.089000
     17 C17         1.8240   -2.7520   -6.6820 ca        1 C78     -0.105500
     18 C18         3.9590   -4.0090   -7.9170 ca        1 C78     -0.089000
     19 C19         2.6730   -4.4700   -8.1290 ca        1 C78     -0.105500
     20 C20         1.6010   -3.8400   -7.5130 ca        1 C78      0.178100
     21 C21         7.5830   -2.6570   -5.4040 c         1 C78     -0.086900
     22 O22         7.7880   -1.7810   -4.5910 o         1 C78     -0.684100
     23 O23         0.3360   -4.2880   -7.7250 os        1 C78     -0.341500
     24 P24        -0.2310   -3.4910   -9.0050 p5        1 C78      0.883900
     25 O25        -1.7350   -3.9740   -9.3140 o         1 C78     -0.215167
     26 O26         0.6270   -3.7670  -10.1780 o         1 C78     -0.215167
     27 O27        -0.2280   -1.9110   -8.6960 o         1 C78     -0.215167
     28 N28         8.6110   -3.1870   -6.0960 ny        1 C78      0.264200
     29 C29         9.9860   -2.7900   -5.7870 c3        1 C78     -0.103800
     30 C30        10.9550   -3.5650   -6.6800 c3        1 C78     -0.034400
     31 C31        10.7890   -5.0660   -6.4320 c3        1 C78     -0.029900
     32 C32        11.0900   -5.3770   -4.9660 c3        1 C78     -0.032400
     33 C33        10.1210   -4.6010   -4.0700 c3        1 C78     -0.029900
     34 C34        10.2870   -3.1000   -4.3190 c3        1 C78     -0.034400
     35 C35        10.1500   -1.3120   -6.0310 c         1 C78      0.340100
     36 O36        10.8630   -0.6530   -5.3040 o         1 C78     -0.442100
     37 N37         9.5040   -0.7240   -7.0560 ny        1 C78      0.006200
     38 C38         9.7340    0.6930   -7.3490 c3        1 C78      0.006500
     39 C39         8.6780    1.5400   -6.6360 c3        1 C78     -0.036400
     40 C40         7.2850    1.1370   -7.1230 c3        1 C78     -0.044400
     41 C41         7.1890    1.3680   -8.6330 c3        1 C78     -0.024400
     42 C42         8.2440    0.5200   -9.3470 c3        1 C78     -0.038400
     43 C43         9.6370    0.9240   -8.8590 c3        1 C78     -0.094700
     44 C44        10.6770    0.0900   -9.5620 c         1 C78      0.088100
     45 N45        10.7780    0.1320  -10.9050 nz        1 C78      0.287600
     46 O46        11.4220   -0.6190   -8.9190 o         1 C78     -0.550100
     47 HN11       -0.5000   -0.8670   -0.0100 hn        1 C78      0.283800
     48 HN12       -0.5000    0.8670    0.0090 hn        1 C78      0.283800
     49 HC31        1.5530   -0.0520    2.1400 ha        1 C78      0.123000
     50 HC41        4.0160    0.0010    2.1360 ha        1 C78      0.117000
     51 HC51        5.2470    0.0000    0.0010 ha        1 C78      0.105000
     52 HC61        1.5530    0.0060   -2.1410 ha        1 C78      0.106000
     53 HC81        3.6450    0.5120   -3.2580 h1        1 C78      0.022200
     54 HC82        5.1760    0.5120   -2.3710 h1        1 C78      0.022200
     55 H121        4.4700   -3.3090   -4.6080 hn        1 C78      0.259300
     56 H131        6.2010   -4.2190   -5.8280 hx        1 C78      0.064700
     57 H141        6.1850   -2.6310   -7.7230 hc        1 C78      0.054700
     58 H142        5.5590   -1.3660   -6.6570 hc        1 C78      0.054700
     59 H161        3.2790   -1.4120   -5.8680 ha        1 C78      0.107500
     60 H171        0.9930   -2.2880   -6.1630 ha        1 C78      0.139500
     61 H181        4.7930   -4.4770   -8.4260 ha        1 C78      0.107500
     62 H191        2.5090   -5.3610   -8.7230 ha        1 C78      0.139500
     63 H281        8.4550   -2.9690   -7.0600 hn        1 C78      0.147800
     64 H301       11.9720   -3.2730   -6.4470 hc        1 C78      0.058700
     65 H302       10.7400   -3.3470   -7.7190 hc        1 C78      0.058700
     66 H311        9.7710   -5.3580   -6.6600 hc        1 C78      0.024200
     67 H312       11.4780   -5.6140   -7.0640 hc        1 C78      0.024200
     68 H321       12.1070   -5.0810   -4.7370 hc        1 C78      0.043200
     69 H322       10.9690   -6.4390   -4.7910 hc        1 C78      0.043200
     70 H331        9.1040   -4.8940   -4.3020 hc        1 C78      0.024200
     71 H332       10.3380   -4.8190   -3.0320 hc        1 C78      0.024200
     72 H341        9.5990   -2.5530   -3.6870 hc        1 C78      0.058700
     73 H342       11.3050   -2.8080   -4.0920 hc        1 C78      0.058700
     74 H371        9.7430   -1.2350   -7.8820 hn        1 C78      0.263300
     75 H381       10.7190    0.9820   -7.0050 hx        1 C78      0.112700
     76 H391        8.8480    2.5870   -6.8560 hc        1 C78      0.061700
     77 H392        8.7470    1.3750   -5.5670 hc        1 C78      0.061700
     78 H401        7.1180    0.0880   -6.9080 hc        1 C78      0.037700
     79 H402        6.5390    1.7380   -6.6190 hc        1 C78      0.037700
     80 H411        6.2030    1.0810   -8.9780 hc        1 C78      0.043700
     81 H412        7.3620    2.4150   -8.8480 hc        1 C78      0.043700
     82 H421        8.1750    0.6860  -10.4160 hc        1 C78      0.012200
     83 H422        8.0740   -0.5270   -9.1270 hc        1 C78      0.012200
     84 H431        9.8030    1.9730   -9.0730 hc        1 C78      0.086700
     85 H451       11.7110   -0.1060  -11.1770 hn        1 C78      0.215467
     86 H452       10.1360   -0.5200  -11.3090 hn        1 C78      0.215467
     87 H122        5.7930   -3.3560   -3.6840 hn        1 C78      0.259300
     88 H282        8.5590   -4.1790   -5.9790 hn        1 C78      0.147800
     89 H372        8.5240   -0.8290   -6.8810 hn        1 C78      0.263300
     90 H453       10.5620    1.0550  -11.2270 hn        1 C78      0.215467
@<TRIPOS>BOND
     1    1    2 1   
     2    1   47 1   
     3    1   48 1   
     4    2    3 ar  
     5    2    7 ar  
     6    3    4 ar  
     7    3   49 1   
     8    4    5 ar  
     9    4   50 1   
    10    5    6 ar  
    11    5   51 1   
    12    6    7 ar  
    13    6    8 1   
    14    7   52 1   
    15    8    9 1   
    16    8   53 1   
    17    8   54 1   
    18    9   10 1   
    19   10   11 2   
    20   10   12 1   
    21   12   13 1   
    22   12   55 1   
    23   12   87 1   
    24   13   14 1   
    25   13   21 1   
    26   13   56 1   
    27   14   15 1   
    28   14   57 1   
    29   14   58 1   
    30   15   16 ar  
    31   15   18 ar  
    32   16   17 ar  
    33   16   59 1   
    34   17   20 ar  
    35   17   60 1   
    36   18   19 ar  
    37   18   61 1   
    38   19   20 ar  
    39   19   62 1   
    40   20   23 1   
    41   21   22 2   
    42   21   28 1   
    43   23   24 1   
    44   24   25 1   
    45   24   26 1   
    46   24   27 1   
    47   28   29 1   
    48   28   63 1   
    49   28   88 1   
    50   29   30 1   
    51   29   34 1   
    52   29   35 1   
    53   30   31 1   
    54   30   64 1   
    55   30   65 1   
    56   31   32 1   
    57   31   66 1   
    58   31   67 1   
    59   32   33 1   
    60   32   68 1   
    61   32   69 1   
    62   33   34 1   
    63   33   70 1   
    64   33   71 1   
    65   34   72 1   
    66   34   73 1   
    67   35   36 2   
    68   35   37 1   
    69   37   38 1   
    70   37   74 1   
    71   37   89 1   
    72   38   39 1   
    73   38   43 1   
    74   38   75 1   
    75   39   40 1   
    76   39   76 1   
    77   39   77 1   
    78   40   41 1   
    79   40   78 1   
    80   40   79 1   
    81   41   42 1   
    82   41   80 1   
    83   41   81 1   
    84   42   43 1   
    85   42   82 1   
    86   42   83 1   
    87   43   44 1   
    88   43   84 1   
    89   44   45 1   
    90   44   46 2   
    91   45   85 1   
    92   45   86 1   
    93   45   90 1   
@<TRIPOS>SUBSTRUCTURE
     1 C78         1 TEMP              0 ****  ****    0 ROOT
