@<TRIPOS>MOLECULE
C78
   86    85     1     0     0
SMALL
bcc


@<TRIPOS>ATOM
      1 N1         -6.8630    5.9970    1.4560 n3        1 C78     -0.319000
      2 C2         -6.0090    5.5600    2.4960 c2        1 C78      0.036000
      3 C3         -6.3710    5.7540    3.8160 c2        1 C78     -0.189000
      4 C4         -5.5360    5.3170    4.8370 c1        1 C78     -0.104000
      5 C5         -4.3330    4.6840    4.5300 c1        1 C78     -0.138000
      6 C7         -3.9710    4.4910    3.2100 c1        1 C78     -0.040000
      7 C6         -4.8110    4.9300    2.1900 c1        1 C78     -0.180000
      8 C8         -2.5320    4.0050    2.8650 c3        1 C78      0.034000
      9 O9         -2.4820    2.5550    2.9340 os        1 C78     -0.297000
     10 C10        -1.2210    1.9900    2.4980 c2        1 C78      0.393000
     11 O11        -0.3100    2.7210    2.1800 o         1 C78     -0.410000
     12 N12        -1.0200    0.5760    2.5320 n         1 C78     -0.338000
     13 C13         0.2050    0.0100    2.0180 c3        1 C78      0.007000
     14 C14         1.1040   -0.3940    3.1790 c3        1 C78     -0.070000
     15 C15         2.5380    0.1170    2.9190 c2        1 C78     -0.275000
     16 C16         2.7710    1.4750    2.7280 c2        1 C78     -0.082000
     17 C17         4.0710    1.9420    2.5650 c1        1 C78     -0.268000
     18 C18         3.6020   -0.7710    2.9480 c1        1 C78     -0.059000
     19 C19         4.8960   -0.3050    2.7870 c1        1 C78     -0.294000
     20 C20         5.1290    1.0570    2.5950 c1        1 C78      0.302000
     21 C21        -0.1110   -1.1930    1.1870 c2        1 C78      0.297000
     22 O22         0.5060   -2.2150    1.3510 o         1 C78     -0.372000
     23 O23         6.4270    1.4130    2.9720 os        1 C78     -0.616000
     24 P24         7.3780    2.0770    1.8860 p5        1 C78      1.569500
     25 O25         6.5920    3.0520    1.0650 o         1 C78     -0.889167
     26 O26         8.4910    2.7880    2.5700 o         1 C78     -0.889167
     27 O27         7.9430    1.0070    0.9900 o         1 C78     -0.889167
     28 N28        -1.0790   -1.0840    0.0650 n         1 C78     -0.369000
     29 C29        -1.2930   -2.2560   -0.8700 c3        1 C78      0.082000
     30 C30        -2.7500   -2.7440   -0.8380 c3        1 C78     -0.156000
     31 C31        -3.1080   -3.4690    0.4480 c3        1 C78     -0.153000
     32 C32        -2.1740   -4.5690    0.7690 c3        1 C78     -0.155000
     33 C33        -0.7480   -4.1490    0.7520 c3        1 C78     -0.153000
     34 C34        -0.3580   -3.4380   -0.5260 c3        1 C78     -0.156000
     35 C35        -0.9330   -1.6280   -2.2400 c2        1 C78      0.266000
     36 O36        -1.6650   -0.7810   -2.7390 o         1 C78     -0.419000
     37 N37         0.2660   -2.0210   -2.9120 n         1 C78     -0.331000
     38 C38         0.6150   -1.4210   -4.1750 c3        1 C78      0.043000
     39 C39         0.1960   -2.3420   -5.2850 c3        1 C78     -0.180000
     40 C40         0.6500   -1.8820   -6.6240 c3        1 C78     -0.148000
     41 C41         2.1010   -1.5840   -6.6790 c3        1 C78     -0.155000
     42 C42         2.5500   -0.6500   -5.5900 c3        1 C78     -0.176000
     43 C43         2.1310   -1.1220   -4.1760 c3        1 C78     -0.119000
     44 C44         2.9710   -2.3320   -3.6850 c2        1 C78      0.296000
     45 N45         4.2110   -2.1220   -3.1060 n         1 C78     -0.386000
     46 O46         2.5700   -3.4920   -3.8920 o         1 C78     -0.508000
     47 HN11       -7.6790    6.3380    1.6540 hn        1 C78      0.171500
     48 HN12       -6.5780    5.9700    0.5940 hn        1 C78      0.171500
     49 HC31       -7.2640    6.1350    4.0350 ha        1 C78      0.123000
     50 HC41       -5.7980    5.4720    5.8120 ha        1 C78      0.125000
     51 HC51       -3.7060    4.4760    5.2340 ha        1 C78      0.152000
     52 HC61       -4.5830    4.7500    1.2670 ha        1 C78      0.135000
     53 HC81       -1.8800    4.3950    3.5200 h1        1 C78      0.105500
     54 HC82       -2.3010    4.2920    1.9720 h1        1 C78      0.105500
     55 H121       -1.6680    0.0130    2.9410 hn        1 C78      0.239000
     56 H131        0.6690    0.6790    1.4630 h1        1 C78      0.146000
     57 H141        1.1160   -1.3540    3.2560 hc        1 C78      0.077500
     58 H142        0.7530    0.0070    4.0290 hc        1 C78      0.077500
     59 H161        2.0500    2.0790    2.7080 ha        1 C78      0.086000
     60 H171        4.2330    2.9070    2.3510 ha        1 C78      0.194000
     61 H181        3.4460   -1.7040    3.1060 ha        1 C78      0.098000
     62 H191        5.6420   -0.9280    2.8060 ha        1 C78      0.116000
     63 H281       -1.5470   -0.3150   -0.0570 hn        1 C78      0.245000
     64 H301       -3.3550   -1.9560   -0.9410 hc        1 C78      0.102500
     65 H302       -2.8960   -3.3600   -1.6030 hc        1 C78      0.102500
     66 H311       -3.1010   -2.8050    1.2060 hc        1 C78      0.080250
     67 H312       -3.9960   -3.8340    0.3620 hc        1 C78      0.080250
     68 H321       -2.3850   -4.9060    1.6400 hc        1 C78      0.063500
     69 H322       -2.3030   -5.3050    0.1000 hc        1 C78      0.063500
     70 H331       -0.5830   -3.5400    1.5250 hc        1 C78      0.080250
     71 H332       -0.2010   -4.9240    0.8500 hc        1 C78      0.080250
     72 H341       -0.3820   -4.0880   -1.2700 hc        1 C78      0.102500
     73 H342        0.5630   -3.0970   -0.4330 hc        1 C78      0.102500
     74 H371        0.8350   -2.6060   -2.5160 hn        1 C78      0.261000
     75 H381        0.1130   -0.5520   -4.2700 h1        1 C78      0.099000
     76 H391       -0.8000   -2.4050   -5.2890 hc        1 C78      0.089500
     77 H392        0.5620   -3.2180   -5.1170 hc        1 C78      0.089500
     78 H401        0.1530   -1.0690   -6.8620 hc        1 C78      0.057000
     79 H402        0.4470   -2.5780   -7.2800 hc        1 C78      0.057000
     80 H411        2.3030   -1.1810   -7.5390 hc        1 C78      0.074000
     81 H412        2.5930   -2.4140   -6.6000 hc        1 C78      0.074000
     82 H421        2.1780    0.2070   -5.7490 hc        1 C78      0.134000
     83 H422        3.5230   -0.5790   -5.6200 hc        1 C78      0.134000
     84 H431        2.3580   -0.4380   -3.4910 hc        1 C78      0.142000
     85 H451        4.7890   -2.8340   -2.9800 hn        1 C78      0.259500
     86 H452        4.4420   -1.2930   -2.8150 hn        1 C78      0.259500
@<TRIPOS>BOND
     1    1    2 1   
     2    1   47 1   
     3    1   48 1   
     4    2    3 1   
     5    2    7 1   
     6    3    4 1   
     7    3   49 1   
     8    4   50 1   
     9    5    6 1   
    10    5   51 1   
    11    6    8 1   
    12    7   52 1   
    13    8    9 1   
    14    8   53 1   
    15    8   54 1   
    16    9   10 1   
    17   10   11 1   
    18   10   12 1   
    19   12   13 1   
    20   12   55 1   
    21   13   14 1   
    22   13   21 1   
    23   13   56 1   
    24   14   15 1   
    25   14   57 1   
    26   14   58 1   
    27   15   16 1   
    28   15   18 1   
    29   16   17 1   
    30   16   59 1   
    31   17   60 1   
    32   18   61 1   
    33   19   20 1   
    34   19   62 1   
    35   20   23 1   
    36   21   22 1   
    37   21   28 1   
    38   23   24 1   
    39   24   25 1   
    40   24   26 1   
    41   24   27 1   
    42   28   29 1   
    43   28   63 1   
    44   29   30 1   
    45   29   34 1   
    46   29   35 1   
    47   30   31 1   
    48   30   64 1   
    49   30   65 1   
    50   31   32 1   
    51   31   66 1   
    52   31   67 1   
    53   32   33 1   
    54   32   68 1   
    55   32   69 1   
    56   33   34 1   
    57   33   70 1   
    58   33   71 1   
    59   34   72 1   
    60   34   73 1   
    61   35   36 1   
    62   35   37 1   
    63   37   38 1   
    64   37   74 1   
    65   38   39 1   
    66   38   43 1   
    67   38   75 1   
    68   39   40 1   
    69   39   76 1   
    70   39   77 1   
    71   40   41 1   
    72   40   78 1   
    73   40   79 1   
    74   41   42 1   
    75   41   80 1   
    76   41   81 1   
    77   42   43 1   
    78   42   82 1   
    79   42   83 1   
    80   43   44 1   
    81   43   84 1   
    82   44   45 1   
    83   44   46 1   
    84   45   85 1   
    85   45   86 1   
@<TRIPOS>SUBSTRUCTURE
     1 C78         1 TEMP              0 ****  ****    0 ROOT
