@<TRIPOS>MOLECULE
C7C
   20    22     1     0     0
SMALL
bcc


@<TRIPOS>ATOM
      1 CL        -41.2110   26.6980   24.9560 cl        1 C7C     -0.149400
      2 C1        -42.6280   26.0760   25.6830 ca        1 C7C     -0.014600
      3 C2        -43.8310   26.0770   24.9690 ca        1 C7C     -0.123500
      4 C3        -44.9770   25.5690   25.5680 ca        1 C7C     -0.121000
      5 C6        -42.5780   25.5700   26.9820 ca        1 C7C     -0.123500
      6 C5        -43.7400   25.0640   27.5640 ca        1 C7C     -0.121000
      7 C4        -44.9570   25.0520   26.8760 ca        1 C7C      0.012500
      8 S8        -46.4790   24.4790   27.4190 s4        1 C7C     -0.228200
      9 C9        -46.3270   23.9050   28.9460 cc        1 C7C      0.055100
     10 C13       -47.5750   23.4110   29.4500 cd        1 C7C      0.137800
     11 C14       -48.7250   23.5150   28.5120 c         1 C7C      0.668100
     12 O15       -48.3730   24.0530   27.3690 os        1 C7C     -0.400900
     13 O16       -49.8920   23.1500   28.7380 o         1 C7C     -0.710500
     14 S10       -45.2140   23.6740   30.1840 ss        1 C7C      0.028200
     15 N11       -46.3650   22.9830   31.2380 nc        1 C7C     -0.198100
     16 N12       -47.5050   22.9110   30.7460 nd        1 C7C     -0.226000
     17 H2        -43.8680   26.4760   23.9450 ha        1 C7C      0.127000
     18 H6        -41.6330   25.5680   27.5430 ha        1 C7C      0.127000
     19 H3        -45.9260   25.5700   25.0080 ha        1 C7C      0.130000
     20 H5        -43.6830   24.6680   28.5910 ha        1 C7C      0.130000
@<TRIPOS>BOND
     1    1    2 1   
     2    2    3 ar  
     3    2    5 ar  
     4    3    4 ar  
     5    3   17 1   
     6    4    7 ar  
     7    4   19 1   
     8    5    6 ar  
     9    5   18 1   
    10    6    7 ar  
    11    6   20 1   
    12    7    8 1   
    13    8    9 1   
    14    8   12 1   
    15    9   10 2   
    16    9   14 1   
    17   10   11 1   
    18   10   16 1   
    19   11   12 1   
    20   11   13 2   
    21   14   15 1   
    22   15   16 2   
@<TRIPOS>SUBSTRUCTURE
     1 C7C         1 TEMP              0 ****  ****    0 ROOT
