@<TRIPOS>MOLECULE
C7C
   20    18     1     0     0
SMALL
bcc


@<TRIPOS>ATOM
      1 CL         -5.2010   -0.7020   -0.2110 cl        1 C7C     -0.057000
      2 C1         -3.4580   -0.7360   -0.1720 c2        1 C7C     -0.074000
      3 C2         -2.7920   -0.7420    1.0430 c2        1 C7C     -0.115000
      4 C3         -1.4060   -0.7590    1.0740 c1        1 C7C     -0.097000
      5 C6         -2.7380   -0.7480   -1.3570 c1        1 C7C     -0.135000
      6 C5         -1.3530   -0.7650   -1.3260 c1        1 C7C     -0.122000
      7 C4         -0.6870   -0.7710   -0.1110 c1        1 C7C     -0.257000
      8 S8          1.0830   -0.8720   -0.0710 ss        1 C7C      0.434000
      9 C9          1.7660    0.7580    0.0700 c2        1 C7C     -0.577000
     10 C13         3.1300    1.0740    0.2170 c1        1 C7C     -0.069000
     11 C14         4.2580    0.0800    0.3840 c1        1 C7C      0.403000
     12 O15         4.7660   -0.4710   -0.6280 o         1 C7C     -0.519500
     13 O16         4.6930   -0.1910    1.5340 o         1 C7C     -0.519500
     14 S10         0.9880    2.0790   -0.0670 ss        1 C7C      0.283000
     15 N11         1.9640    3.1790    0.0070 n2        1 C7C     -0.174000
     16 N12         3.2760    2.6010    0.1800 n2        1 C7C     -0.030000
     17 H2         -3.2990   -0.7330    1.8770 ha        1 C7C      0.147000
     18 H6         -3.2070   -0.7440   -2.2130 ha        1 C7C      0.131000
     19 H3         -0.9370   -0.7630    1.9300 ha        1 C7C      0.214000
     20 H5         -0.8460   -0.7740   -2.1600 ha        1 C7C      0.132000
@<TRIPOS>BOND
     1    1    2 1   
     2    2    3 1   
     3    2    5 1   
     4    3    4 1   
     5    3   17 1   
     6    4   19 1   
     7    5   18 1   
     8    6    7 1   
     9    6   20 1   
    10    7    8 1   
    11    8    9 1   
    12    9   10 1   
    13    9   14 1   
    14   10   16 1   
    15   11   12 1   
    16   11   13 1   
    17   14   15 1   
    18   15   16 1   
@<TRIPOS>SUBSTRUCTURE
     1 C7C         1 TEMP              0 ****  ****    0 ROOT
