@<TRIPOS>MOLECULE
C7C
   20    22     1     0     0
SMALL
bcc


@<TRIPOS>ATOM
      1 CL          0.1710   -0.4130    0.1560 cl        1 C7C     -0.149400
      2 C1          1.8620   -0.1690    0.0900 ca        1 C7C     -0.014600
      3 C2          2.6790   -0.7030    1.0930 ca        1 C7C     -0.123500
      4 C3          4.0520   -0.4990    1.0300 ca        1 C7C     -0.121000
      5 C6          2.4190    0.5590   -0.9610 ca        1 C7C     -0.123500
      6 C5          3.8000    0.7520   -1.0050 ca        1 C7C     -0.121000
      7 C4          4.6410    0.2310   -0.0180 ca        1 C7C      0.012500
      8 S8          6.3470    0.3600    0.1010 s4        1 C7C     -0.228200
      9 C9          6.9130    1.2280   -1.1690 cc        1 C7C      0.055100
     10 C13         8.3390    1.3660   -1.1190 cd        1 C7C      0.137800
     11 C14         9.0010    0.7140    0.0430 c         1 C7C      0.668100
     12 O15         8.1330    0.1180    0.8250 os        1 C7C     -0.400900
     13 O16        10.2200    0.7080    0.2850 o         1 C7C     -0.710500
     14 S10         6.4260    2.0430   -2.5560 ss        1 C7C      0.028200
     15 N11         8.0150    2.4990   -2.9780 nc        1 C7C     -0.198100
     16 N12         8.8750    2.0960   -2.1750 nd        1 C7C     -0.226000
     17 H2          2.2390   -1.2770    1.9200 ha        1 C7C      0.127000
     18 H6          1.7780    0.9790   -1.7500 ha        1 C7C      0.127000
     19 H3          4.6970   -0.9190    1.8190 ha        1 C7C      0.130000
     20 H5          4.2230    1.3300   -1.8430 ha        1 C7C      0.130000
@<TRIPOS>BOND
     1    1    2 1   
     2    2    3 ar  
     3    2    5 ar  
     4    3    4 ar  
     5    3   17 1   
     6    4    7 ar  
     7    4   19 1   
     8    5    6 ar  
     9    5   18 1   
    10    6    7 ar  
    11    6   20 1   
    12    7    8 1   
    13    8    9 1   
    14    8   12 1   
    15    9   10 2   
    16    9   14 1   
    17   10   11 1   
    18   10   16 1   
    19   11   12 1   
    20   11   13 2   
    21   14   15 1   
    22   15   16 2   
@<TRIPOS>SUBSTRUCTURE
     1 C7C         1 TEMP              0 ****  ****    0 ROOT
