@<TRIPOS>MOLECULE
C7J
   77    79     1     0     0
SMALL
bcc


@<TRIPOS>ATOM
      1 CBN        -1.5130   -0.8470    0.3910 c3        1 C7J     -0.130700
      2 CBI        -0.6820    0.0930   -0.4840 c3        1 C7J      0.016700
      3 Cl         -1.6680    1.3810   -1.1430 cl        1 C7J     -0.122400
      4 CAT         0.4260    0.6250    0.4370 c3        1 C7J      0.121400
      5 OAZ         0.0920    0.3010    1.7900 os        1 C7J     -0.385600
      6 CBM        -1.0180   -0.5710    1.8390 c3        1 C7J      0.325900
      7 OBA        -0.4880   -1.7800    2.3820 os        1 C7J     -0.398600
      8 CAU        -0.8450   -2.8870    1.5620 c3        1 C7J      0.103400
      9 CBK        -1.2940   -2.3530    0.1930 c3        1 C7J      0.137100
     10 OBB        -0.2150   -2.5240   -0.7890 os        1 C7J     -0.401900
     11 CBC         0.0260   -3.7840   -1.1960 c         1 C7J      0.624100
     12 OAD        -0.6130   -4.7820   -0.8890 o         1 C7J     -0.437000
     13 NAY         1.2070   -3.8120   -2.1070 ny        1 C7J     -0.639800
     14 CBJ         1.3630   -5.1290   -2.8340 c3        1 C7J      0.103500
     15 CAV         2.1310   -4.9190   -4.1470 c3        1 C7J     -0.053100
     16 CBE         1.5890   -3.7880   -4.9480 ca        1 C7J     -0.176300
     17 CAN         2.2360   -2.5450   -4.9360 ca        1 C7J     -0.133000
     18 CAL         1.7560   -1.4990   -5.7230 ca        1 C7J     -0.110500
     19 CAK         0.6290   -1.6870   -6.5260 ca        1 C7J     -0.089000
     20 CAM        -0.0150   -2.9250   -6.5430 ca        1 C7J     -0.110500
     21 CAO         0.4630   -3.9740   -5.7590 ca        1 C7J     -0.133000
     22 CBH         2.0530   -6.1600   -1.8940 c3        1 C7J      0.117100
     23 OAG         3.2440   -5.6160   -1.3730 oh        1 C7J     -0.610800
     24 CAX         2.2360   -7.4950   -2.6300 c3        1 C7J      0.116800
     25 NBL         2.8330   -8.5830   -1.8570 n7        1 C7J     -0.897200
     26 CAW         2.4270   -8.6840   -0.4620 c3        1 C7J      0.121800
     27 CBG         0.9560   -9.0340   -0.1950 c3        1 C7J     -0.089700
     28 CAB         0.5940  -10.3850   -0.7730 c3        1 C7J     -0.100600
     29 CAA         0.7120   -9.0120    1.3000 c3        1 C7J     -0.100600
     30 SBO         5.3310   -8.6980   -2.3040 s4        1 C7J      1.702300
     31 OAE         5.0040   -9.4930   -3.3580 o         1 C7J     -0.462900
     32 OAF         5.3200   -7.3380   -2.4340 o         1 C7J     -0.462900
     33 CBF         5.9440   -9.3220   -1.0690 ca        1 C7J     -0.730500
     34 CAR         6.1210  -10.7440   -0.9500 ca        1 C7J      0.069000
     35 CAP         6.7380  -11.3260    0.1130 ca        1 C7J     -0.231000
     36 CBD         7.2560  -10.5240    1.1970 ca        1 C7J      0.335600
     37 NAC         7.8880  -11.0800    2.2380 nv        1 C7J     -0.762200
     38 CAQ         7.0610   -9.0950    1.1070 ca        1 C7J     -0.231000
     39 CAS         6.4390   -8.5430    0.0310 ca        1 C7J      0.069000
     40 HBN        -2.6110   -0.6360    0.2960 hc        1 C7J      0.127700
     41 HBI        -0.2470   -0.4170   -1.3760 h1        1 C7J      0.076700
     42 HBM        -1.7700   -0.1510    2.5560 h2        1 C7J      0.130700
     43 HBK        -2.1970   -2.8810   -0.2100 h1        1 C7J      0.108700
     44 HAT1        0.5370    1.7410    0.4020 h1        1 C7J      0.075700
     45 HAT2        1.4050    0.1330    0.2000 h1        1 C7J      0.075700
     46 HAU1       -1.6850   -3.4400    2.0600 h1        1 C7J      0.074700
     47 HAU2        0.0580   -3.5450    1.4880 h1        1 C7J      0.074700
     48 HAY         2.0560   -3.6460   -1.5410 hn        1 C7J      0.490300
     49 HBJ         0.3200   -5.5020   -3.0690 hx        1 C7J      0.127700
     50 HAV1        3.2210   -4.7590   -3.9280 hc        1 C7J      0.087200
     51 HAV2        2.0350   -5.8710   -4.7400 hc        1 C7J      0.087200
     52 HBH         1.3870   -6.3070   -0.9880 h1        1 C7J      0.112700
     53 HAN         3.1530   -2.4020   -4.3430 ha        1 C7J      0.136000
     54 HAO        -0.0360   -4.9540   -5.7960 ha        1 C7J      0.136000
     55 HAL         2.2770   -0.5270   -5.7230 ha        1 C7J      0.162500
     56 HAK         0.2570   -0.8620   -7.1560 ha        1 C7J      0.167000
     57 HAM        -0.8950   -3.0790   -7.1880 ha        1 C7J      0.162500
     58 HAG         3.9610   -5.7430   -2.0150 ho        1 C7J      0.449000
     59 HAX1        1.2220   -7.7920   -3.0290 h1        1 C7J      0.074700
     60 HAX2        2.9290   -7.3330   -3.5090 h1        1 C7J      0.074700
     61 HAW1        2.6760   -7.7130    0.0540 h1        1 C7J      0.069200
     62 HAW2        3.0660   -9.4920    0.0010 h1        1 C7J      0.069200
     63 HBG         0.3030   -8.2510   -0.6760 hc        1 C7J      0.046700
     64 HAB1       -0.4370  -10.6730   -0.4510 hc        1 C7J      0.050033
     65 HAB2        1.3010  -11.1720   -0.4170 hc        1 C7J      0.050033
     66 HAB3        0.6100  -10.3650   -1.8900 hc        1 C7J      0.050033
     67 HAA1        1.3250   -9.7930    1.8110 hc        1 C7J      0.050033
     68 HAA2       -0.3660   -9.2180    1.5130 hc        1 C7J      0.050033
     69 HAA3        0.9730   -8.0150    1.7280 hc        1 C7J      0.050033
     70 HAR         5.7450  -11.3830   -1.7750 ha        1 C7J      0.169000
     71 HAS         6.3120   -7.4440   -0.0190 ha        1 C7J      0.169000
     72 HAP         6.8570  -12.4240    0.1490 ha        1 C7J      0.179500
     73 HAC1        8.0260  -12.0670    2.2880 hn        1 C7J      0.474300
     74 HAC2        8.2510  -10.5190    2.9780 hn        1 C7J      0.474300
     75 HAQ         7.4330   -8.4480    1.9220 ha        1 C7J      0.179500
     76 HAY2        1.1170   -3.0460   -2.8000 hn        1 C7J      0.490300
     77 HBL1        2.5770   -9.4440   -2.3270 hn        1 C7J      0.398800
@<TRIPOS>BOND
     1    1    2 1   
     2    1    6 1   
     3    1    9 1   
     4    1   40 1   
     5    2    3 1   
     6    2    4 1   
     7    2   41 1   
     8    4    5 1   
     9    4   44 1   
    10    4   45 1   
    11    5    6 1   
    12    6    7 1   
    13    6   42 1   
    14    7    8 1   
    15    8    9 1   
    16    8   46 1   
    17    8   47 1   
    18    9   10 1   
    19    9   43 1   
    20   10   11 1   
    21   11   12 2   
    22   11   13 1   
    23   13   14 1   
    24   13   48 1   
    25   13   76 1   
    26   14   15 1   
    27   14   22 1   
    28   14   49 1   
    29   15   16 1   
    30   15   50 1   
    31   15   51 1   
    32   16   17 ar  
    33   16   21 ar  
    34   17   18 ar  
    35   17   53 1   
    36   18   19 ar  
    37   18   55 1   
    38   19   20 ar  
    39   19   56 1   
    40   20   21 ar  
    41   20   57 1   
    42   21   54 1   
    43   22   23 1   
    44   22   24 1   
    45   22   52 1   
    46   23   58 1   
    47   24   25 1   
    48   24   59 1   
    49   24   60 1   
    50   25   26 1   
    51   25   77 1   
    52   26   27 1   
    53   26   61 1   
    54   26   62 1   
    55   27   28 1   
    56   27   29 1   
    57   27   63 1   
    58   28   64 1   
    59   28   65 1   
    60   28   66 1   
    61   29   67 1   
    62   29   68 1   
    63   29   69 1   
    64   30   31 1   
    65   30   32 1   
    66   30   33 1   
    67   33   34 ar  
    68   33   39 ar  
    69   34   35 ar  
    70   34   70 1   
    71   35   36 ar  
    72   35   72 1   
    73   36   37 1   
    74   36   38 ar  
    75   37   73 1   
    76   37   74 1   
    77   38   39 ar  
    78   38   75 1   
    79   39   71 1   
@<TRIPOS>SUBSTRUCTURE
     1 C7J         1 TEMP              0 ****  ****    0 ROOT
