@<TRIPOS>MOLECULE
C7J
   77    79     1     0     0
SMALL
bcc


@<TRIPOS>ATOM
      1 CBN        -1.5300   -2.1990    0.3160 c3        1 C7J     -0.162700
      2 CBI        -1.7110   -2.4220   -1.1870 c3        1 C7J      0.016700
      3 CL         -1.8070   -4.1260   -1.6020 cl        1 C7J     -0.178400
      4 CAT        -2.9760   -1.6400   -1.5650 c3        1 C7J      0.124400
      5 OAZ        -3.2210   -0.6870   -0.5260 os        1 C7J     -0.388600
      6 CBM        -2.4890   -1.0190    0.6400 c3        1 C7J      0.332900
      7 OBA        -1.7080    0.1380    0.9180 os        1 C7J     -0.382600
      8 CAU        -0.3180   -0.1230    0.7380 c3        1 C7J      0.124400
      9 CBK        -0.1550   -1.6570    0.7210 c3        1 C7J      0.125100
     10 OBB         0.8700   -1.9390   -0.2780 os        1 C7J     -0.389900
     11 CBC         1.5130   -3.1190   -0.1630 c         1 C7J      0.621100
     12 OAD         1.3930   -3.9220    0.7530 o         1 C7J     -0.428000
     13 NAY         2.4410   -3.3280   -1.3100 n4        1 C7J     -0.638800
     14 CBJ         2.0500   -4.5370   -2.1360 c3        1 C7J      0.102500
     15 CAV         2.5650   -4.3880   -3.5740 c3        1 C7J     -0.053100
     16 CBE         2.2380   -3.0640   -4.1690 ca        1 C7J     -0.173300
     17 CAN         3.2030   -2.0460   -4.1920 ca        1 C7J     -0.133500
     18 CAL         2.9150   -0.8230   -4.7950 ca        1 C7J     -0.110500
     19 CAK         1.6660   -0.6080   -5.3810 ca        1 C7J     -0.089000
     20 CAM         0.7060   -1.6200   -5.3640 ca        1 C7J     -0.110500
     21 CAO         0.9890   -2.8450   -4.7620 ca        1 C7J     -0.133500
     22 CBH         2.5900   -5.8250   -1.4460 c3        1 C7J      0.113100
     23 OAG         3.9810   -5.7160   -1.2520 oh        1 C7J     -0.605800
     24 CAX         2.1570   -7.0620   -2.2470 c3        1 C7J      0.116800
     25 NBL         2.5670   -8.3570   -1.7070 n3        1 C7J     -0.897200
     26 CAW         2.5280   -8.4960   -0.2570 c3        1 C7J      0.120800
     27 CBG         1.1430   -8.4450    0.4030 c3        1 C7J     -0.088700
     28 CAB         0.2590   -9.5750   -0.0770 c3        1 C7J     -0.101600
     29 CAA         1.3170   -8.5060    1.9070 c3        1 C7J     -0.101600
     30 SBO         4.6990   -9.1330   -2.8420 s4        1 C7J      1.702300
     31 OAE         3.8830   -9.6660   -3.7920 o         1 C7J     -0.462900
     32 OAF         5.0820   -7.8240   -2.9130 o         1 C7J     -0.462900
     33 CBF         5.3790  -10.0540   -1.8510 ca        1 C7J     -0.729500
     34 CAR         5.1280  -11.4700   -1.8400 ca        1 C7J      0.069000
     35 CAP         5.7820  -12.3300   -1.0150 ca        1 C7J     -0.231000
     36 CBD         6.7820  -11.8510   -0.0890 ca        1 C7J      0.335600
     37 NAC         7.4510  -12.6890    0.7130 nh        1 C7J     -0.762200
     38 CAQ         7.0260  -10.4270   -0.0660 ca        1 C7J     -0.231000
     39 CAS         6.3550   -9.5920   -0.9050 ca        1 C7J      0.069000
     40 HBN        -1.7940   -3.1090    0.9100 hc        1 C7J      0.117700
     41 HBI        -0.8380   -2.0300   -1.7680 h1        1 C7J      0.077700
     42 HBM        -3.2030   -1.1630    1.4920 h2        1 C7J      0.131700
     43 HBK         0.1810   -2.0670    1.7100 h1        1 C7J      0.111700
     44 HAT1       -2.8410   -1.0520   -2.5080 h1        1 C7J      0.085700
     45 HAT2       -3.8770   -2.3020   -1.6450 h1        1 C7J      0.085700
     46 HAU1        0.0220    0.3340   -0.2270 h1        1 C7J      0.086700
     47 HAU2        0.2080    0.3490    1.6070 h1        1 C7J      0.086700
     48 HAY         2.4410   -2.4880   -1.9180 hn        1 C7J      0.491300
     49 HBJ         0.9170   -4.5740   -2.1490 hx        1 C7J      0.123700
     50 HAV1        3.6740   -4.5630   -3.6000 hc        1 C7J      0.087200
     51 HAV2        2.0750   -5.1980   -4.1830 hc        1 C7J      0.087200
     52 HBH         2.1620   -5.8740   -0.3960 h1        1 C7J      0.119700
     53 HAN         4.2070   -2.2250   -3.7770 ha        1 C7J      0.136500
     54 HAO         0.2350   -3.6470   -4.7730 ha        1 C7J      0.136500
     55 HAL         3.6810   -0.0310   -4.8240 ha        1 C7J      0.162500
     56 HAK         1.4450    0.3570   -5.8680 ha        1 C7J      0.167000
     57 HAM        -0.2740   -1.4570   -5.8430 ha        1 C7J      0.162500
     58 HAG         4.4390   -5.9680   -2.0690 ho        1 C7J      0.447000
     59 HAX1        1.0340   -7.0070   -2.3560 h1        1 C7J      0.073200
     60 HAX2        2.6160   -7.0060   -3.2790 h1        1 C7J      0.073200
     61 HAW1        3.1840   -7.6980    0.1960 h1        1 C7J      0.070700
     62 HAW2        2.9920   -9.4970   -0.0180 h1        1 C7J      0.070700
     63 HBG         0.6510   -7.4660    0.1400 hc        1 C7J      0.043700
     64 HAB1       -0.6920   -9.5910    0.5120 hc        1 C7J      0.050200
     65 HAB2        0.7660  -10.5600    0.0570 hc        1 C7J      0.050200
     66 HAB3       -0.0080   -9.4510   -1.1540 hc        1 C7J      0.050200
     67 HAA1        1.9570   -7.6640    2.2650 hc        1 C7J      0.050200
     68 HAA2        0.3210   -8.4310    2.4090 hc        1 C7J      0.050200
     69 HAA3        1.7900   -9.4700    2.2110 hc        1 C7J      0.050200
     70 HAR         4.3750  -11.8660   -2.5510 ha        1 C7J      0.169000
     71 HAS         6.5690   -8.5050   -0.8750 ha        1 C7J      0.169000
     72 HAP         5.5570  -13.4110   -1.0550 ha        1 C7J      0.179500
     73 HAC1        7.2820  -13.6710    0.6840 hn        1 C7J      0.474300
     74 HAC2        8.1470  -12.3520    1.3430 hn        1 C7J      0.474300
     75 HAQ         7.7740  -10.0200    0.6360 ha        1 C7J      0.179500
     76 HAY2        3.3920   -3.4850   -0.9380 hn        1 C7J      0.491300
     77 HBL1        1.9440   -9.0480   -2.1100 hn        1 C7J      0.398800
@<TRIPOS>BOND
     1    1    2 1   
     2    1    6 1   
     3    1    9 1   
     4    1   40 1   
     5    2    3 1   
     6    2    4 1   
     7    2   41 1   
     8    4    5 1   
     9    4   44 1   
    10    4   45 1   
    11    5    6 1   
    12    6    7 1   
    13    6   42 1   
    14    7    8 1   
    15    8    9 1   
    16    8   46 1   
    17    8   47 1   
    18    9   10 1   
    19    9   43 1   
    20   10   11 1   
    21   11   12 2   
    22   11   13 1   
    23   13   14 1   
    24   13   48 1   
    25   13   76 1   
    26   14   15 1   
    27   14   22 1   
    28   14   49 1   
    29   15   16 1   
    30   15   50 1   
    31   15   51 1   
    32   16   17 ar  
    33   16   21 ar  
    34   17   18 ar  
    35   17   53 1   
    36   18   19 ar  
    37   18   55 1   
    38   19   20 ar  
    39   19   56 1   
    40   20   21 ar  
    41   20   57 1   
    42   21   54 1   
    43   22   23 1   
    44   22   24 1   
    45   22   52 1   
    46   23   58 1   
    47   24   25 1   
    48   24   59 1   
    49   24   60 1   
    50   25   26 1   
    51   25   77 1   
    52   26   27 1   
    53   26   61 1   
    54   26   62 1   
    55   27   28 1   
    56   27   29 1   
    57   27   63 1   
    58   28   64 1   
    59   28   65 1   
    60   28   66 1   
    61   29   67 1   
    62   29   68 1   
    63   29   69 1   
    64   30   31 1   
    65   30   32 1   
    66   30   33 1   
    67   33   34 ar  
    68   33   39 ar  
    69   34   35 ar  
    70   34   70 1   
    71   35   36 ar  
    72   35   72 1   
    73   36   37 1   
    74   36   38 ar  
    75   37   73 1   
    76   37   74 1   
    77   38   39 ar  
    78   38   75 1   
    79   39   71 1   
@<TRIPOS>SUBSTRUCTURE
     1 C7J         1 TEMP              0 ****  ****    0 ROOT
