@<TRIPOS>MOLECULE
C7L
   88    76     1     0     0
SMALL
bcc


@<TRIPOS>ATOM
      1 CAB         0.1090    1.4840   -5.7700 c2        1 C7L      0.228000
      2 CAC        16.1840    0.2550    7.9530 c2        1 C7L     -0.259000
      3 CAD        14.2560    1.4550    6.9440 c3        1 C7L     -0.204000
      4 OAE         6.6720   -0.3950    2.4510 oh        1 C7L     -0.282000
      5 OAF         8.6980   -3.2150   12.2540 o         1 C7L     -0.484400
      6 OAG         9.4210   -2.4470   14.3810 o         1 C7L     -0.484400
      7 OAH         9.2840   -1.7380    6.3980 oh        1 C7L     -0.200000
      8 CAK         5.7920    4.4420    7.5470 c2        1 C7L     -0.030000
      9 CAL         5.7270    3.5960    8.6080 c2        1 C7L     -0.244000
     10 CAM         6.6810    4.1610    6.4020 c3        1 C7L     -0.236000
     11 CAN         6.5340    2.4190    8.6450 c2        1 C7L      0.140000
     12 CAO         7.5020    2.9610    6.4660 c1        1 C7L     -0.115000
     13 CAP        12.0190   -1.5750   13.0710 c2        1 C7L      0.210000
     14 CAQ        13.1260   -0.9950   12.5140 c2        1 C7L     -0.350000
     15 CAR        11.5750   -0.8950    9.2640 c1        1 C7L     -0.030000
     16 CAS         0.5130    0.7070   -3.5380 c3        1 C7L     -0.118000
     17 CAT         2.6310    1.4370   -1.1660 c1        1 C7L      0.042000
     18 CAU         7.0690    2.4590   -1.5280 c1        1 C7L      0.169000
     19 CAV         5.3450    3.5660    3.3370 c1        1 C7L      0.226000
     20 CAW         8.1810    0.9300    7.7460 c1        1 C7L     -0.035000
     21 CAX         9.8280   -5.9830   13.2300 c2        1 C7L      0.002000
     22 CAY        10.3450    1.5860    6.6940 c3        1 C7L     -0.188000
     23 NBB         4.3990    0.1840    2.0110 n2        1 C7L     -0.340000
     24 OBC         0.8210    0.7820   -4.9700 os        1 C7L     -0.044000
     25 OBD         3.0920    1.7860   -0.1240 os        1 C7L      0.010000
     26 OBE         8.1590    2.4770   -1.9540 o         1 C7L     -0.168000
     27 OBF         4.4860    7.9580    1.0710 o         1 C7L     -0.168000
     28 OBG         6.2270    1.7280    2.0950 os        1 C7L     -0.184000
     29 CBI         5.6410    0.4700    2.1820 c2        1 C7L      0.239000
     30 CBJ         7.4130    2.1190    7.6070 c2        1 C7L     -0.275000
     31 CBK        10.9320   -2.2080   12.4470 c2        1 C7L     -1.333000
     32 CBM        13.4030   -0.7610   11.1310 c2        1 C7L      0.395000
     33 CBN        12.4100   -0.8620   10.1330 c1        1 C7L     -0.356000
     34 CBO        15.0240    0.2440    7.2960 c2        1 C7L     -0.159000
     35 CBP         9.7550   -0.7590    7.1410 c1        1 C7L     -0.011000
     36 CBQ         9.2070    0.5800    6.7470 c3        1 C7L     -0.206000
     37 CBR         3.2890    2.7800    0.8520 c2        1 C7L     -0.210000
     38 CBS         5.3900    2.8410    2.2160 c2        1 C7L     -0.250000
     39 CBU         4.5960    6.7960    1.1280 c1        1 C7L      0.169000
     40 CBV         4.6690    3.2760    0.9740 c3        1 C7L     -0.139000
     41 SBW         9.6880   -2.7370   13.0710 s4        1 C7L      2.140800
     42 HAB        -0.7740    2.0740   -5.4450 h4        1 C7L      0.212500
     43 HABA        0.3270   -0.3830   -3.3560 h1        1 C7L      0.166667
     44 HABB        0.4510    1.4590   -6.8340 h4        1 C7L      0.212500
     45 HAC         8.8900   -5.8750   12.6420 h4        1 C7L      0.150000
     46 HACA       16.6680    1.1840    8.2870 ha        1 C7L      0.121000
     47 HACB       16.7530   -0.6620    8.1550 ha        1 C7L      0.121000
     48 HAD        13.1710    1.3170    7.1840 hc        1 C7L      0.089667
     49 HADA       14.6300    2.3590    7.4840 hc        1 C7L      0.089667
     50 HADB       14.3430    1.6460    5.8440 hc        1 C7L      0.089667
     51 HOAH        9.6570   -2.5810    6.7180 ho        1 C7L      0.250000
     52 HAK         6.0570    4.0870    5.4490 hc        1 C7L      0.187000
     53 HAL         6.4560    1.7480    9.5200 ha        1 C7L      0.158000
     54 HAM         5.1830    5.3600    7.5080 ha        1 C7L      0.146000
     55 HAN         5.0580    3.7980    9.4600 ha        1 C7L      0.155000
     56 HAO         7.3710    5.0410    6.2250 hc        1 C7L      0.187000
     57 HAR        11.0540   -2.2960   11.3420 h4        1 C7L      0.228000
     58 HAS         0.4070    0.6350   -0.3470 ha        1 C7L      0.003200
     59 HASA        0.2770    0.6480   -1.0130 ha        1 C7L      0.003200
     60 HAT        -0.3650    1.3430   -3.2810 h1        1 C7L      0.166667
     61 HATA        1.4620    1.0520   -3.0330 h1        1 C7L      0.166667
     62 HAU         4.7500    2.2170   -2.3350 ha        1 C7L      0.003200
     63 HAUA        4.2540    2.1470   -2.7940 ha        1 C7L      0.003200
     64 HAV         8.0120    1.1770    0.4800 ha        1 C7L      0.003200
     65 HAVA        7.5590    0.7210    0.2650 ha        1 C7L      0.003200
     66 HAW         7.9490   -1.4990    4.2630 ha        1 C7L      0.003200
     67 HAWA        8.7130    0.5470    5.7250 hc        1 C7L      0.131000
     68 HAX        10.1250   -7.0210   13.4810 h4        1 C7L      0.150000
     69 HAXA       11.9350   -1.2220    6.0860 ha        1 C7L      0.003200
     70 HAY        10.8010   -0.8920    8.4390 ha        1 C7L      0.334000
     71 HAYA       11.1080    1.2630    5.9440 hc        1 C7L      0.090000
     72 HNBB        4.1810   -0.7850    2.1080 hn        1 C7L      0.183000
     73 HBN        14.5810   -0.7040    6.9440 ha        1 C7L      0.121000
     74 HBO        12.2370   -0.7270    6.4390 ha        1 C7L      0.003200
     75 HBP        10.8420    1.6720    7.6900 hc        1 C7L      0.090000
     76 HBQ         9.9360    2.5830    6.3940 hc        1 C7L      0.090000
     77 HBR         2.7300    2.5250    1.7680 h4        1 C7L      0.133000
     78 HBS         7.5100    0.0970    2.5220 ho        1 C7L      0.259000
     79 HBU         5.2960    2.9780    0.0840 hc        1 C7L      0.150500
     80 HBV         4.5920    4.4060    0.9660 hc        1 C7L      0.150500
     81 HAP        11.9880   -1.5610   14.1870 ha        1 C7L      0.142000
     82 NAZ        14.6320   -0.3810   10.7430 n3        1 C7L     -0.284000
     83 HBB2        8.4980   -1.1230    4.1340 ha        1 C7L      0.003200
     84 NBT        10.4660   -4.9280   13.5570 n2        1 C7L     -0.418000
     85 HAQ        13.9000   -0.6500   13.2280 ha        1 C7L      0.156000
     86 HBT1       11.3030   -5.0250   14.0910 hn        1 C7L      0.193000
     87 HNAZ       14.8320   -0.1720    9.7820 hn        1 C7L      0.265500
     88 HNAA       15.3650   -0.2750   11.4090 hn        1 C7L      0.265500
@<TRIPOS>BOND
     1    1   24 1   
     2    1   42 1   
     3    1   44 1   
     4    2   34 1   
     5    2   46 1   
     6    2   47 1   
     7    3   34 1   
     8    3   48 1   
     9    3   49 1   
    10    3   50 1   
    11    4   29 1   
    12    4   78 1   
    13    5   41 1   
    14    6   41 1   
    15    7   35 1   
    16    7   51 1   
    17    8    9 1   
    18    8   10 1   
    19    8   54 1   
    20    9   11 1   
    21    9   55 1   
    22   10   12 1   
    23   10   52 1   
    24   10   56 1   
    25   11   30 1   
    26   11   53 1   
    27   12   30 1   
    28   13   14 1   
    29   13   31 1   
    30   13   81 1   
    31   14   32 1   
    32   14   85 1   
    33   15   33 1   
    34   15   70 1   
    35   16   24 1   
    36   16   43 1   
    37   16   60 1   
    38   16   61 1   
    39   17   25 1   
    40   18   26 1   
    41   19   38 1   
    42   20   30 1   
    43   20   36 1   
    44   21   45 1   
    45   21   68 1   
    46   21   84 1   
    47   22   36 1   
    48   22   71 1   
    49   22   75 1   
    50   22   76 1   
    51   23   29 1   
    52   23   72 1   
    53   25   37 1   
    54   27   39 1   
    55   28   29 1   
    56   28   38 1   
    57   31   41 1   
    58   31   57 1   
    59   32   33 1   
    60   32   82 1   
    61   34   73 1   
    62   35   36 1   
    63   36   67 1   
    64   37   40 1   
    65   37   77 1   
    66   38   40 1   
    67   40   79 1   
    68   40   80 1   
    69   58   59 1   
    70   62   63 1   
    71   64   65 1   
    72   66   83 1   
    73   69   74 1   
    74   82   87 1   
    75   82   88 1   
    76   84   86 1   
@<TRIPOS>SUBSTRUCTURE
     1 C7L         1 TEMP              0 ****  ****    0 ROOT
