@<TRIPOS>MOLECULE
C7M
   68    70     1     0     0
SMALL
bcc


@<TRIPOS>ATOM
      1 C1          3.1960   -1.2720   -1.2790 c3        1 C7M      0.096700
      2 O2          3.5550   -1.7200    0.0410 os        1 C7M     -0.261900
      3 C3          2.8450   -1.2710    1.0870 ca        1 C7M      0.306100
      4 C4          3.2380   -1.7860    2.3600 ca        1 C7M     -0.214000
      5 C5          2.5620   -1.3980    3.4830 ca        1 C7M      0.063000
      6 C6          1.4640   -0.4780    3.4390 ca        1 C7M     -0.698500
      7 C7          1.1100    0.0270    2.1500 ca        1 C7M      0.063000
      8 C8          1.7680   -0.3490    1.0070 ca        1 C7M     -0.214000
      9 S9          0.6760   -0.1190    4.7010 s4        1 C7M      1.691300
     10 O10         0.9810   -0.7540    5.8640 o         1 C7M     -0.441400
     11 O11        -0.4220    0.6750    4.5820 o         1 C7M     -0.441400
     12 N12         1.9720    1.8220    5.5530 n3        1 C7M     -0.996800
     13 C13         1.0780    2.9200    5.8710 c3        1 C7M      0.096800
     14 C14         1.6620    4.0270    6.7710 c3        1 C7M      0.097100
     15 O16         2.5330    4.8760    6.0420 oh        1 C7M     -0.603800
     16 C17         0.5200    4.9240    7.3150 c3        1 C7M      0.135500
     17 C19        -0.3890    5.4000    6.1660 c3        1 C7M     -0.053100
     18 C20        -1.3220    6.4840    6.5720 ca        1 C7M     -0.158300
     19 C21        -0.9520    7.8260    6.4060 ca        1 C7M     -0.130500
     20 C22        -1.8430    8.8450    6.7360 ca        1 C7M     -0.114500
     21 C23        -3.1110    8.5330    7.2300 ca        1 C7M     -0.096000
     22 C24        -3.4860    7.1990    7.3920 ca        1 C7M     -0.114500
     23 C25        -2.5960    6.1760    7.0630 ca        1 C7M     -0.130500
     24 N26         1.0420    6.1080    8.0800 n4        1 C7M     -0.750000
     25 C29         2.0660    5.7640    9.1120 c3        1 C7M      0.177100
     26 C30         2.3570    6.9170   10.0180 ca        1 C7M     -0.163300
     27 C31         3.4650    7.7120    9.7040 ca        1 C7M     -0.110000
     28 C32         3.8420    8.7680   10.5360 ca        1 C7M      0.027400
     29 CL33        5.1850    9.7110   10.1410 cl        1 C7M     -0.020400
     30 C34         3.1040    9.0400   11.6950 ca        1 C7M     -0.080000
     31 C35         1.9940    8.2640   12.0100 ca        1 C7M     -0.082000
     32 C36         1.6010    7.1930   11.1790 ca        1 C7M     -0.015200
     33 N37         0.4220    6.4790   11.6020 na        1 C7M     -0.212300
     34 C38         0.6670    5.1260   12.1330 cc        1 C7M      0.427400
     35 N39        -0.1320    4.2330   11.5870 n2        1 C7M     -0.525800
     36 N40        -0.8670    4.8670   10.5870 na        1 C7M     -0.070900
     37 N41        -0.5680    6.2710   10.5890 na        1 C7M     -0.232700
     38 H42         2.1500   -1.5790   -1.5160 h1        1 C7M      0.084033
     39 H43         3.9340   -1.8170   -1.9250 h1        1 C7M      0.084033
     40 H44         3.3300   -0.1670   -1.3560 h1        1 C7M      0.084033
     41 H45         4.0770   -2.5030    2.4050 ha        1 C7M      0.193000
     42 H46         2.8580   -1.8160    4.4660 ha        1 C7M      0.173000
     43 H47         0.2620    0.7370    2.0790 ha        1 C7M      0.173000
     44 H48         1.4580    0.0530    0.0280 ha        1 C7M      0.193000
     45 H49         2.3880    1.4440    6.3890 hn        1 C7M      0.393300
     46 H50         0.7420    3.3890    4.9000 h1        1 C7M      0.099700
     47 H51         0.1720    2.4840    6.3840 h1        1 C7M      0.099700
     48 H15         2.2130    3.5620    7.6400 h1        1 C7M      0.059700
     49 H52         3.3160    4.3660    5.8000 ho        1 C7M      0.429000
     50 H18        -0.0840    4.3060    8.0480 hx        1 C7M      0.129700
     51 H53         0.2550    5.7450    5.3110 hc        1 C7M      0.085200
     52 H54        -0.9800    4.5100    5.8170 hc        1 C7M      0.085200
     53 H55         0.0280    8.0800    5.9740 ha        1 C7M      0.133500
     54 H56        -1.5530    9.8980    6.5910 ha        1 C7M      0.157500
     55 H57        -3.8200    9.3400    7.4790 ha        1 C7M      0.162000
     56 H58        -4.4930    6.9500    7.7650 ha        1 C7M      0.157500
     57 H59        -2.9050    5.1260    7.1740 ha        1 C7M      0.133500
     58 H27         1.4540    6.7670    7.4070 hn        1 C7M      0.472300
     59 H28         0.2300    6.5740    8.5240 hn        1 C7M      0.472300
     60 H60         3.0060    5.4680    8.5560 hx        1 C7M      0.101200
     61 H61         1.7070    4.8680    9.6910 hx        1 C7M      0.101200
     62 H62         4.0580    7.4960    8.7990 ha        1 C7M      0.153000
     63 H63         3.3990    9.8710   12.3600 ha        1 C7M      0.184000
     64 H64         1.4170    8.4980   12.9230 ha        1 C7M      0.179000
     65 H65         1.3950    4.9650   12.9420 h5        1 C7M      0.102100
     66 H40        -1.8590    4.6970   10.7600 hn        1 C7M      0.247700
     67 H41        -1.3750    6.8190   10.8950 hn        1 C7M      0.234700
     68 H122        2.7050    2.1240    4.9360 hn        1 C7M      0.393300
@<TRIPOS>BOND
     1    1    2 1   
     2    1   38 1   
     3    1   39 1   
     4    1   40 1   
     5    2    3 1   
     6    3    4 ar  
     7    3    8 ar  
     8    4    5 ar  
     9    4   41 1   
    10    5    6 ar  
    11    5   42 1   
    12    6    7 ar  
    13    6    9 1   
    14    7    8 ar  
    15    7   43 1   
    16    8   44 1   
    17    9   10 1   
    18    9   11 1   
    19   12   13 1   
    20   12   45 1   
    21   12   68 1   
    22   13   14 1   
    23   13   46 1   
    24   13   47 1   
    25   14   15 1   
    26   14   16 1   
    27   14   48 1   
    28   15   49 1   
    29   16   17 1   
    30   16   24 1   
    31   16   50 1   
    32   17   18 1   
    33   17   51 1   
    34   17   52 1   
    35   18   19 ar  
    36   18   23 ar  
    37   19   20 ar  
    38   19   53 1   
    39   20   21 ar  
    40   20   54 1   
    41   21   22 ar  
    42   21   55 1   
    43   22   23 ar  
    44   22   56 1   
    45   23   57 1   
    46   24   25 1   
    47   24   58 1   
    48   24   59 1   
    49   25   26 1   
    50   25   60 1   
    51   25   61 1   
    52   26   27 ar  
    53   26   32 ar  
    54   27   28 ar  
    55   27   62 1   
    56   28   29 1   
    57   28   30 ar  
    58   30   31 ar  
    59   30   63 1   
    60   31   32 ar  
    61   31   64 1   
    62   32   33 1   
    63   33   34 1   
    64   33   37 1   
    65   34   35 2   
    66   34   65 1   
    67   35   36 1   
    68   36   37 1   
    69   36   66 1   
    70   37   67 1   
@<TRIPOS>SUBSTRUCTURE
     1 C7M         1 TEMP              0 ****  ****    0 ROOT
