@<TRIPOS>MOLECULE
C7M
   67    70     1     0     0
SMALL
bcc


@<TRIPOS>ATOM
      1 C1          8.8290   -0.6880   -1.0440 c3        1 C7M      0.104700
      2 O2          7.6520   -1.4220   -1.3880 os        1 C7M     -0.304900
      3 C3          6.4560   -0.9030   -0.9840 ca        1 C7M      0.225100
      4 C4          5.3180   -1.6530   -1.3670 ca        1 C7M     -0.211000
      5 C5          4.0640   -1.2080   -1.0000 ca        1 C7M      0.032000
      6 C6          3.8890   -0.0280   -0.2490 ca        1 C7M     -0.486500
      7 C7          5.0340    0.7020    0.1130 ca        1 C7M      0.032000
      8 C8          6.3070    0.2820   -0.2410 ca        1 C7M     -0.211000
      9 S9          2.3900    0.5130    0.1400 sy        1 C7M      1.538200
     10 O10         1.4020    0.0190   -0.7580 o         1 C7M     -0.691800
     11 O11         2.3250    1.9190    0.2810 o         1 C7M     -0.691800
     12 N12         2.1110   -0.1760    1.5930 n3        1 C7M     -0.913100
     13 C13         1.1500    0.3380    2.5150 c3        1 C7M      0.197800
     14 C14        -0.3260    0.1460    2.0790 c3        1 C7M      0.088100
     15 O16        -1.1830   -0.0080    3.1880 oh        1 C7M     -0.584800
     16 C17        -0.8130    1.3210    1.1930 c3        1 C7M      0.081500
     17 C19        -1.0420    2.6010    2.0140 c3        1 C7M     -0.054100
     18 C20        -1.2940    3.7650    1.1230 ca        1 C7M     -0.152300
     19 C21        -2.5600    4.3600    1.0750 ca        1 C7M     -0.125000
     20 C22        -2.7810    5.4660    0.2570 ca        1 C7M     -0.120500
     21 C23        -1.7400    5.9840   -0.5150 ca        1 C7M     -0.105000
     22 C24        -0.4760    5.3930   -0.4680 ca        1 C7M     -0.120500
     23 C25        -0.2500    4.2870    0.3490 ca        1 C7M     -0.125000
     24 N26        -2.0760    0.9470    0.4650 n4        1 C7M     -0.748000
     25 C29        -1.8500    0.2120   -0.8200 c3        1 C7M      0.151100
     26 C30        -2.1780   -1.2460   -0.7420 ca        1 C7M     -0.141300
     27 C31        -1.0960   -2.1350   -0.7150 ca        1 C7M     -0.105000
     28 C32        -1.3150   -3.5140   -0.6930 ca        1 C7M      0.021400
     29 CL33        0.0040   -4.5740   -0.6580 cl        1 C7M     -0.052400
     30 C34        -2.6190   -4.0190   -0.7010 ca        1 C7M     -0.094000
     31 C35        -3.7000   -3.1440   -0.7350 ca        1 C7M     -0.086000
     32 C36        -3.4980   -1.7480   -0.7650 ca        1 C7M     -0.024200
     33 N37        -4.6990   -0.9500   -0.8200 na        1 C7M     -0.214300
     34 C38        -4.8680   -0.1590   -2.0520 cc        1 C7M      0.418400
     35 N39        -5.1580    1.0990   -1.7930 n2        1 C7M     -0.520800
     36 N40        -5.0700    1.2810   -0.4150 na        1 C7M     -0.071900
     37 N41        -4.8370    0.0180    0.2250 na        1 C7M     -0.223700
     38 H42         8.8030    0.3290   -1.5040 h1        1 C7M      0.061700
     39 H43         8.9370   -0.6240    0.0660 h1        1 C7M      0.061700
     40 H44         9.6500   -1.3070   -1.4900 h1        1 C7M      0.061700
     41 H45         5.4540   -2.5720   -1.9570 ha        1 C7M      0.166500
     42 H46         3.1710   -1.7770   -1.3160 ha        1 C7M      0.155500
     43 H47         4.9140    1.6430    0.6820 ha        1 C7M      0.155500
     44 H48         7.1840    0.8770    0.0530 ha        1 C7M      0.166500
     45 H49         2.5720   -0.9980    1.9000 hn        1 C7M      0.458800
     46 H50         1.2650   -0.1820    3.5110 h1        1 C7M      0.077200
     47 H51         1.3480    1.4380    2.6800 h1        1 C7M      0.077200
     48 H15        -0.4370   -0.8290    1.5110 h1        1 C7M      0.106700
     49 H52        -0.9490    0.6580    3.8500 ho        1 C7M      0.419000
     50 H18        -0.0220    1.5460    0.4110 hx        1 C7M      0.125700
     51 H53        -1.8890    2.4550    2.7370 hc        1 C7M      0.079200
     52 H54        -0.1140    2.7930    2.6190 hc        1 C7M      0.079200
     53 H55        -3.3790    3.9700    1.6980 ha        1 C7M      0.148000
     54 H56        -3.7760    5.9360    0.2260 ha        1 C7M      0.148000
     55 H57        -1.9150    6.8610   -1.1580 ha        1 C7M      0.149000
     56 H58         0.3480    5.8040   -1.0720 ha        1 C7M      0.148000
     57 H59         0.7530    3.8240    0.3880 ha        1 C7M      0.148000
     58 H27        -2.6490    0.3750    1.1010 hn        1 C7M      0.470300
     59 H28        -2.5910    1.8180    0.2600 hn        1 C7M      0.470300
     60 H60        -2.4830    0.7090   -1.6110 hx        1 C7M      0.126200
     61 H61        -0.7630    0.3380   -1.1290 hx        1 C7M      0.126200
     62 H62        -0.0630   -1.7350   -0.7380 ha        1 C7M      0.187000
     63 H63        -2.7970   -5.1070   -0.6820 ha        1 C7M      0.172000
     64 H64        -4.7240   -3.5560   -0.7430 ha        1 C7M      0.170000
     65 H65        -4.8120   -0.6400   -3.0380 h5        1 C7M      0.097100
     66 H40        -5.9320    1.7170   -0.0870 hn        1 C7M      0.247700
     67 H41        -5.6570   -0.2830    0.7560 hn        1 C7M      0.226700
@<TRIPOS>BOND
     1    1    2 1   
     2    1   38 1   
     3    1   39 1   
     4    1   40 1   
     5    2    3 1   
     6    3    4 ar  
     7    3    8 ar  
     8    4    5 ar  
     9    4   41 1   
    10    5    6 ar  
    11    5   42 1   
    12    6    7 ar  
    13    6    9 1   
    14    7    8 ar  
    15    7   43 1   
    16    8   44 1   
    17    9   10 2   
    18    9   11 2   
    19    9   12 1   
    20   12   13 1   
    21   12   45 1   
    22   13   14 1   
    23   13   46 1   
    24   13   47 1   
    25   14   15 1   
    26   14   16 1   
    27   14   48 1   
    28   15   49 1   
    29   16   17 1   
    30   16   24 1   
    31   16   50 1   
    32   17   18 1   
    33   17   51 1   
    34   17   52 1   
    35   18   19 ar  
    36   18   23 ar  
    37   19   20 ar  
    38   19   53 1   
    39   20   21 ar  
    40   20   54 1   
    41   21   22 ar  
    42   21   55 1   
    43   22   23 ar  
    44   22   56 1   
    45   23   57 1   
    46   24   25 1   
    47   24   58 1   
    48   24   59 1   
    49   25   26 1   
    50   25   60 1   
    51   25   61 1   
    52   26   27 ar  
    53   26   32 ar  
    54   27   28 ar  
    55   27   62 1   
    56   28   29 1   
    57   28   30 ar  
    58   30   31 ar  
    59   30   63 1   
    60   31   32 ar  
    61   31   64 1   
    62   32   33 1   
    63   33   34 1   
    64   33   37 1   
    65   34   35 2   
    66   34   65 1   
    67   35   36 1   
    68   36   37 1   
    69   36   66 1   
    70   37   67 1   
@<TRIPOS>SUBSTRUCTURE
     1 C7M         1 TEMP              0 ****  ****    0 ROOT
