@<TRIPOS>MOLECULE
C7M
   67    62     1     0     0
SMALL
bcc


@<TRIPOS>ATOM
      1 C1         -3.6100    3.9770   -7.5060 c3        1 C7M     -0.085000
      2 O2         -3.0690    4.1850   -6.2090 os        1 C7M     -0.186000
      3 C3         -3.3180    3.1230   -5.3070 c2        1 C7M      0.181000
      4 C4         -4.3480    3.2340   -4.3680 c2        1 C7M     -0.183000
      5 C5         -4.5160    2.2470   -3.3970 c1        1 C7M      0.026000
      6 C6         -3.6540    1.1460   -3.3620 c1        1 C7M     -0.933000
      7 C7         -2.6250    1.0350   -4.2990 c1        1 C7M      0.039000
      8 C8         -2.4560    2.0220   -5.2720 c1        1 C7M     -0.239000
      9 S9         -3.8460   -0.0970   -2.0980 s4        1 C7M      2.094800
     10 O10        -3.5440   -1.4170   -2.6080 o         1 C7M     -0.579900
     11 O11        -5.2120   -0.2480   -1.7280 o         1 C7M     -0.579900
     12 N12        -2.9110    0.2680   -0.7900 n2        1 C7M     -0.889000
     13 C13        -2.4450   -0.7980    0.0900 c3        1 C7M     -0.038000
     14 C14        -1.8710   -0.1890    1.3660 c3        1 C7M     -0.018000
     15 O16        -2.7050   -0.5180    2.4610 oh        1 C7M     -0.337000
     16 C17        -0.5010   -0.7340    1.6030 c3        1 C7M     -0.073000
     17 C19        -0.5800   -1.9150    2.6230 c3        1 C7M     -0.136000
     18 C20         0.4250   -3.0250    2.2120 c2        1 C7M     -0.145000
     19 C21         1.0070   -3.8420    3.1930 c2        1 C7M     -0.135000
     20 C22         1.8370   -4.9000    2.8180 c1        1 C7M     -0.131000
     21 C23         2.0840   -5.1410    1.4830 c1        1 C7M     -0.116000
     22 C24         1.5030   -4.3250    0.5040 c1        1 C7M     -0.116000
     23 C25         0.6740   -3.2680    0.8780 c1        1 C7M     -0.120000
     24 N26         0.3210    0.2830    2.1220 n4        1 C7M     -0.029000
     25 C29         1.3580    0.5920    1.1770 c3        1 C7M     -0.086000
     26 C30         2.4290    1.4650    1.8560 c2        1 C7M     -0.123000
     27 C31         2.2180    2.8230    2.0070 c2        1 C7M     -0.096000
     28 C32         3.2290    3.6310    2.5100 c1        1 C7M     -0.060000
     29 CL33        3.0330    5.3570    2.5190 cl        1 C7M      0.033000
     30 C34         4.4440    3.0770    2.8600 c2        1 C7M     -0.083000
     31 C35         4.6550    1.7190    2.7090 c1        1 C7M     -0.116000
     32 C36         3.6490    0.9120    2.2070 c1        1 C7M      0.024000
     33 N37         3.8830   -0.4470    2.0040 n3        1 C7M     -0.199000
     34 C38         3.6670   -1.4270    2.8990 c2        1 C7M     -0.127000
     35 N39         4.3540   -2.4770    2.6940 n1        1 C7M     -0.042000
     36 N40         5.1480   -2.4060    1.6390 n2        1 C7M     -0.159000
     37 N41         4.8920   -1.0260    1.0840 n3        1 C7M     -0.101000
     38 H42        -2.9550    3.4970   -8.0600 h1        1 C7M      0.101000
     39 H43        -4.4380    3.4410   -7.4350 h1        1 C7M      0.101000
     40 H44        -3.8180    4.8550   -7.9230 h1        1 C7M      0.101000
     41 H45        -4.9480    4.0000   -4.3920 ha        1 C7M      0.174000
     42 H46        -5.2560    2.3270   -2.7230 ha        1 C7M      0.158000
     43 H47        -2.0270    0.2700   -4.2740 ha        1 C7M      0.155000
     44 H48        -1.7200    1.9410   -5.9430 ha        1 C7M      0.160000
     45 H49        -2.7570    1.1490   -0.5670 hn        1 C7M      0.254000
     46 H50        -3.1940   -1.3840    0.3160 h1        1 C7M      0.115500
     47 H51        -1.7380   -1.3270   -0.3740 h1        1 C7M      0.115500
     48 H15        -1.8240    0.7900    1.2700 h1        1 C7M      0.106000
     49 H52        -3.3900    0.0390    2.4870 ho        1 C7M      0.234000
     50 H18        -0.1260   -1.0570    0.7550 hx        1 C7M      0.171000
     51 H53        -0.3600   -1.5930    3.5020 hc        1 C7M      0.131000
     52 H54        -1.4720   -2.2750    2.6300 hc        1 C7M      0.131000
     53 H55         0.8320   -3.6700    4.1370 ha        1 C7M      0.134000
     54 H56         2.2450   -5.4720    3.5040 ha        1 C7M      0.147000
     55 H57         2.6660   -5.8810    1.2210 ha        1 C7M      0.151500
     56 H58         1.6740   -4.4920   -0.4170 ha        1 C7M      0.151500
     57 H59         0.2720   -2.7060    0.2000 ha        1 C7M      0.166000
     58 H27         0.6940    0.0020    2.9010 hn        1 C7M      0.252500
     59 H28        -0.1760    1.0210    2.2750 hn        1 C7M      0.252500
     60 H60         0.9670    1.0880    0.4010 hx        1 C7M      0.170000
     61 H61         1.7740   -0.2500    0.8560 hx        1 C7M      0.170000
     62 H62         1.3930    3.2260    1.6730 ha        1 C7M      0.161000
     63 H63         5.1700    3.6570    3.2210 ha        1 C7M      0.172000
     64 H64         5.5160    1.3280    2.9570 ha        1 C7M      0.168000
     65 H65         3.3720   -1.2000    3.8200 h5        1 C7M      0.222000
     66 H40         5.4960   -3.1260    1.1690 hn        1 C7M      0.206000
     67 H41         4.5310   -1.0990    0.2410 hn        1 C7M      0.134000
@<TRIPOS>BOND
     1    1    2 1   
     2    1   38 1   
     3    1   39 1   
     4    1   40 1   
     5    2    3 1   
     6    3    4 1   
     7    3    8 1   
     8    4    5 1   
     9    4   41 1   
    10    5   42 1   
    11    6    7 1   
    12    6    9 1   
    13    7   43 1   
    14    8   44 1   
    15    9   10 1   
    16    9   11 1   
    17   12   13 1   
    18   12   45 1   
    19   13   14 1   
    20   13   46 1   
    21   13   47 1   
    22   14   15 1   
    23   14   16 1   
    24   14   48 1   
    25   15   49 1   
    26   16   17 1   
    27   16   24 1   
    28   16   50 1   
    29   17   18 1   
    30   17   51 1   
    31   17   52 1   
    32   18   19 1   
    33   18   23 1   
    34   19   20 1   
    35   19   53 1   
    36   20   54 1   
    37   21   22 1   
    38   21   55 1   
    39   22   56 1   
    40   23   57 1   
    41   24   25 1   
    42   24   58 1   
    43   24   59 1   
    44   25   26 1   
    45   25   60 1   
    46   25   61 1   
    47   26   27 1   
    48   26   32 1   
    49   27   28 1   
    50   27   62 1   
    51   28   30 1   
    52   30   31 1   
    53   30   63 1   
    54   31   64 1   
    55   32   33 1   
    56   33   34 1   
    57   33   37 1   
    58   34   35 1   
    59   34   65 1   
    60   36   37 1   
    61   36   66 1   
    62   37   67 1   
@<TRIPOS>SUBSTRUCTURE
     1 C7M         1 TEMP              0 ****  ****    0 ROOT
