@<TRIPOS>MOLECULE
C7M
   68    70     1     0     0
SMALL
bcc


@<TRIPOS>ATOM
      1 C1          3.1900   -1.2080   -1.3240 c3        1 C7M      0.096700
      2 O2          3.5690   -1.6560   -0.0100 os        1 C7M     -0.261900
      3 C3          2.8630   -1.2210    1.0450 ca        1 C7M      0.306100
      4 C4          3.2760   -1.7360    2.3120 ca        1 C7M     -0.214000
      5 C5          2.6070   -1.3620    3.4430 ca        1 C7M      0.063000
      6 C6          1.4940   -0.4570    3.4140 ca        1 C7M     -0.698500
      7 C7          1.1200    0.0470    2.1300 ca        1 C7M      0.063000
      8 C8          1.7720   -0.3150    0.9800 ca        1 C7M     -0.214000
      9 S9          0.7150   -0.1140    4.6860 s4        1 C7M      1.691300
     10 O10         1.0400   -0.7490    5.8420 o         1 C7M     -0.441400
     11 O11        -0.3960    0.6650    4.5800 o         1 C7M     -0.441400
     12 N12         1.9920    1.8410    5.5310 n3        1 C7M     -0.996800
     13 C13         1.0870    2.9250    5.8630 c3        1 C7M      0.096800
     14 C14         1.6650    4.0370    6.7630 c3        1 C7M      0.097100
     15 O16         2.5160    4.9010    6.0280 oh        1 C7M     -0.603800
     16 C17         0.5160    4.9150    7.3230 c3        1 C7M      0.135500
     17 C19        -0.4110    5.3840    6.1860 c3        1 C7M     -0.053100
     18 C20        -1.3550    6.4530    6.6060 ca        1 C7M     -0.158300
     19 C21        -1.0050    7.8010    6.4430 ca        1 C7M     -0.130500
     20 C22        -1.9060    8.8060    6.7870 ca        1 C7M     -0.114500
     21 C23        -3.1640    8.4740    7.2930 ca        1 C7M     -0.096000
     22 C24        -3.5190    7.1350    7.4530 ca        1 C7M     -0.114500
     23 C25        -2.6190    6.1260    7.1100 ca        1 C7M     -0.130500
     24 N26         1.0300    6.1030    8.0870 n4        1 C7M     -0.750000
     25 C29         2.0700    5.7690    9.1070 c3        1 C7M      0.177100
     26 C30         2.3550    6.9210   10.0150 ca        1 C7M     -0.163300
     27 C31         3.4490    7.7320    9.6930 ca        1 C7M     -0.110000
     28 C32         3.8200    8.7900   10.5260 ca        1 C7M      0.027400
     29 CL33        5.1450    9.7540   10.1210 cl        1 C7M     -0.020400
     30 C34         3.0920    9.0460   11.6940 ca        1 C7M     -0.080000
     31 C35         1.9950    8.2540   12.0180 ca        1 C7M     -0.082000
     32 C36         1.6090    7.1810   11.1860 ca        1 C7M     -0.015200
     33 N37         0.4450    6.4480   11.6180 na        1 C7M     -0.212300
     34 C38         0.7140    5.0960   12.1390 cc        1 C7M      0.427400
     35 N39        -0.0790    4.1950   11.5980 n2        1 C7M     -0.525800
     36 N40        -0.8330    4.8240   10.6100 na        1 C7M     -0.070900
     37 N41        -0.5540    6.2310   10.6150 na        1 C7M     -0.232700
     38 H42         3.9290   -1.7400   -1.9800 h1        1 C7M      0.084033
     39 H43         2.1450   -1.5300   -1.5520 h1        1 C7M      0.084033
     40 H44         3.3080   -0.1010   -1.3980 h1        1 C7M      0.084033
     41 H45         4.1260   -2.4400    2.3450 ha        1 C7M      0.193000
     42 H46         2.9180   -1.7790    4.4220 ha        1 C7M      0.173000
     43 H47         0.2610    0.7460    2.0710 ha        1 C7M      0.173000
     44 H48         1.4460    0.0860    0.0050 ha        1 C7M      0.193000
     45 H49         2.7140    2.1570    4.9070 hn        1 C7M      0.393300
     46 H50         0.7330    3.3930    4.8990 h1        1 C7M      0.099700
     47 H51         0.1920    2.4750    6.3850 h1        1 C7M      0.099700
     48 H15         2.2320    3.5750    7.6230 h1        1 C7M      0.059700
     49 H52         3.3040    4.4030    5.7750 ho        1 C7M      0.429000
     50 H18        -0.0710    4.2850    8.0590 hx        1 C7M      0.129700
     51 H53         0.2180    5.7410    5.3260 hc        1 C7M      0.085200
     52 H54        -0.9940    4.4870    5.8390 hc        1 C7M      0.085200
     53 H55        -0.0330    8.0700    6.0020 ha        1 C7M      0.133500
     54 H56        -1.6320    9.8640    6.6440 ha        1 C7M      0.157500
     55 H57        -3.8810    9.2700    7.5530 ha        1 C7M      0.162000
     56 H58        -4.5180    6.8710    7.8350 ha        1 C7M      0.157500
     57 H59        -2.9130    5.0710    7.2200 ha        1 C7M      0.133500
     58 H27         1.4260    6.7710    7.4140 hn        1 C7M      0.472300
     59 H28         0.2160    6.5550    8.5430 hn        1 C7M      0.472300
     60 H60         3.0080    5.4890    8.5400 hx        1 C7M      0.101200
     61 H61         1.7310    4.8640    9.6850 hx        1 C7M      0.101200
     62 H62         4.0340    7.5300    8.7800 ha        1 C7M      0.153000
     63 H63         3.3810    9.8780   12.3600 ha        1 C7M      0.184000
     64 H64         1.4260    8.4750   12.9390 ha        1 C7M      0.179000
     65 H65         1.4530    4.9410   12.9400 h5        1 C7M      0.102100
     66 H40        -1.8210    4.6390   10.7930 hn        1 C7M      0.247700
     67 H41        -1.3650    6.7670   10.9330 hn        1 C7M      0.234700
     68 H122        2.4230    1.4660    6.3610 hn        1 C7M      0.393300
@<TRIPOS>BOND
     1    1    2 1   
     2    1   38 1   
     3    1   39 1   
     4    1   40 1   
     5    2    3 1   
     6    3    4 ar  
     7    3    8 ar  
     8    4    5 ar  
     9    4   41 1   
    10    5    6 ar  
    11    5   42 1   
    12    6    7 ar  
    13    6    9 1   
    14    7    8 ar  
    15    7   43 1   
    16    8   44 1   
    17    9   10 1   
    18    9   11 1   
    19   12   13 1   
    20   12   45 1   
    21   12   68 1   
    22   13   14 1   
    23   13   46 1   
    24   13   47 1   
    25   14   15 1   
    26   14   16 1   
    27   14   48 1   
    28   15   49 1   
    29   16   17 1   
    30   16   24 1   
    31   16   50 1   
    32   17   18 1   
    33   17   51 1   
    34   17   52 1   
    35   18   19 ar  
    36   18   23 ar  
    37   19   20 ar  
    38   19   53 1   
    39   20   21 ar  
    40   20   54 1   
    41   21   22 ar  
    42   21   55 1   
    43   22   23 ar  
    44   22   56 1   
    45   23   57 1   
    46   24   25 1   
    47   24   58 1   
    48   24   59 1   
    49   25   26 1   
    50   25   60 1   
    51   25   61 1   
    52   26   27 ar  
    53   26   32 ar  
    54   27   28 ar  
    55   27   62 1   
    56   28   29 1   
    57   28   30 ar  
    58   30   31 ar  
    59   30   63 1   
    60   31   32 ar  
    61   31   64 1   
    62   32   33 1   
    63   33   34 1   
    64   33   37 1   
    65   34   35 2   
    66   34   65 1   
    67   35   36 1   
    68   36   37 1   
    69   36   66 1   
    70   37   67 1   
@<TRIPOS>SUBSTRUCTURE
     1 C7M         1 TEMP              0 ****  ****    0 ROOT
