@<TRIPOS>MOLECULE
C7M
   68    70     1     0     0
SMALL
bcc


@<TRIPOS>ATOM
      1 C1          3.2190   -1.2970   -1.2510 c3        1 C7M      0.096700
      2 O2          3.6030   -1.7260    0.0680 os        1 C7M     -0.261900
      3 C3          2.8960   -1.2830    1.1190 ca        1 C7M      0.306100
      4 C4          3.3150   -1.7790    2.3910 ca        1 C7M     -0.214000
      5 C5          2.6450   -1.3950    3.5190 ca        1 C7M      0.063000
      6 C6          1.5270   -0.4980    3.4810 ca        1 C7M     -0.698500
      7 C7          1.1470   -0.0120    2.1910 ca        1 C7M      0.063000
      8 C8          1.7990   -0.3840    1.0440 ca        1 C7M     -0.214000
      9 S9          0.7470   -0.1440    4.7490 s4        1 C7M      1.691300
     10 O10         1.0790   -0.7630    5.9130 o         1 C7M     -0.441400
     11 O11        -0.3690    0.6260    4.6360 o         1 C7M     -0.441400
     12 N12         2.0130    1.8300    5.5690 n8        1 C7M     -0.996800
     13 C13         1.1020    2.9150    5.8820 c3        1 C7M      0.096800
     14 C14         1.6710    4.0400    6.7710 c3        1 C7M      0.097100
     15 O16         2.5230    4.8970    6.0300 oh        1 C7M     -0.603800
     16 C17         0.5160    4.9210    7.3130 c3        1 C7M      0.135500
     17 C19        -0.4070    5.3720    6.1650 c3        1 C7M     -0.053100
     18 C20        -1.3560    6.4440    6.5660 ca        1 C7M     -0.158300
     19 C21        -1.0100    7.7900    6.3870 ca        1 C7M     -0.130500
     20 C22        -1.9160    8.7970    6.7130 ca        1 C7M     -0.114500
     21 C23        -3.1760    8.4670    7.2160 ca        1 C7M     -0.096000
     22 C24        -3.5280    7.1280    7.3900 ca        1 C7M     -0.114500
     23 C25        -2.6220    6.1190    7.0660 ca        1 C7M     -0.130500
     24 N26         1.0210    6.1200    8.0650 ny        1 C7M     -0.750000
     25 C29         2.0560    5.8030    9.0950 c3        1 C7M      0.177100
     26 C30         2.3310    6.9680    9.9910 ca        1 C7M     -0.163300
     27 C31         3.4240    7.7780    9.6650 ca        1 C7M     -0.110000
     28 C32         3.7870    8.8480   10.4870 ca        1 C7M      0.027400
     29 Cl33        5.1110    9.8110   10.0780 cl        1 C7M     -0.020400
     30 C34         3.0500    9.1170   11.6470 ca        1 C7M     -0.080000
     31 C35         1.9540    8.3250   11.9740 ca        1 C7M     -0.082000
     32 C36         1.5760    7.2400   11.1530 ca        1 C7M     -0.015200
     33 N37         0.4110    6.5090   11.5870 na        1 C7M     -0.212300
     34 C38         0.6820    5.1650   12.1280 cc        1 C7M      0.427400
     35 N39        -0.1040    4.2540   11.5940 n2        1 C7M     -0.525800
     36 N40        -0.8550    4.8680   10.5920 na        1 C7M     -0.070900
     37 N41        -0.5790    6.2770   10.5810 na        1 C7M     -0.232700
     38 H42         2.1770   -1.6280   -1.4730 h1        1 C7M      0.084033
     39 H43         3.3300   -0.1900   -1.3390 h1        1 C7M      0.084033
     40 H44         3.9610   -1.8320   -1.9020 h1        1 C7M      0.084033
     41 H45         4.1700   -2.4780    2.4320 ha        1 C7M      0.193000
     42 H46         2.9610   -1.7980    4.5020 ha        1 C7M      0.173000
     43 H47         0.2840    0.6800    2.1250 ha        1 C7M      0.173000
     44 H48         1.4690    0.0030    0.0650 ha        1 C7M      0.193000
     45 H49         2.4420    1.4680    6.4070 hn        1 C7M      0.393300
     46 H50         0.7520    3.3700    4.9100 h1        1 C7M      0.099700
     47 H51         0.2050    2.4680    6.4040 h1        1 C7M      0.099700
     48 H15         2.2340    3.5910    7.6410 h1        1 C7M      0.059700
     49 H52         3.3140    4.3990    5.7880 ho        1 C7M      0.429000
     50 H18        -0.0740    4.2990    8.0530 hx        1 C7M      0.129700
     51 H53         0.2270    5.7210    5.3040 hc        1 C7M      0.085200
     52 H54        -0.9840    4.4690    5.8250 hc        1 C7M      0.085200
     53 H55        -0.0360    8.0580    5.9480 ha        1 C7M      0.133500
     54 H56        -1.6450    9.8540    6.5580 ha        1 C7M      0.157500
     55 H57        -3.8970    9.2640    7.4620 ha        1 C7M      0.162000
     56 H58        -4.5280    6.8660    7.7700 ha        1 C7M      0.157500
     57 H59        -2.9130    5.0640    7.1870 ha        1 C7M      0.133500
     58 H27         1.4190    6.7810    7.3860 hn        1 C7M      0.472300
     59 H28         0.2030    6.5760    8.5100 hn        1 C7M      0.472300
     60 H60         2.9980    5.5190    8.5380 hx        1 C7M      0.101200
     61 H61         1.7150    4.9050    9.6840 hx        1 C7M      0.101200
     62 H62         4.0160    7.5660    8.7590 ha        1 C7M      0.153000
     63 H63         3.3330    9.9580   12.3040 ha        1 C7M      0.184000
     64 H64         1.3770    8.5560   12.8880 ha        1 C7M      0.179000
     65 H65         1.4160    5.0230   12.9350 h5        1 C7M      0.102100
     66 H40        -1.8420    4.6820   10.7710 hn        1 C7M      0.247700
     67 H41        -1.3950    6.8130   10.8870 hn        1 C7M      0.233700
     68 H122        2.7360    2.1390    4.9440 hn        1 C7M      0.393300
@<TRIPOS>BOND
     1    1    2 1   
     2    1   38 1   
     3    1   39 1   
     4    1   40 1   
     5    2    3 1   
     6    3    4 ar  
     7    3    8 ar  
     8    4    5 ar  
     9    4   41 1   
    10    5    6 ar  
    11    5   42 1   
    12    6    7 ar  
    13    6    9 1   
    14    7    8 ar  
    15    7   43 1   
    16    8   44 1   
    17    9   10 1   
    18    9   11 1   
    19   12   13 1   
    20   12   45 1   
    21   12   68 1   
    22   13   14 1   
    23   13   46 1   
    24   13   47 1   
    25   14   15 1   
    26   14   16 1   
    27   14   48 1   
    28   15   49 1   
    29   16   17 1   
    30   16   24 1   
    31   16   50 1   
    32   17   18 1   
    33   17   51 1   
    34   17   52 1   
    35   18   19 ar  
    36   18   23 ar  
    37   19   20 ar  
    38   19   53 1   
    39   20   21 ar  
    40   20   54 1   
    41   21   22 ar  
    42   21   55 1   
    43   22   23 ar  
    44   22   56 1   
    45   23   57 1   
    46   24   25 1   
    47   24   58 1   
    48   24   59 1   
    49   25   26 1   
    50   25   60 1   
    51   25   61 1   
    52   26   27 ar  
    53   26   32 ar  
    54   27   28 ar  
    55   27   62 1   
    56   28   29 1   
    57   28   30 ar  
    58   30   31 ar  
    59   30   63 1   
    60   31   32 ar  
    61   31   64 1   
    62   32   33 1   
    63   33   34 1   
    64   33   37 1   
    65   34   35 2   
    66   34   65 1   
    67   35   36 1   
    68   36   37 1   
    69   36   66 1   
    70   37   67 1   
@<TRIPOS>SUBSTRUCTURE
     1 C7M         1 TEMP              0 ****  ****    0 ROOT
