@<TRIPOS>MOLECULE
C80
   78    71     1     0     0
SMALL
bcc


@<TRIPOS>ATOM
      1 C1          2.8620    1.6310    9.2640 c1        1 C80     -0.111500
      2 C2          2.7700    1.2960   10.6120 c2        1 C80     -0.127500
      3 C3          2.0770    2.1170   11.4840 c1        1 C80     -0.118000
      4 C4          1.4710    3.2770   11.0130 c2        1 C80     -0.127500
      5 C5          1.5610    3.6110    9.6710 c1        1 C80     -0.111500
      6 C6          2.2570    2.7860    8.7960 c2        1 C80     -0.115000
      7 C7          2.3790    3.1650    7.3330 c3        1 C80      0.022000
      8 N8          1.4470    2.4110    6.5690 n3        1 C80     -0.155000
      9 C16         1.9740    1.4640    5.7390 c1        1 C80      0.009000
     10 C9          0.0860    2.4780    6.3310 c1        1 C80     -0.008000
     11 C13        -1.5420    1.4160    4.9200 c1        1 C80     -0.082000
     12 C14        -0.2180    1.5670    5.3520 c1        1 C80     -0.036000
     13 C15         0.9440    0.9370    4.9820 c1        1 C80     -0.201000
     14 C10        -0.9340    3.2610    6.9020 c1        1 C80     -0.132000
     15 C11        -2.2460    3.1100    6.4740 c2        1 C80     -0.117000
     16 C12        -2.5500    2.1890    5.4840 c2        1 C80     -0.148000
     17 C17         1.0360   -0.1830    3.8970 c1        1 C80      0.385000
     18 O18         0.8810   -1.3420    4.2110 o         1 C80     -0.380000
     19 O19         1.3640    0.1550    2.5470 os        1 C80     -0.276000
     20 C20         1.2010   -0.9370    1.6090 c3        1 C80     -0.015000
     21 C21         1.1590   -0.3820    0.1860 c3        1 C80     -0.128000
     22 C22         2.5610   -0.1830   -0.3180 c3        1 C80     -0.216000
     23 C23         0.4290   -1.3610   -0.7230 c3        1 C80     -0.201000
     24 C24        -0.2870   -0.5890   -1.8280 c3        1 C80     -0.062000
     25 N25        -1.3690    0.1220   -1.2740 n3        1 C80     -0.334000
     26 C26        -0.7990   -1.5560   -2.8700 c3        1 C80      0.037000
     27 O27         0.2380   -2.3720   -3.2930 oh        1 C80     -0.330000
     28 C28        -1.3600   -0.7640   -4.0800 c3        1 C80     -0.143000
     29 C29        -1.8940   -1.7320   -5.1150 c3        1 C80     -0.122000
     30 C30        -3.3390   -2.0490   -4.8140 c3        1 C80     -0.208000
     31 C31        -1.7900   -1.1010   -6.5020 c2        1 C80      0.301000
     32 O32        -2.0360    0.0900   -6.6510 o         1 C80     -0.367000
     33 N33        -1.5080   -1.9300   -7.6560 n         1 C80     -0.377000
     34 C34        -1.2290   -1.3150   -8.9420 c3        1 C80     -0.032000
     35 C35        -0.9280   -2.4320  -10.0020 c3        1 C80     -0.185000
     36 C36        -0.5570   -1.7810  -11.3490 c3        1 C80     -0.156000
     37 C37        -0.2640   -2.8920  -12.3970 c3        1 C80     -0.211000
     38 H1          3.3510    1.0520    8.6490 DU        1 C80      0.145667
     39 H2          3.1950    0.4840   10.9420 ha        1 C80      0.137000
     40 H3          2.0120    1.8820   12.4310 DU        1 C80      0.145667
     41 H4          0.9800    3.8580   11.6300 ha        1 C80      0.137000
     42 H5          1.1370    4.4230    9.3420 DU        1 C80      0.145667
     43 H7C1        3.2860    2.9760    7.0210 h1        1 C80      0.109500
     44 H7C2        2.1890    4.1240    7.2250 h1        1 C80      0.109500
     45 H16         2.9200    1.2380    5.6550 DU        1 C80      0.145667
     46 H10        -0.7190    3.9110    7.6000 DU        1 C80      0.145667
     47 H13        -1.7570    0.7680    4.2250 DU        1 C80      0.145667
     48 H12        -3.4680    2.0840    5.1850 ha        1 C80      0.132000
     49 H11        -2.9540    3.6530    6.8690 ha        1 C80      0.132000
     50 H201        0.3620   -1.4110    1.8000 h1        1 C80      0.105500
     51 H202        1.9530   -1.5570    1.6950 h1        1 C80      0.105500
     52 H21         0.6900    0.4710    0.1850 hc        1 C80      0.096000
     53 H221        2.6000    0.6320   -0.8640 hc        1 C80      0.083667
     54 H222        3.1670   -0.0970    0.4370 hc        1 C80      0.083667
     55 H223        2.8240   -0.9530   -0.8620 hc        1 C80      0.083667
     56 H231        1.0750   -1.9800   -1.1220 hc        1 C80      0.084500
     57 H232       -0.2250   -1.8650   -0.2010 hc        1 C80      0.084500
     58 H24         0.3340    0.0350   -2.2420 h1        1 C80      0.117000
     59 H251       -1.1960    1.0220   -1.3160 hn        1 C80      0.145000
     60 H252       -1.4820   -0.1270   -0.3960 hn        1 C80      0.145000
     61 H27         0.0250   -3.2300   -3.1410 ho        1 C80      0.196000
     62 H281       -0.6480   -0.2260   -4.4750 hc        1 C80      0.118000
     63 H282       -2.0850   -0.1760   -3.7780 hc        1 C80      0.118000
     64 H29        -1.3730   -2.5500   -5.0920 hc        1 C80      0.111000
     65 H301       -3.3940   -2.9050   -4.3400 hc        1 C80      0.081000
     66 H302       -3.8480   -2.1060   -5.6620 hc        1 C80      0.081000
     67 H303       -3.7180   -1.3400   -4.2520 hc        1 C80      0.081000
     68 H33        -1.5410   -2.8230   -7.5850 hn        1 C80      0.215000
     69 H341       -2.0080   -0.7930   -9.2300 h1        1 C80      0.100000
     70 H342       -0.4490   -0.7220   -8.8590 h1        1 C80      0.100000
     71 H351       -1.7250   -2.9960  -10.1200 hc        1 C80      0.083500
     72 H352       -0.1780   -2.9870   -9.6880 hc        1 C80      0.083500
     73 H361       -1.2970   -1.2310  -11.6590 hc        1 C80      0.080500
     74 H362        0.2370   -1.2250  -11.2350 hc        1 C80      0.080500
     75 H371        0.5230   -3.4120  -12.1130 hc        1 C80      0.073000
     76 H372       -0.0860   -2.4800  -13.2720 hc        1 C80      0.073000
     77 H373       -1.0440   -3.4900  -12.4690 hc        1 C80      0.073000
     78 H26        -1.5120   -2.1100   -2.4800 h1        1 C80      0.069000
@<TRIPOS>BOND
     1    1    2 1   
     2    1    6 1   
     3    2    3 1   
     4    2   39 1   
     5    3    4 1   
     6    4    5 1   
     7    4   41 1   
     8    5    6 1   
     9    6    7 1   
    10    7    8 1   
    11    7   43 1   
    12    7   44 1   
    13    8    9 1   
    14    8   10 1   
    15    9   13 1   
    16   10   14 1   
    17   11   12 1   
    18   11   16 1   
    19   14   15 1   
    20   15   16 1   
    21   15   49 1   
    22   16   48 1   
    23   17   18 1   
    24   17   19 1   
    25   19   20 1   
    26   20   21 1   
    27   20   50 1   
    28   20   51 1   
    29   21   22 1   
    30   21   23 1   
    31   21   52 1   
    32   22   53 1   
    33   22   54 1   
    34   22   55 1   
    35   23   24 1   
    36   23   56 1   
    37   23   57 1   
    38   24   25 1   
    39   24   26 1   
    40   24   58 1   
    41   25   59 1   
    42   25   60 1   
    43   26   27 1   
    44   26   28 1   
    45   26   78 1   
    46   27   61 1   
    47   28   29 1   
    48   28   62 1   
    49   28   63 1   
    50   29   30 1   
    51   29   31 1   
    52   29   64 1   
    53   30   65 1   
    54   30   66 1   
    55   30   67 1   
    56   31   32 1   
    57   31   33 1   
    58   33   34 1   
    59   33   68 1   
    60   34   35 1   
    61   34   69 1   
    62   34   70 1   
    63   35   36 1   
    64   35   71 1   
    65   35   72 1   
    66   36   37 1   
    67   36   73 1   
    68   36   74 1   
    69   37   75 1   
    70   37   76 1   
    71   37   77 1   
@<TRIPOS>SUBSTRUCTURE
     1 C80         1 TEMP              0 ****  ****    0 ROOT
