@<TRIPOS>MOLECULE
C80
   80    82     1     0     0
SMALL
bcc


@<TRIPOS>ATOM
      1 C1         -0.0510    0.2760    0.9040 ca        1 C80     -0.109500
      2 C2          1.3070    0.4590    0.6520 ca        1 C80     -0.127000
      3 C3          2.2310   -0.5070    1.0540 ca        1 C80     -0.102000
      4 C4          1.7940   -1.6580    1.7120 ca        1 C80     -0.127000
      5 C5          0.4370   -1.8440    1.9690 ca        1 C80     -0.109500
      6 C6         -0.4900   -0.8770    1.5650 ca        1 C80     -0.146300
      7 C7         -1.9410   -1.0430    1.8980 c3        1 C80      0.078600
      8 N8         -2.6470   -1.9680    1.0390 na        1 C80     -0.029400
      9 C16        -2.3410   -2.2850   -0.2620 cc        1 C80      0.042900
     10 C9         -3.8030   -2.6880    1.4210 ca        1 C80     -0.071200
     11 C13        -5.3410   -4.3150    0.4190 ca        1 C80     -0.115000
     12 C14        -4.2250   -3.4890    0.2960 ca        1 C80     -0.036800
     13 C15        -3.2840   -3.2120   -0.7720 cd        1 C80     -0.285400
     14 C10        -4.5060   -2.7180    2.6330 ca        1 C80     -0.106000
     15 C11        -5.6160   -3.5480    2.7150 ca        1 C80     -0.113000
     16 C12        -6.0270   -4.3370    1.6270 ca        1 C80     -0.121000
     17 C17        -3.2920   -3.7810   -2.0760 c         1 C80      0.736300
     18 O18        -4.1020   -4.5900   -2.5810 o         1 C80     -0.722000
     19 O19        -2.2900   -3.3370   -2.9070 os        1 C80     -0.430900
     20 C20        -2.0600   -4.0260   -4.1360 c3        1 C80      0.147400
     21 C21        -3.1580   -3.7530   -5.1720 c3        1 C80     -0.092700
     22 C22        -2.5630   -3.1380   -6.4220 c3        1 C80     -0.102100
     23 C23        -3.9110   -5.0350   -5.5130 c3        1 C80     -0.096400
     24 C24        -5.4190   -4.8150   -5.6970 c3        1 C80      0.087500
     25 N25        -6.0810   -4.6190   -4.3640 nz        1 C80     -0.841600
     26 C26        -6.0590   -5.9940   -6.4830 c3        1 C80      0.129100
     27 O27        -5.3920   -7.2140   -6.2230 oh        1 C80     -0.584800
     28 C28        -5.9150   -5.7300   -7.9860 c3        1 C80     -0.079400
     29 C29        -6.4200   -6.9120   -8.8140 c3        1 C80     -0.124700
     30 C30        -7.9200   -6.8510   -9.0160 c3        1 C80     -0.118100
     31 C31        -5.7070   -6.9180  -10.1510 c         1 C80      0.543100
     32 O32        -4.9250   -6.0900  -10.5880 o         1 C80     -0.398100
     33 N33        -5.9760   -8.1050  -11.0480 ny        1 C80     -0.679800
     34 C34        -6.8160   -7.7180  -12.2300 c3        1 C80      0.105800
     35 C35        -7.0530   -8.8830  -13.1810 c3        1 C80     -0.111400
     36 C36        -7.9070   -8.4120  -14.3450 c3        1 C80     -0.075400
     37 C37        -8.1620   -9.5420  -15.3090 c3        1 C80     -0.102100
     38 H1         -0.7740    1.0470    0.5980 ha        1 C80      0.138500
     39 H2          1.6520    1.3720    0.1430 ha        1 C80      0.147500
     40 H3          3.3040   -0.3570    0.8610 ha        1 C80      0.148000
     41 H4          2.5230   -2.4160    2.0380 ha        1 C80      0.147500
     42 H5          0.0960   -2.7460    2.5000 ha        1 C80      0.138500
     43 H7C1       -2.4650   -0.0430    1.8350 h1        1 C80      0.079200
     44 H7C2       -2.0390   -1.4230    2.9580 h1        1 C80      0.079200
     45 H16        -1.4730   -1.8530   -0.7750 h4        1 C80      0.200000
     46 H10        -4.1900   -2.1080    3.4920 ha        1 C80      0.152000
     47 H13        -5.6490   -4.9450   -0.4260 ha        1 C80      0.125000
     48 H12        -6.9060   -4.9890    1.7440 ha        1 C80      0.140000
     49 H11        -6.1870   -3.5940    3.6560 ha        1 C80      0.152000
     50 H201       -1.9440   -5.1220   -3.9320 h1        1 C80      0.080700
     51 H202       -1.0750   -3.5920   -4.4710 h1        1 C80      0.080700
     52 H21        -3.8620   -3.0000   -4.7170 hc        1 C80      0.048700
     53 H221       -2.0810   -2.1590   -6.1780 hc        1 C80      0.052033
     54 H222       -3.3590   -2.9590   -7.1850 hc        1 C80      0.052033
     55 H223       -1.7880   -3.8090   -6.8660 hc        1 C80      0.052033
     56 H231       -3.7450   -5.8090   -4.7120 hc        1 C80      0.091200
     57 H232       -3.5150   -5.4710   -6.4700 hc        1 C80      0.091200
     58 H24        -5.5890   -3.8600   -6.2800 hx        1 C80      0.113700
     59 H251       -7.0760   -4.4230   -4.4660 hn        1 C80      0.471800
     60 H252       -5.9380   -5.4470   -3.7710 hn        1 C80      0.471800
     61 H27        -5.5210   -7.4400   -5.2920 ho        1 C80      0.429000
     62 H281       -6.4930   -4.8060   -8.2520 hc        1 C80      0.089200
     63 H282       -4.8320   -5.5410   -8.2170 hc        1 C80      0.089200
     64 H29        -6.1460   -7.8680   -8.2720 hc        1 C80      0.124700
     65 H301       -8.4230   -6.7470   -8.0220 hc        1 C80      0.069367
     66 H302       -8.3070   -7.7840   -9.4950 hc        1 C80      0.069367
     67 H303       -8.2100   -5.9730   -9.6450 hc        1 C80      0.069367
     68 H33        -5.0800   -8.4750  -11.3970 hn        1 C80      0.463300
     69 H341       -7.7980   -7.3300  -11.8350 hx        1 C80      0.111200
     70 H342       -6.2800   -6.8810  -12.7670 hx        1 C80      0.111200
     71 H351       -7.5770   -9.7240  -12.6530 hc        1 C80      0.071200
     72 H352       -6.0770   -9.2770  -13.5740 hc        1 C80      0.071200
     73 H361       -8.8830   -8.0150  -13.9610 hc        1 C80      0.056200
     74 H362       -7.3860   -7.5720  -14.8780 hc        1 C80      0.056200
     75 H371       -8.7910   -9.1780  -16.1590 hc        1 C80      0.056367
     76 H372       -8.7010  -10.3810  -14.8070 hc        1 C80      0.056367
     77 H373       -7.2030   -9.9350  -15.7260 hc        1 C80      0.056367
     78 H26        -7.1540   -6.0940   -6.2260 h1        1 C80      0.051700
     79 H253       -5.6090   -3.8400   -3.8660 hn        1 C80      0.471800
     80 H332       -6.4490   -8.8460  -10.5220 hn        1 C80      0.463300
@<TRIPOS>BOND
     1    1    2 ar  
     2    1    6 ar  
     3    1   38 1   
     4    2    3 ar  
     5    2   39 1   
     6    3    4 ar  
     7    3   40 1   
     8    4    5 ar  
     9    4   41 1   
    10    5    6 ar  
    11    5   42 1   
    12    6    7 1   
    13    7    8 1   
    14    7   43 1   
    15    7   44 1   
    16    8    9 1   
    17    8   10 1   
    18    9   13 2   
    19    9   45 1   
    20   10   12 ar  
    21   10   14 ar  
    22   11   12 ar  
    23   11   16 ar  
    24   11   47 1   
    25   12   13 1   
    26   13   17 1   
    27   14   15 ar  
    28   14   46 1   
    29   15   16 ar  
    30   15   49 1   
    31   16   48 1   
    32   17   18 2   
    33   17   19 1   
    34   19   20 1   
    35   20   21 1   
    36   20   50 1   
    37   20   51 1   
    38   21   22 1   
    39   21   23 1   
    40   21   52 1   
    41   22   53 1   
    42   22   54 1   
    43   22   55 1   
    44   23   24 1   
    45   23   56 1   
    46   23   57 1   
    47   24   25 1   
    48   24   26 1   
    49   24   58 1   
    50   25   59 1   
    51   25   60 1   
    52   25   79 1   
    53   26   27 1   
    54   26   28 1   
    55   26   78 1   
    56   27   61 1   
    57   28   29 1   
    58   28   62 1   
    59   28   63 1   
    60   29   30 1   
    61   29   31 1   
    62   29   64 1   
    63   30   65 1   
    64   30   66 1   
    65   30   67 1   
    66   31   32 2   
    67   31   33 1   
    68   33   34 1   
    69   33   68 1   
    70   33   80 1   
    71   34   35 1   
    72   34   69 1   
    73   34   70 1   
    74   35   36 1   
    75   35   71 1   
    76   35   72 1   
    77   36   37 1   
    78   36   73 1   
    79   36   74 1   
    80   37   75 1   
    81   37   76 1   
    82   37   77 1   
@<TRIPOS>SUBSTRUCTURE
     1 C80         1 TEMP              0 ****  ****    0 ROOT
