@<TRIPOS>MOLECULE
C80
   80    82     1     0     0
SMALL
bcc


@<TRIPOS>ATOM
      1 C1          0.1490    0.2030    0.6500 ca        1 C80     -0.109500
      2 C2          1.4710    0.4110    0.2600 ca        1 C80     -0.127000
      3 C3          2.4410   -0.5560    0.5260 ca        1 C80     -0.102000
      4 C4          2.0870   -1.7350    1.1850 ca        1 C80     -0.127000
      5 C5          0.7670   -1.9460    1.5790 ca        1 C80     -0.109500
      6 C6         -0.2060   -0.9770    1.3120 ca        1 C80     -0.146300
      7 C7         -1.6110   -1.1730    1.7920 c3        1 C80      0.078600
      8 N8         -2.3990   -2.0740    0.9800 na        1 C80     -0.029400
      9 C16        -2.2300   -2.3440   -0.3550 cc        1 C80      0.042900
     10 C9         -3.5050   -2.8170    1.4560 ca        1 C80     -0.071200
     11 C13        -5.1300   -4.4220    0.5660 ca        1 C80     -0.115000
     12 C14        -4.0380   -3.5820    0.3550 ca        1 C80     -0.036800
     13 C15        -3.2160   -3.2610   -0.7960 cd        1 C80     -0.285400
     14 C10        -4.0750   -2.8940    2.7340 ca        1 C80     -0.106000
     15 C11        -5.1670   -3.7370    2.9030 ca        1 C80     -0.113000
     16 C12        -5.6850   -4.4920    1.8370 ca        1 C80     -0.121000
     17 C17        -3.3590   -3.7850   -2.1110 c         1 C80      0.735300
     18 O18        -4.2150   -4.5830   -2.5560 o         1 C80     -0.722000
     19 O19        -2.4520   -3.3050   -3.0270 os        1 C80     -0.430900
     20 C20        -2.3520   -3.9490   -4.2970 c3        1 C80      0.147400
     21 C21        -3.5540   -3.6480   -5.2000 c3        1 C80     -0.092700
     22 C22        -3.0980   -2.9840   -6.4830 c3        1 C80     -0.102100
     23 C23        -4.3350   -4.9220   -5.5070 c3        1 C80     -0.096400
     24 C24        -5.8540   -4.7070   -5.5210 c3        1 C80      0.087500
     25 N25        -6.3720   -4.5640   -4.1190 n4        1 C80     -0.841600
     26 C26        -6.5700   -5.8620   -6.2780 c3        1 C80      0.129100
     27 O27        -5.8760   -7.0850   -6.1320 oh        1 C80     -0.584800
     28 C28        -6.5860   -5.5440   -7.7770 c3        1 C80     -0.079400
     29 C29        -7.1650   -6.7010   -8.5900 c3        1 C80     -0.128700
     30 C30        -8.6790   -6.6540   -8.6260 c3        1 C80     -0.124100
     31 C31        -6.5930   -6.6570   -9.9930 c         1 C80      0.538100
     32 O32        -5.7760   -5.8700  -10.4410 o         1 C80     -0.393100
     33 N33        -7.0950   -7.7310  -10.9310 n4        1 C80     -0.676800
     34 C34        -6.3730   -7.7690  -12.2440 c3        1 C80      0.103800
     35 C35        -6.9120   -8.8530  -13.1680 c3        1 C80     -0.110400
     36 C36        -6.1320   -8.8280  -14.4710 c3        1 C80     -0.075400
     37 C37        -6.6390   -9.8890  -15.4140 c3        1 C80     -0.102100
     38 H1         -0.6090    0.9750    0.4500 ha        1 C80      0.138500
     39 H2          1.7520    1.3460   -0.2500 ha        1 C80      0.147500
     40 H3          3.4860   -0.3870    0.2250 ha        1 C80      0.148000
     41 H4          2.8530   -2.4950    1.4030 ha        1 C80      0.147500
     42 H5          0.4930   -2.8700    2.1110 ha        1 C80      0.138500
     43 H7C1       -2.1470   -0.1770    1.8240 h1        1 C80      0.079200
     44 H7C2       -1.5910   -1.5920    2.8420 h1        1 C80      0.079200
     45 H16        -1.4230   -1.8870   -0.9420 h4        1 C80      0.200000
     46 H10        -3.6740   -2.3120    3.5750 ha        1 C80      0.152000
     47 H13        -5.5230   -5.0260   -0.2630 ha        1 C80      0.125000
     48 H12        -6.5440   -5.1550    2.0240 ha        1 C80      0.140000
     49 H11        -5.6340   -3.8200    3.8970 ha        1 C80      0.152000
     50 H201       -1.4100   -3.4970   -4.7180 h1        1 C80      0.080700
     51 H202       -2.2120   -5.0510   -4.1450 h1        1 C80      0.080700
     52 H21        -4.2090   -2.9170   -4.6470 hc        1 C80      0.048700
     53 H221       -3.9710   -2.7840   -7.1500 hc        1 C80      0.052033
     54 H222       -2.3720   -3.6330   -7.0310 hc        1 C80      0.052033
     55 H223       -2.5960   -2.0110   -6.2560 hc        1 C80      0.052033
     56 H231       -4.0820   -5.7230   -4.7560 hc        1 C80      0.091200
     57 H232       -4.0410   -5.3200   -6.5150 hc        1 C80      0.091200
     58 H24        -6.0890   -3.7330   -6.0470 hx        1 C80      0.113700
     59 H251       -5.8530   -3.8000   -3.6460 hn        1 C80      0.471800
     60 H252       -6.1630   -5.4120   -3.5750 hn        1 C80      0.471800
     61 H27        -5.9100   -7.3480   -5.2020 ho        1 C80      0.429000
     62 H281       -5.5330   -5.3350   -8.1120 hc        1 C80      0.089700
     63 H282       -7.1960   -4.6180   -7.9470 hc        1 C80      0.089700
     64 H29        -6.8240   -7.6730   -8.1170 hc        1 C80      0.127700
     65 H301       -9.0470   -5.8020   -9.2480 hc        1 C80      0.069700
     66 H302       -9.0710   -6.5150   -7.5870 hc        1 C80      0.069700
     67 H303       -9.1100   -7.6080   -9.0170 hc        1 C80      0.069700
     68 H33        -7.0030   -8.6440  -10.4700 hn        1 C80      0.461800
     69 H341       -6.4790   -6.7530  -12.7250 hx        1 C80      0.116700
     70 H342       -5.2790   -7.9440  -12.0280 hx        1 C80      0.116700
     71 H351       -6.8090   -9.8650  -12.6940 hc        1 C80      0.067700
     72 H352       -8.0000   -8.6820  -13.3850 hc        1 C80      0.067700
     73 H361       -6.2300   -7.8180  -14.9500 hc        1 C80      0.058200
     74 H362       -5.0430   -8.9980  -14.2610 hc        1 C80      0.058200
     75 H371       -6.5280  -10.9060  -14.9680 hc        1 C80      0.055367
     76 H372       -7.7170   -9.7240  -15.6580 hc        1 C80      0.055367
     77 H373       -6.0550   -9.8570  -16.3670 hc        1 C80      0.055367
     78 H26        -7.6310   -5.9780   -5.9100 h1        1 C80      0.050700
     79 H253       -7.3720   -4.3730   -4.1070 hn        1 C80      0.471800
     80 H332       -8.0950   -7.5670  -11.1040 hn        1 C80      0.461800
@<TRIPOS>BOND
     1    1    2 ar  
     2    1    6 ar  
     3    1   38 1   
     4    2    3 ar  
     5    2   39 1   
     6    3    4 ar  
     7    3   40 1   
     8    4    5 ar  
     9    4   41 1   
    10    5    6 ar  
    11    5   42 1   
    12    6    7 1   
    13    7    8 1   
    14    7   43 1   
    15    7   44 1   
    16    8    9 1   
    17    8   10 1   
    18    9   13 2   
    19    9   45 1   
    20   10   12 ar  
    21   10   14 ar  
    22   11   12 ar  
    23   11   16 ar  
    24   11   47 1   
    25   12   13 1   
    26   13   17 1   
    27   14   15 ar  
    28   14   46 1   
    29   15   16 ar  
    30   15   49 1   
    31   16   48 1   
    32   17   18 2   
    33   17   19 1   
    34   19   20 1   
    35   20   21 1   
    36   20   50 1   
    37   20   51 1   
    38   21   22 1   
    39   21   23 1   
    40   21   52 1   
    41   22   53 1   
    42   22   54 1   
    43   22   55 1   
    44   23   24 1   
    45   23   56 1   
    46   23   57 1   
    47   24   25 1   
    48   24   26 1   
    49   24   58 1   
    50   25   59 1   
    51   25   60 1   
    52   25   79 1   
    53   26   27 1   
    54   26   28 1   
    55   26   78 1   
    56   27   61 1   
    57   28   29 1   
    58   28   62 1   
    59   28   63 1   
    60   29   30 1   
    61   29   31 1   
    62   29   64 1   
    63   30   65 1   
    64   30   66 1   
    65   30   67 1   
    66   31   32 2   
    67   31   33 1   
    68   33   34 1   
    69   33   68 1   
    70   33   80 1   
    71   34   35 1   
    72   34   69 1   
    73   34   70 1   
    74   35   36 1   
    75   35   71 1   
    76   35   72 1   
    77   36   37 1   
    78   36   73 1   
    79   36   74 1   
    80   37   75 1   
    81   37   76 1   
    82   37   77 1   
@<TRIPOS>SUBSTRUCTURE
     1 C80         1 TEMP              0 ****  ****    0 ROOT
