@<TRIPOS>MOLECULE
C80
   80    82     1     0     0
SMALL
bcc


@<TRIPOS>ATOM
      1 C1         -0.0520    0.2510    0.9200 ca        1 C80     -0.109500
      2 C2          1.3070    0.4360    0.6670 ca        1 C80     -0.127000
      3 C3          2.2310   -0.5300    1.0670 ca        1 C80     -0.102000
      4 C4          1.7960   -1.6830    1.7220 ca        1 C80     -0.127000
      5 C5          0.4380   -1.8710    1.9800 ca        1 C80     -0.109500
      6 C6         -0.4890   -0.9030    1.5780 ca        1 C80     -0.146300
      7 C7         -1.9400   -1.0710    1.9120 c3        1 C80      0.078600
      8 N8         -2.6470   -1.9920    1.0500 na        1 C80     -0.029400
      9 C16        -2.3400   -2.3080   -0.2510 cc        1 C80      0.042900
     10 C9         -3.8050   -2.7110    1.4280 ca        1 C80     -0.071200
     11 C13        -5.3450   -4.3320    0.4210 ca        1 C80     -0.115000
     12 C14        -4.2270   -3.5080    0.3010 ca        1 C80     -0.036800
     13 C15        -3.2840   -3.2320   -0.7650 cd        1 C80     -0.285400
     14 C10        -4.5100   -2.7420    2.6390 ca        1 C80     -0.106000
     15 C11        -5.6220   -3.5700    2.7180 ca        1 C80     -0.113000
     16 C12        -6.0320   -4.3550    1.6280 ca        1 C80     -0.121000
     17 C17        -3.2910   -3.7970   -2.0700 c         1 C80      0.735300
     18 O18        -4.1030   -4.6040   -2.5780 o         1 C80     -0.722000
     19 O19        -2.2860   -3.3540   -2.8980 os        1 C80     -0.430900
     20 C20        -2.0570   -4.0410   -4.1290 c3        1 C80      0.147400
     21 C21        -3.1530   -3.7620   -5.1660 c3        1 C80     -0.092700
     22 C22        -2.5540   -3.1450   -6.4130 c3        1 C80     -0.102100
     23 C23        -3.9090   -5.0400   -5.5120 c3        1 C80     -0.096400
     24 C24        -5.4160   -4.8150   -5.6960 c3        1 C80      0.087500
     25 N25        -6.0790   -4.6210   -4.3640 n4        1 C80     -0.841600
     26 C26        -6.0590   -5.9890   -6.4880 c3        1 C80      0.129100
     27 O27        -5.3960   -7.2110   -6.2320 oh        1 C80     -0.584800
     28 C28        -5.9130   -5.7200   -7.9900 c3        1 C80     -0.079400
     29 C29        -6.4200   -6.8970   -8.8230 c3        1 C80     -0.124700
     30 C30        -7.9200   -6.8310   -9.0260 c3        1 C80     -0.118100
     31 C31        -5.7060   -6.8990  -10.1590 c         1 C80      0.543100
     32 O32        -4.9210   -6.0720  -10.5920 o         1 C80     -0.398100
     33 N33        -5.9790   -8.0810  -11.0620 n4        1 C80     -0.679800
     34 C34        -6.8170   -7.6860  -12.2430 c3        1 C80      0.105800
     35 C35        -7.0570   -8.8470  -13.1990 c3        1 C80     -0.111400
     36 C36        -7.9080   -8.3670  -14.3610 c3        1 C80     -0.075400
     37 C37        -8.1660   -9.4920  -15.3310 c3        1 C80     -0.102100
     38 H1         -0.7760    1.0220    0.6160 ha        1 C80      0.138500
     39 H2          1.6500    1.3500    0.1600 ha        1 C80      0.147500
     40 H3          3.3040   -0.3790    0.8730 ha        1 C80      0.148000
     41 H4          2.5250   -2.4420    2.0450 ha        1 C80      0.147500
     42 H5          0.0990   -2.7740    2.5080 ha        1 C80      0.138500
     43 H7C1       -2.4640   -0.0710    1.8540 h1        1 C80      0.079200
     44 H7C2       -2.0370   -1.4560    2.9700 h1        1 C80      0.079200
     45 H16        -1.4700   -1.8770   -0.7620 h4        1 C80      0.200000
     46 H10        -4.1940   -2.1350    3.5000 ha        1 C80      0.152000
     47 H13        -5.6530   -4.9600   -0.4250 ha        1 C80      0.125000
     48 H12        -6.9140   -5.0050    1.7420 ha        1 C80      0.140000
     49 H11        -6.1940   -3.6160    3.6580 ha        1 C80      0.152000
     50 H201       -1.9450   -5.1380   -3.9280 h1        1 C80      0.080700
     51 H202       -1.0710   -3.6100   -4.4610 h1        1 C80      0.080700
     52 H21        -3.8550   -3.0080   -4.7100 hc        1 C80      0.048700
     53 H221       -3.3480   -2.9610   -7.1760 hc        1 C80      0.052033
     54 H222       -2.0690   -2.1680   -6.1650 hc        1 C80      0.052033
     55 H223       -1.7800   -3.8170   -6.8580 hc        1 C80      0.052033
     56 H231       -3.7470   -5.8170   -4.7130 hc        1 C80      0.091200
     57 H232       -3.5130   -5.4740   -6.4700 hc        1 C80      0.091200
     58 H24        -5.5830   -3.8570   -6.2760 hx        1 C80      0.113700
     59 H251       -5.6060   -3.8460   -3.8630 hn        1 C80      0.471800
     60 H252       -7.0730   -4.4220   -4.4660 hn        1 C80      0.471800
     61 H27        -5.5270   -7.4410   -5.3020 ho        1 C80      0.429000
     62 H281       -6.4880   -4.7930   -8.2520 hc        1 C80      0.089200
     63 H282       -4.8290   -5.5330   -8.2190 hc        1 C80      0.089200
     64 H29        -6.1490   -7.8560   -8.2840 hc        1 C80      0.124700
     65 H301       -8.3090   -7.7600   -9.5080 hc        1 C80      0.069367
     66 H302       -8.2070   -5.9500   -9.6510 hc        1 C80      0.069367
     67 H303       -8.4240   -6.7300   -8.0310 hc        1 C80      0.069367
     68 H33        -6.4550   -8.8230  -10.5390 hn        1 C80      0.463300
     69 H341       -7.7980   -7.2970  -11.8460 hx        1 C80      0.111200
     70 H342       -6.2770   -6.8490  -12.7750 hx        1 C80      0.111200
     71 H351       -7.5830   -9.6880  -12.6750 hc        1 C80      0.071200
     72 H352       -6.0820   -9.2410  -13.5930 hc        1 C80      0.071200
     73 H361       -7.3850   -7.5260  -14.8900 hc        1 C80      0.056200
     74 H362       -8.8840   -7.9680  -13.9760 hc        1 C80      0.056200
     75 H371       -7.2080   -9.8860  -15.7490 hc        1 C80      0.056367
     76 H372       -8.7090  -10.3310  -14.8330 hc        1 C80      0.056367
     77 H373       -8.7940   -9.1220  -16.1800 hc        1 C80      0.056367
     78 H26        -7.1540   -6.0870   -6.2320 h1        1 C80      0.051700
     79 H253       -5.9400   -5.4520   -3.7730 hn        1 C80      0.471800
     80 H332       -5.0840   -8.4520  -11.4120 hn        1 C80      0.463300
@<TRIPOS>BOND
     1    1    2 ar  
     2    1    6 ar  
     3    1   38 1   
     4    2    3 ar  
     5    2   39 1   
     6    3    4 ar  
     7    3   40 1   
     8    4    5 ar  
     9    4   41 1   
    10    5    6 ar  
    11    5   42 1   
    12    6    7 1   
    13    7    8 1   
    14    7   43 1   
    15    7   44 1   
    16    8    9 1   
    17    8   10 1   
    18    9   13 2   
    19    9   45 1   
    20   10   12 ar  
    21   10   14 ar  
    22   11   12 ar  
    23   11   16 ar  
    24   11   47 1   
    25   12   13 1   
    26   13   17 1   
    27   14   15 ar  
    28   14   46 1   
    29   15   16 ar  
    30   15   49 1   
    31   16   48 1   
    32   17   18 2   
    33   17   19 1   
    34   19   20 1   
    35   20   21 1   
    36   20   50 1   
    37   20   51 1   
    38   21   22 1   
    39   21   23 1   
    40   21   52 1   
    41   22   53 1   
    42   22   54 1   
    43   22   55 1   
    44   23   24 1   
    45   23   56 1   
    46   23   57 1   
    47   24   25 1   
    48   24   26 1   
    49   24   58 1   
    50   25   59 1   
    51   25   60 1   
    52   25   79 1   
    53   26   27 1   
    54   26   28 1   
    55   26   78 1   
    56   27   61 1   
    57   28   29 1   
    58   28   62 1   
    59   28   63 1   
    60   29   30 1   
    61   29   31 1   
    62   29   64 1   
    63   30   65 1   
    64   30   66 1   
    65   30   67 1   
    66   31   32 2   
    67   31   33 1   
    68   33   34 1   
    69   33   68 1   
    70   33   80 1   
    71   34   35 1   
    72   34   69 1   
    73   34   70 1   
    74   35   36 1   
    75   35   71 1   
    76   35   72 1   
    77   36   37 1   
    78   36   73 1   
    79   36   74 1   
    80   37   75 1   
    81   37   76 1   
    82   37   77 1   
@<TRIPOS>SUBSTRUCTURE
     1 C80         1 TEMP              0 ****  ****    0 ROOT
