@<TRIPOS>MOLECULE
C80
   78    80     1     0     0
SMALL
bcc


@<TRIPOS>ATOM
      1 C1          6.3320    3.5070    1.2350 ca        1 C80     -0.112000
      2 C2          6.6550    4.6280    0.4720 ca        1 C80     -0.128500
      3 C3          7.4860    4.5020   -0.6410 ca        1 C80     -0.118000
      4 C4          7.9970    3.2510   -0.9910 ca        1 C80     -0.128500
      5 C5          7.6790    2.1290   -0.2270 ca        1 C80     -0.112000
      6 C6          6.8460    2.2530    0.8890 ca        1 C80     -0.126300
      7 C7          6.5310    1.0570    1.7420 c3        1 C80      0.088600
      8 N8          5.9410   -0.0560    1.0510 na        1 C80     -0.066400
      9 C16         4.5940   -0.1840    0.7290 cc        1 C80     -0.008100
     10 C9          6.6420   -1.1220    0.4510 ca        1 C80     -0.058200
     11 C13         6.1140   -3.1100   -0.8930 ca        1 C80     -0.079000
     12 C14         5.6840   -1.9600   -0.2310 ca        1 C80     -0.050800
     13 C15         4.3900   -1.3390   -0.0360 cd        1 C80     -0.209400
     14 C10         8.0060   -1.4480    0.4540 ca        1 C80     -0.142000
     15 C11         8.3970   -2.5980   -0.2160 ca        1 C80     -0.116000
     16 C12         7.4680   -3.4180   -0.8800 ca        1 C80     -0.147000
     17 C17         3.1330   -1.8350   -0.5430 c         1 C80      0.682300
     18 O18         2.9140   -2.8400   -1.2290 o         1 C80     -0.554000
     19 O19         2.0530   -1.0570   -0.1940 os        1 C80     -0.455900
     20 C20         0.7740   -1.4980   -0.6790 c3        1 C80      0.143400
     21 C21        -0.2510   -0.4850   -0.1700 c3        1 C80     -0.070700
     22 C22        -0.1350    0.8110   -0.9430 c3        1 C80     -0.094100
     23 C23        -1.6330   -1.1050   -0.2870 c3        1 C80     -0.118400
     24 C24        -2.7650   -0.1800    0.1890 c3        1 C80      0.135500
     25 N25        -2.6520    0.2800    1.5580 n3        1 C80     -0.900800
     26 C26        -4.1180   -0.9080   -0.0530 c3        1 C80      0.142100
     27 O27        -4.1580   -1.4250   -1.3750 oh        1 C80     -0.601800
     28 C28        -5.2970    0.0240    0.2030 c3        1 C80     -0.102400
     29 C29        -6.6240   -0.6990    0.0160 c3        1 C80     -0.138700
     30 C30        -7.0240   -1.4360    1.2770 c3        1 C80     -0.090100
     31 C31        -7.7160    0.2940   -0.3820 c         1 C80      0.654100
     32 O32        -7.5180    1.5250   -0.4110 o         1 C80     -0.609100
     33 N33        -8.9310   -0.2410   -0.7730 n         1 C80     -0.566900
     34 C34       -10.0800    0.5720   -1.0570 c3        1 C80      0.083000
     35 C35       -11.1910    0.4960   -0.0080 c3        1 C80     -0.106400
     36 C36       -12.3670    1.3470   -0.4350 c3        1 C80     -0.078400
     37 C37       -13.4810    1.2940    0.5780 c3        1 C80     -0.093100
     38 H1          5.6730    3.6120    2.1100 ha        1 C80      0.137500
     39 H2          6.2510    5.6130    0.7490 ha        1 C80      0.136000
     40 H3          7.7380    5.3870   -1.2440 ha        1 C80      0.135000
     41 H4          8.6490    3.1480   -1.8700 ha        1 C80      0.136000
     42 H5          8.0790    1.1400   -0.5030 ha        1 C80      0.137500
     43 H7C1        7.4910    0.6960    2.2170 h1        1 C80      0.069700
     44 H7C2        5.8230    1.3610    2.5680 h1        1 C80      0.069700
     45 H16         3.8500    0.5430    1.0690 h4        1 C80      0.183000
     46 H10         8.7410   -0.8150    0.9700 ha        1 C80      0.133000
     47 H13         5.3780   -3.7460   -1.4090 ha        1 C80      0.161000
     48 H12         7.8260   -4.3200   -1.3970 ha        1 C80      0.134000
     49 H11         9.4610   -2.8770   -0.2300 ha        1 C80      0.131000
     50 H201        0.8010   -1.5340   -1.7990 h1        1 C80      0.055200
     51 H202        0.5730   -2.5260   -0.2790 h1        1 C80      0.055200
     52 H21        -0.0170   -0.2800    0.9130 hc        1 C80      0.052700
     53 H221       -0.5010    0.6820   -1.9900 hc        1 C80      0.040033
     54 H222       -0.7350    1.6160   -0.4530 hc        1 C80      0.040033
     55 H223        0.9340    1.1360   -0.9770 hc        1 C80      0.040033
     56 H231       -1.8280   -1.3750   -1.3590 hc        1 C80      0.057200
     57 H232       -1.6630   -2.0570    0.3050 hc        1 C80      0.057200
     58 H24        -2.7620    0.7420   -0.4680 h1        1 C80      0.061700
     59 H251       -2.6110   -0.4970    2.1890 hn        1 C80      0.349300
     60 H252       -1.8210    0.8290    1.6650 hn        1 C80      0.349300
     61 H27        -4.1670   -0.6720   -1.9790 ho        1 C80      0.401000
     62 H281       -5.2380    0.4400    1.2420 hc        1 C80      0.076200
     63 H282       -5.2390    0.8950   -0.5040 hc        1 C80      0.076200
     64 H29        -6.5040   -1.4420   -0.8270 hc        1 C80      0.082700
     65 H301       -7.9070   -2.0950    1.0960 hc        1 C80      0.040367
     66 H302       -6.1770   -2.0760    1.6240 hc        1 C80      0.040367
     67 H303       -7.2770   -0.7150    2.0920 hc        1 C80      0.040367
     68 H33        -9.0950   -1.2050   -0.6070 hn        1 C80      0.302500
     69 H341       -9.7480    1.6450   -1.1630 h1        1 C80      0.061700
     70 H342      -10.5010    0.2380   -2.0500 h1        1 C80      0.061700
     71 H351      -11.5250   -0.5660    0.1270 hc        1 C80      0.043700
     72 H352      -10.8080    0.8550    0.9830 hc        1 C80      0.043700
     73 H361      -12.0300    2.4090   -0.5700 hc        1 C80      0.042200
     74 H362      -12.7460    0.9920   -1.4300 hc        1 C80      0.042200
     75 H371      -13.8470    0.2470    0.7080 hc        1 C80      0.033700
     76 H372      -13.1300    1.6680    1.5700 hc        1 C80      0.033700
     77 H373      -14.3380    1.9290    0.2450 hc        1 C80      0.033700
     78 H26        -4.1830   -1.8270    0.5950 h1        1 C80      0.071700
@<TRIPOS>BOND
     1    1    2 ar  
     2    1    6 ar  
     3    1   38 1   
     4    2    3 ar  
     5    2   39 1   
     6    3    4 ar  
     7    3   40 1   
     8    4    5 ar  
     9    4   41 1   
    10    5    6 ar  
    11    5   42 1   
    12    6    7 1   
    13    7    8 1   
    14    7   43 1   
    15    7   44 1   
    16    8    9 1   
    17    8   10 1   
    18    9   13 2   
    19    9   45 1   
    20   10   12 ar  
    21   10   14 ar  
    22   11   12 ar  
    23   11   16 ar  
    24   11   47 1   
    25   12   13 1   
    26   13   17 1   
    27   14   15 ar  
    28   14   46 1   
    29   15   16 ar  
    30   15   49 1   
    31   16   48 1   
    32   17   18 2   
    33   17   19 1   
    34   19   20 1   
    35   20   21 1   
    36   20   50 1   
    37   20   51 1   
    38   21   22 1   
    39   21   23 1   
    40   21   52 1   
    41   22   53 1   
    42   22   54 1   
    43   22   55 1   
    44   23   24 1   
    45   23   56 1   
    46   23   57 1   
    47   24   25 1   
    48   24   26 1   
    49   24   58 1   
    50   25   59 1   
    51   25   60 1   
    52   26   27 1   
    53   26   28 1   
    54   26   78 1   
    55   27   61 1   
    56   28   29 1   
    57   28   62 1   
    58   28   63 1   
    59   29   30 1   
    60   29   31 1   
    61   29   64 1   
    62   30   65 1   
    63   30   66 1   
    64   30   67 1   
    65   31   32 2   
    66   31   33 1   
    67   33   34 1   
    68   33   68 1   
    69   34   35 1   
    70   34   69 1   
    71   34   70 1   
    72   35   36 1   
    73   35   71 1   
    74   35   72 1   
    75   36   37 1   
    76   36   73 1   
    77   36   74 1   
    78   37   75 1   
    79   37   76 1   
    80   37   77 1   
@<TRIPOS>SUBSTRUCTURE
     1 C80         1 TEMP              0 ****  ****    0 ROOT
