@<TRIPOS>MOLECULE
C85
   35    37     1     0     0
SMALL
bcc


@<TRIPOS>ATOM
      1 O4         -0.0700    0.0570    0.0180 o         1 C85     -0.573800
      2 S2          1.2960    0.2350    0.0440 sy        1 C85      1.505200
      3 O3          2.0490   -0.1200    1.1430 o         1 C85     -0.573800
      4 N6          1.8090   -1.2150   -1.1520 n4        1 C85     -0.782500
      5 C16         1.8580    1.4310   -0.8220 ca        1 C85     -0.606500
      6 C15         1.0480    2.0940   -1.7800 ca        1 C85      0.023500
      7 C14         1.5080    3.1810   -2.4910 ca        1 C85     -0.159500
      8 C13         2.8160    3.6760   -2.2750 ca        1 C85      0.053500
      9 C18         3.6360    3.0320   -1.3190 ca        1 C85     -0.159500
     10 C17         3.1650    1.9440   -0.6170 ca        1 C85      0.023500
     11 C4          3.3030    4.8040   -2.9960 cc        1 C85      0.205200
     12 O2          2.4400    5.3750   -3.9530 os        1 C85     -0.348800
     13 C3          4.5030    5.5210   -2.9660 cd        1 C85     -0.138300
     14 C2          4.3910    6.5690   -3.9280 cd        1 C85     -0.248300
     15 C1          3.1250    6.4540   -4.5120 cc        1 C85      0.369500
     16 C6          2.4980    7.2400   -5.5270 ce        1 C85     -0.174800
     17 C7          1.2720    7.0700   -6.0600 cd        1 C85     -0.086600
     18 S1          0.0850    5.9130   -5.7370 ss        1 C85     -0.035800
     19 C9         -1.0670    6.5710   -6.9350 cc        1 C85      0.495800
     20 N3         -2.2050    6.0040   -7.0900 n2        1 C85     -0.770100
     21 N2         -0.4830    7.6960   -7.5640 n         1 C85     -0.540400
     22 C8          0.8040    8.0220   -7.1260 c         1 C85      0.701700
     23 O1          1.4520    8.9740   -7.5740 o         1 C85     -0.557500
     24 H6N1        0.9860   -1.7380   -1.4410 hn        1 C85      0.450133
     25 H6N2        2.4360   -1.8580   -0.6760 hn        1 C85      0.450133
     26 H17         3.8110    1.4660    0.1440 ha        1 C85      0.166500
     27 H15         0.0120    1.7370   -1.9420 ha        1 C85      0.166500
     28 H18         4.6540    3.4130   -1.1330 ha        1 C85      0.177500
     29 H14         0.8580    3.6840   -3.2280 ha        1 C85      0.177500
     30 H3          5.3660    5.3260   -2.3300 ha        1 C85      0.178000
     31 H2          5.1480    7.3170   -4.1610 ha        1 C85      0.191000
     32 H6          3.1240    8.0820   -5.8950 ha        1 C85      0.190000
     33 H3N1       -0.9450    8.2290   -8.2630 hn        1 C85      0.357500
     34 H3N2       -2.8430    6.3770   -7.7590 hn        1 C85      0.423400
     35 H63         2.2760   -0.8760   -1.9860 hn        1 C85      0.450133
@<TRIPOS>BOND
     1    1    2 2   
     2    2    3 2   
     3    2    4 1   
     4    2    5 1   
     5    4   24 1   
     6    4   25 1   
     7    4   35 1   
     8    5    6 ar  
     9    5   10 ar  
    10    6    7 ar  
    11    6   27 1   
    12    7    8 ar  
    13    7   29 1   
    14    8    9 ar  
    15    8   11 1   
    16    9   10 ar  
    17    9   28 1   
    18   10   26 1   
    19   11   12 1   
    20   11   13 2   
    21   12   15 1   
    22   13   14 1   
    23   13   30 1   
    24   14   15 2   
    25   14   31 1   
    26   15   16 1   
    27   16   17 2   
    28   16   32 1   
    29   17   18 1   
    30   17   22 1   
    31   18   19 1   
    32   19   20 2   
    33   19   21 1   
    34   20   34 1   
    35   21   22 1   
    36   21   33 1   
    37   22   23 2   
@<TRIPOS>SUBSTRUCTURE
     1 C85         1 TEMP              0 ****  ****    0 ROOT
