@<TRIPOS>MOLECULE
C85
   34    36     1     0     0
SMALL
bcc


@<TRIPOS>ATOM
      1 O4          5.1610   -2.0670    0.7940 o         1 C85     -0.656300
      2 S2          5.3010   -0.8590    0.0810 sy        1 C85      1.526200
      3 O3          6.2660    0.0660    0.5330 o         1 C85     -0.656300
      4 N6          5.5680   -1.1860   -1.4630 n3        1 C85     -1.026700
      5 C16         3.7960   -0.0810    0.0540 ca        1 C85     -0.374500
      6 C15         2.6080   -0.8160    0.1340 ca        1 C85     -0.019500
      7 C14         1.3700   -0.1830    0.1280 ca        1 C85     -0.135000
      8 C13         1.2980    1.2160    0.0450 ca        1 C85     -0.070500
      9 C18         2.4860    1.9640   -0.0240 ca        1 C85     -0.135000
     10 C17         3.7150    1.3150   -0.0180 ca        1 C85     -0.019500
     11 C4          0.0260    1.8960    0.0370 cc        1 C85      0.311200
     12 O2         -1.1250    1.0970    0.0220 os        1 C85     -0.348800
     13 C3         -0.3310    3.2400    0.0430 cd        1 C85     -0.236300
     14 C2         -1.7660    3.2910    0.0330 cd        1 C85     -0.212300
     15 C1         -2.2190    1.9750    0.0190 cc        1 C85      0.277500
     16 C6         -3.5460    1.4500    0.0040 ce        1 C85     -0.117800
     17 C7         -3.9280    0.1590   -0.0270 cd        1 C85     -0.132600
     18 S1         -2.9940   -1.2600   -0.0580 ss        1 C85     -0.026800
     19 C9         -4.4070   -2.3380   -0.0890 cc        1 C85      0.487800
     20 N3         -4.2450   -3.6110   -0.1210 n2        1 C85     -0.784100
     21 N2         -5.5900   -1.5580   -0.0730 n         1 C85     -0.547400
     22 C8         -5.3870   -0.1740   -0.0390 c         1 C85      0.707700
     23 O1         -6.3220    0.6370   -0.0220 o         1 C85     -0.588500
     24 H6N1        5.2970   -2.0320   -1.8980 hn        1 C85      0.448800
     25 H6N2        6.0440   -0.5760   -2.0780 hn        1 C85      0.448800
     26 H17         4.6470    1.9080   -0.0520 ha        1 C85      0.157000
     27 H15         2.6580   -1.9170    0.2230 ha        1 C85      0.157000
     28 H18         2.4410    3.0620   -0.0790 ha        1 C85      0.150500
     29 H14         0.4420   -0.7740    0.1920 ha        1 C85      0.150500
     30 H3          0.3380    4.0970    0.0580 ha        1 C85      0.169000
     31 H2         -2.3750    4.1920    0.0360 ha        1 C85      0.171000
     32 H6         -4.3360    2.2320    0.0190 ha        1 C85      0.173000
     33 H3N1       -6.5000   -1.9500   -0.0810 hn        1 C85      0.344500
     34 H3N2       -5.0570   -4.1910   -0.1380 hn        1 C85      0.406400
@<TRIPOS>BOND
     1    1    2 2   
     2    2    3 2   
     3    2    4 1   
     4    2    5 1   
     5    4   24 1   
     6    4   25 1   
     7    5    6 ar  
     8    5   10 ar  
     9    6    7 ar  
    10    6   27 1   
    11    7    8 ar  
    12    7   29 1   
    13    8    9 ar  
    14    8   11 1   
    15    9   10 ar  
    16    9   28 1   
    17   10   26 1   
    18   11   12 1   
    19   11   13 2   
    20   12   15 1   
    21   13   14 1   
    22   13   30 1   
    23   14   15 2   
    24   14   31 1   
    25   15   16 1   
    26   16   17 2   
    27   16   32 1   
    28   17   18 1   
    29   17   22 1   
    30   18   19 1   
    31   19   20 2   
    32   19   21 1   
    33   20   34 1   
    34   21   22 1   
    35   21   33 1   
    36   22   23 2   
@<TRIPOS>SUBSTRUCTURE
     1 C85         1 TEMP              0 ****  ****    0 ROOT
