@<TRIPOS>MOLECULE
C85
   35    37     1     0     0
SMALL
bcc


@<TRIPOS>ATOM
      1 O4         -0.0740    0.0550    0.0150 o         1 C85     -0.573800
      2 S2          1.2920    0.2350    0.0430 sy        1 C85      1.505200
      3 O3          2.0420   -0.1180    1.1450 o         1 C85     -0.573800
      4 N6          1.8090   -1.2150   -1.1510 nz        1 C85     -0.782500
      5 C16         1.8550    1.4310   -0.8220 ca        1 C85     -0.606500
      6 C15         1.0460    2.0930   -1.7820 ca        1 C85      0.023500
      7 C14         1.5070    3.1800   -2.4910 ca        1 C85     -0.159500
      8 C13         2.8130    3.6770   -2.2730 ca        1 C85      0.053500
      9 C18         3.6320    3.0350   -1.3140 ca        1 C85     -0.159500
     10 C17         3.1600    1.9460   -0.6130 ca        1 C85      0.023500
     11 C4          3.3010    4.8050   -2.9930 cc        1 C85      0.205200
     12 O2          2.4400    5.3760   -3.9520 os        1 C85     -0.348800
     13 C3          4.5010    5.5240   -2.9600 cd        1 C85     -0.138300
     14 C2          4.3900    6.5720   -3.9230 cd        1 C85     -0.248300
     15 C1          3.1250    6.4550   -4.5100 cc        1 C85      0.369500
     16 C6          2.5000    7.2400   -5.5260 ce        1 C85     -0.174800
     17 C7          1.2750    7.0690   -6.0620 cd        1 C85     -0.086600
     18 S1          0.0880    5.9110   -5.7410 ss        1 C85     -0.035800
     19 C9         -1.0610    6.5680   -6.9420 cc        1 C85      0.495800
     20 N3         -2.1980    6.0000   -7.0990 n2        1 C85     -0.770100
     21 N2         -0.4770    7.6930   -7.5700 ns        1 C85     -0.540400
     22 C8          0.8080    8.0210   -7.1300 c         1 C85      0.701700
     23 O1          1.4570    8.9730   -7.5760 o         1 C85     -0.557500
     24 H6N1        0.9870   -1.7380   -1.4420 hn        1 C85      0.450133
     25 H6N2        2.4360   -1.8560   -0.6720 hn        1 C85      0.450133
     26 H17         3.8050    1.4690    0.1500 ha        1 C85      0.166500
     27 H15         0.0110    1.7350   -1.9460 ha        1 C85      0.166500
     28 H18         4.6490    3.4170   -1.1250 ha        1 C85      0.177500
     29 H14         0.8580    3.6830   -3.2310 ha        1 C85      0.177500
     30 H3          5.3620    5.3300   -2.3220 ha        1 C85      0.178000
     31 H2          5.1470    7.3210   -4.1540 ha        1 C85      0.191000
     32 H6          3.1260    8.0830   -5.8930 ha        1 C85      0.190000
     33 H3N1       -0.9380    8.2260   -8.2700 hn        1 C85      0.357500
     34 H3N2       -2.8360    6.3720   -7.7710 hn        1 C85      0.423400
     35 H63         2.2780   -0.8760   -1.9830 hn        1 C85      0.450133
@<TRIPOS>BOND
     1    1    2 2   
     2    2    3 2   
     3    2    4 1   
     4    2    5 1   
     5    4   24 1   
     6    4   25 1   
     7    4   35 1   
     8    5    6 ar  
     9    5   10 ar  
    10    6    7 ar  
    11    6   27 1   
    12    7    8 ar  
    13    7   29 1   
    14    8    9 ar  
    15    8   11 1   
    16    9   10 ar  
    17    9   28 1   
    18   10   26 1   
    19   11   12 1   
    20   11   13 2   
    21   12   15 1   
    22   13   14 1   
    23   13   30 1   
    24   14   15 2   
    25   14   31 1   
    26   15   16 1   
    27   16   17 2   
    28   16   32 1   
    29   17   18 1   
    30   17   22 1   
    31   18   19 1   
    32   19   20 2   
    33   19   21 1   
    34   20   34 1   
    35   21   22 1   
    36   21   33 1   
    37   22   23 2   
@<TRIPOS>SUBSTRUCTURE
     1 C85         1 TEMP              0 ****  ****    0 ROOT
