@<TRIPOS>MOLECULE
C85
   34    26     1     0     0
SMALL
bcc


@<TRIPOS>ATOM
      1 O4         -1.8400   -6.2040    1.1500 o         1 C85     -0.935000
      2 S2         -1.4100   -5.2700    2.1530 ss        1 C85      2.865000
      3 O3         -2.6480   -4.9960    2.8290 o         1 C85     -0.935000
      4 N6         -0.3140   -5.9510    3.1710 n2        1 C85     -0.954000
      5 C16        -0.7380   -3.8030    1.4210 c1        1 C85     -0.818000
      6 C15        -0.1750   -3.8560    0.1550 c1        1 C85     -0.020000
      7 C14         0.2980   -2.6980   -0.4430 c1        1 C85     -0.139000
      8 C13         0.2070   -1.4870    0.2250 c1        1 C85      0.036000
      9 C18        -0.3560   -1.4330    1.4910 c1        1 C85     -0.131000
     10 C17        -0.8290   -2.5920    2.0890 c2        1 C85     -0.020000
     11 C4          0.6980   -0.3340   -0.3640 c1        1 C85     -0.011000
     12 O2         -0.0100    0.5260   -1.1630 os        1 C85     -0.089000
     13 C3          1.9990    0.1190   -0.2980 c1        1 C85     -0.158000
     14 C2          2.0890    1.2540   -1.0540 c1        1 C85     -0.158000
     15 C1          0.8440    1.5080   -1.5920 c1        1 C85     -0.011000
     16 C6          0.4990    2.6320   -2.5460 c1        1 C85      0.004000
     17 C7          0.1610    3.8460   -2.0640 c1        1 C85     -0.362000
     18 S1          0.0780    4.2530   -0.5340 s         1 C85      0.404000
     19 C9         -0.3700    5.8140   -0.4660 c2        1 C85     -0.023000
     20 N3         -0.5880    6.5040    0.6220 n1        1 C85     -0.253000
     21 N2         -0.5450    6.3130   -1.8880 n         1 C85     -0.387000
     22 C8         -0.2150    5.0870   -2.9050 c2        1 C85      0.352000
     23 O1         -0.2550    5.1390   -4.1190 o         1 C85     -0.308000
     24 H6N1       -0.4910   -5.9990    4.0660 hn        1 C85      0.244000
     25 H6N2        0.4630   -6.3000    2.8380 hn        1 C85      0.244000
     26 H17        -1.2250   -2.5540    2.9800 ha        1 C85      0.157000
     27 H15        -0.1110   -4.7090   -0.3150 ha        1 C85      0.157000
     28 H18        -0.4200   -0.5810    1.9610 ha        1 C85      0.157000
     29 H14         0.6940   -2.7360   -1.3340 ha        1 C85      0.144000
     30 H3          2.7270   -0.2980    0.2010 DU        1 C85      0.169667
     31 H2          2.8930    1.7900   -1.1910 DU        1 C85      0.169667
     32 H6          0.5220    2.4790   -3.5100 ha        1 C85      0.179000
     33 H3N1       -0.7930    7.1580   -2.1310 hn        1 C85      0.258000
     34 H3N2       -0.8370    7.3810    0.5650 DU        1 C85      0.169667
@<TRIPOS>BOND
     1    1    2 1   
     2    2    3 1   
     3    4   24 1   
     4    4   25 1   
     5    5    6 1   
     6    5   10 1   
     7    6   27 1   
     8    7    8 1   
     9    7   29 1   
    10    9   10 1   
    11    9   28 1   
    12   10   26 1   
    13   11   12 1   
    14   11   13 1   
    15   12   15 1   
    16   13   14 1   
    17   14   15 1   
    18   16   17 1   
    19   16   32 1   
    20   17   22 1   
    21   18   19 1   
    22   19   20 1   
    23   19   21 1   
    24   21   22 1   
    25   21   33 1   
    26   22   23 1   
@<TRIPOS>SUBSTRUCTURE
     1 C85         1 TEMP              0 ****  ****    0 ROOT
