@<TRIPOS>MOLECULE
C88
   50    53     1     0     0
SMALL
bcc


@<TRIPOS>ATOM
      1 CAJ         0.2980    0.2160   -0.0880 c3        1 C88     -0.076400
      2 CAH         1.7840    0.5330    0.0820 c3        1 C88      0.164800
      3 NAP         2.1900    0.6440    1.4690 n7        1 C88     -0.820200
      4 CAI         1.3680    1.5460    2.2510 c3        1 C88      0.164800
      5 CAK        -0.1270    1.2500    2.1360 c3        1 C88     -0.076400
      6 CAY        -0.5570    1.2120    0.6770 c3        1 C88     -0.084700
      7 CAL        -2.0450    0.8410    0.6160 c3        1 C88      0.065300
      8 NAZ        -2.6650    1.0050   -0.6870 na        1 C88      0.000200
      9 NAO        -2.8450    2.2020   -1.2810 nc        1 C88     -0.508100
     10 C4         -3.0410   -0.0470   -1.5440 ca        1 C88      0.472800
     11 N3         -3.0100   -1.4040   -1.3540 nb        1 C88     -0.742000
     12 C2         -3.4700   -2.0910   -2.4240 ca        1 C88      0.694900
     13 N1         -3.9360   -1.6410   -3.6200 nb        1 C88     -0.802000
     14 C6         -3.9800   -0.2780   -3.8070 ca        1 C88      0.760200
     15 NAC        -4.4860    0.2460   -4.9720 nv        1 C88     -0.959500
     16 C5         -3.5290    0.5840   -2.7600 ca        1 C88     -0.498500
     17 CAV        -3.3760    2.0070   -2.5150 cd        1 C88      0.429500
     18 CAS        -3.7230    3.0880   -3.4270 ca        1 C88     -0.138900
     19 CAG        -5.0350    3.2080   -3.9090 ca        1 C88     -0.097000
     20 CAR        -5.3860    4.2360   -4.7810 ca        1 C88     -0.103300
     21 CAB        -6.7680    4.3740   -5.2920 c3        1 C88     -0.043800
     22 CAU        -4.3910    5.1640   -5.1690 ca        1 C88      0.128100
     23 OAQ        -4.8160    6.1460   -6.0420 os        1 C88     -0.324900
     24 CAA        -3.8510    7.1260   -6.4060 c3        1 C88      0.111700
     25 CAE        -3.0830    5.0580   -4.6830 ca        1 C88     -0.205000
     26 CAD        -2.7560    4.0240   -3.8080 ca        1 C88     -0.071000
     27 H1          0.0880   -0.8220    0.2790 hc        1 C88      0.052700
     28 H2          0.0510    0.2510   -1.1790 hc        1 C88      0.052700
     29 H3          2.3870   -0.3010   -0.3750 h1        1 C88      0.028200
     30 H4          2.0100    1.4760   -0.5010 h1        1 C88      0.028200
     31 H5          3.1510    0.9280    1.5220 hn        1 C88      0.361800
     32 H7          1.6790    1.4330    3.3280 h1        1 C88      0.028200
     33 H8          1.5320    2.6270    1.9620 h1        1 C88      0.028200
     34 H9         -0.6910    2.0470    2.6840 hc        1 C88      0.052700
     35 H10        -0.3570    0.2660    2.6230 hc        1 C88      0.052700
     36 H11        -0.4070    2.2370    0.2340 hc        1 C88      0.066700
     37 H12        -2.6060    1.4920    1.3480 h1        1 C88      0.075200
     38 H13        -2.1750   -0.2370    0.9180 h1        1 C88      0.075200
     39 H14        -3.4610   -3.1980   -2.3180 h5        1 C88      0.052100
     40 H15        -4.3510    1.2140   -5.1420 hn        1 C88      0.442300
     41 H16        -4.6870   -0.3510   -5.7360 hn        1 C88      0.442300
     42 H17        -5.8030    2.4880   -3.5820 ha        1 C88      0.149000
     43 H18        -7.4280    3.5580   -4.9100 hc        1 C88      0.048700
     44 H19        -6.7680    4.3470   -6.4100 hc        1 C88      0.048700
     45 H20        -7.1940    5.3600   -4.9760 hc        1 C88      0.048700
     46 H21        -2.9980    6.6560   -6.9530 h1        1 C88      0.046033
     47 H22        -3.4850    7.6750   -5.5050 h1        1 C88      0.046033
     48 H23        -4.4220    7.8130   -7.0820 h1        1 C88      0.046033
     49 H24        -2.3110    5.7830   -4.9750 ha        1 C88      0.141000
     50 H25        -1.7310    3.9460   -3.4150 ha        1 C88      0.145000
@<TRIPOS>BOND
     1    1    2 1   
     2    1    6 1   
     3    1   27 1   
     4    1   28 1   
     5    2    3 1   
     6    2   29 1   
     7    2   30 1   
     8    3    4 1   
     9    3   31 1   
    10    4    5 1   
    11    4   32 1   
    12    4   33 1   
    13    5    6 1   
    14    5   34 1   
    15    5   35 1   
    16    6    7 1   
    17    6   36 1   
    18    7    8 1   
    19    7   37 1   
    20    7   38 1   
    21    8    9 1   
    22    8   10 1   
    23    9   17 2   
    24   10   11 ar  
    25   10   16 ar  
    26   11   12 ar  
    27   12   13 ar  
    28   12   39 1   
    29   13   14 ar  
    30   14   15 1   
    31   14   16 ar  
    32   15   40 1   
    33   15   41 1   
    34   16   17 1   
    35   17   18 1   
    36   18   19 ar  
    37   18   26 ar  
    38   19   20 ar  
    39   19   42 1   
    40   20   21 1   
    41   20   22 ar  
    42   21   43 1   
    43   21   44 1   
    44   21   45 1   
    45   22   23 1   
    46   22   25 ar  
    47   23   24 1   
    48   24   46 1   
    49   24   47 1   
    50   24   48 1   
    51   25   26 ar  
    52   25   49 1   
    53   26   50 1   
@<TRIPOS>SUBSTRUCTURE
     1 C88         1 TEMP              0 ****  ****    0 ROOT
