@<TRIPOS>MOLECULE
C88
   50    53     1     0     0
SMALL
bcc


@<TRIPOS>ATOM
      1 CAJ         0.3000    0.2150   -0.0910 c3        1 C88     -0.076400
      2 CAH         1.7860    0.5310    0.0740 c3        1 C88      0.164800
      3 NAP         2.1960    0.6430    1.4600 n3        1 C88     -0.820200
      4 CAI         1.3760    1.5470    2.2430 c3        1 C88      0.164800
      5 CAK        -0.1190    1.2510    2.1330 c3        1 C88     -0.076400
      6 CAY        -0.5530    1.2130    0.6740 c3        1 C88     -0.084700
      7 CAL        -2.0410    0.8430    0.6170 c3        1 C88      0.065300
      8 NAZ        -2.6640    1.0060   -0.6840 na        1 C88      0.000200
      9 NAO        -2.8450    2.2040   -1.2790 nc        1 C88     -0.508100
     10 C4         -3.0410   -0.0460   -1.5410 ca        1 C88      0.472800
     11 N3         -3.0100   -1.4020   -1.3510 nb        1 C88     -0.742000
     12 C2         -3.4700   -2.0900   -2.4200 ca        1 C88      0.694900
     13 N1         -3.9370   -1.6400   -3.6160 nb        1 C88     -0.802000
     14 C6         -3.9820   -0.2770   -3.8030 ca        1 C88      0.760200
     15 NAC        -4.4890    0.2460   -4.9680 nh        1 C88     -0.959500
     16 C5         -3.5300    0.5860   -2.7570 ca        1 C88     -0.498500
     17 CAV        -3.3780    2.0080   -2.5120 cd        1 C88      0.429500
     18 CAS        -3.7260    3.0890   -3.4240 ca        1 C88     -0.138900
     19 CAG        -5.0380    3.2090   -3.9050 ca        1 C88     -0.097000
     20 CAR        -5.3910    4.2370   -4.7770 ca        1 C88     -0.103300
     21 CAB        -6.7730    4.3740   -5.2860 c3        1 C88     -0.043800
     22 CAU        -4.3960    5.1650   -5.1650 ca        1 C88      0.128100
     23 OAQ        -4.8230    6.1460   -6.0390 os        1 C88     -0.324900
     24 CAA        -3.8580    7.1270   -6.4040 c3        1 C88      0.111700
     25 CAE        -3.0880    5.0590   -4.6800 ca        1 C88     -0.205000
     26 CAD        -2.7600    4.0250   -3.8060 ca        1 C88     -0.071000
     27 H1          0.0500    0.2490   -1.1830 hc        1 C88      0.052700
     28 H2          0.0890   -0.8230    0.2770 hc        1 C88      0.052700
     29 H3          2.3880   -0.3050   -0.3830 h1        1 C88      0.028200
     30 H4          2.0110    1.4720   -0.5100 h1        1 C88      0.028200
     31 H5          3.1570    0.9260    1.5100 hn        1 C88      0.361800
     32 H7          1.5400    2.6270    1.9520 h1        1 C88      0.028200
     33 H8          1.6900    1.4340    3.3190 h1        1 C88      0.028200
     34 H9         -0.3490    0.2690    2.6210 hc        1 C88      0.052700
     35 H10        -0.6810    2.0500    2.6810 hc        1 C88      0.052700
     36 H11        -0.4030    2.2370    0.2300 hc        1 C88      0.066700
     37 H12        -2.6000    1.4960    1.3490 h1        1 C88      0.075200
     38 H13        -2.1710   -0.2340    0.9200 h1        1 C88      0.075200
     39 H14        -3.4610   -3.1970   -2.3140 h5        1 C88      0.052100
     40 H15        -4.3550    1.2140   -5.1380 hn        1 C88      0.442300
     41 H16        -4.6920   -0.3510   -5.7310 hn        1 C88      0.442300
     42 H17        -5.8060    2.4880   -3.5770 ha        1 C88      0.149000
     43 H18        -7.1990    5.3590   -4.9690 hc        1 C88      0.048700
     44 H19        -6.7740    4.3480   -6.4050 hc        1 C88      0.048700
     45 H20        -7.4320    3.5570   -4.9050 hc        1 C88      0.048700
     46 H21        -4.4300    7.8130   -7.0790 h1        1 C88      0.046033
     47 H22        -3.0060    6.6560   -6.9510 h1        1 C88      0.046033
     48 H23        -3.4910    7.6760   -5.5030 h1        1 C88      0.046033
     49 H24        -2.3160    5.7840   -4.9730 ha        1 C88      0.141000
     50 H25        -1.7340    3.9470   -3.4130 ha        1 C88      0.145000
@<TRIPOS>BOND
     1    1    2 1   
     2    1    6 1   
     3    1   27 1   
     4    1   28 1   
     5    2    3 1   
     6    2   29 1   
     7    2   30 1   
     8    3    4 1   
     9    3   31 1   
    10    4    5 1   
    11    4   32 1   
    12    4   33 1   
    13    5    6 1   
    14    5   34 1   
    15    5   35 1   
    16    6    7 1   
    17    6   36 1   
    18    7    8 1   
    19    7   37 1   
    20    7   38 1   
    21    8    9 1   
    22    8   10 1   
    23    9   17 2   
    24   10   11 ar  
    25   10   16 ar  
    26   11   12 ar  
    27   12   13 ar  
    28   12   39 1   
    29   13   14 ar  
    30   14   15 1   
    31   14   16 ar  
    32   15   40 1   
    33   15   41 1   
    34   16   17 1   
    35   17   18 1   
    36   18   19 ar  
    37   18   26 ar  
    38   19   20 ar  
    39   19   42 1   
    40   20   21 1   
    41   20   22 ar  
    42   21   43 1   
    43   21   44 1   
    44   21   45 1   
    45   22   23 1   
    46   22   25 ar  
    47   23   24 1   
    48   24   46 1   
    49   24   47 1   
    50   24   48 1   
    51   25   26 ar  
    52   25   49 1   
    53   26   50 1   
@<TRIPOS>SUBSTRUCTURE
     1 C88         1 TEMP              0 ****  ****    0 ROOT
