@<TRIPOS>MOLECULE
C88
   50    53     1     0     0
SMALL
bcc


@<TRIPOS>ATOM
      1 CAJ         4.0190   -0.4420    0.8590 c3        1 C88     -0.076400
      2 CAH         4.7840   -1.4350    1.7320 c3        1 C88      0.164800
      3 NAP         5.8910   -2.0690    1.0420 n3        1 C88     -0.820200
      4 CAI         5.5280   -2.6590   -0.2310 c3        1 C88      0.164800
      5 CAK         4.7860   -1.6930   -1.1520 c3        1 C88     -0.076400
      6 CAY         3.5800   -1.0920   -0.4420 c3        1 C88     -0.084700
      7 CAL         2.9160   -0.0790   -1.3830 c3        1 C88      0.065300
      8 NAZ         1.6150    0.3990   -0.9490 na        1 C88      0.000200
      9 NAO         0.5210   -0.3870   -0.8690 nc        1 C88     -0.508100
     10 C4          1.3490    1.6880   -0.4470 ca        1 C88      0.472800
     11 N3          2.1660    2.7810   -0.3280 nb        1 C88     -0.742000
     12 C2          1.5310    3.8510    0.2000 ca        1 C88      0.694900
     13 N1          0.2440    3.9870    0.6200 nb        1 C88     -0.802000
     14 C6         -0.5810    2.8930    0.4880 ca        1 C88      0.760200
     15 NAC        -1.9050    2.9760    0.8460 nh        1 C88     -0.959500
     16 C5         -0.0530    1.6840   -0.0600 ca        1 C88     -0.498500
     17 CAV        -0.5080    0.3390   -0.3600 cd        1 C88      0.429500
     18 CAS        -1.8500   -0.1910   -0.1590 ca        1 C88     -0.138900
     19 CAG        -2.9490    0.4270   -0.7720 ca        1 C88     -0.097000
     20 CAR        -4.2400   -0.0650   -0.5920 ca        1 C88     -0.103300
     21 CAB        -5.4060    0.5770   -1.2380 c3        1 C88     -0.043800
     22 CAU        -4.4200   -1.2090    0.2210 ca        1 C88      0.128100
     23 OAQ        -5.7290   -1.6270    0.3580 os        1 C88     -0.324900
     24 CAA        -5.9360   -2.8090    1.1240 c3        1 C88      0.111700
     25 CAE        -3.3270   -1.8390    0.8260 ca        1 C88     -0.205000
     26 CAD        -2.0440   -1.3300    0.6280 ca        1 C88     -0.071000
     27 H1          3.1280   -0.0800    1.4310 hc        1 C88      0.052700
     28 H2          4.6680    0.4460    0.6370 hc        1 C88      0.052700
     29 H3          5.2150   -0.8850    2.6160 h1        1 C88      0.028200
     30 H4          4.0450   -2.1930    2.1300 h1        1 C88      0.028200
     31 H5          6.3080   -2.7640    1.6330 hn        1 C88      0.361800
     32 H7          6.4840   -2.9800   -0.7340 h1        1 C88      0.028200
     33 H8          4.8860   -3.5820   -0.1030 h1        1 C88      0.028200
     34 H9          5.4780   -0.8740   -1.4800 hc        1 C88      0.052700
     35 H10         4.4560   -2.2530   -2.0640 hc        1 C88      0.052700
     36 H11         2.8540   -1.9200   -0.2090 hc        1 C88      0.066700
     37 H12         3.5840    0.8210   -1.4980 h1        1 C88      0.075200
     38 H13         2.7830   -0.5630   -2.3950 h1        1 C88      0.075200
     39 H14         2.1550    4.7640    0.3200 h5        1 C88      0.052100
     40 H15        -2.2370    3.7740    1.3310 hn        1 C88      0.442300
     41 H16        -2.4260    2.1340    0.8950 hn        1 C88      0.442300
     42 H17        -2.7890    1.3060   -1.4170 ha        1 C88      0.149000
     43 H18        -5.9110   -0.1510   -1.9210 hc        1 C88      0.048700
     44 H19        -6.1510    0.8880   -0.4630 hc        1 C88      0.048700
     45 H20        -5.1020    1.4740   -1.8290 hc        1 C88      0.048700
     46 H21        -7.0440   -2.9610    1.0710 h1        1 C88      0.046033
     47 H22        -5.3970   -3.6750    0.6690 h1        1 C88      0.046033
     48 H23        -5.6100   -2.6550    2.1810 h1        1 C88      0.046033
     49 H24        -3.4630   -2.7320    1.4500 ha        1 C88      0.141000
     50 H25        -1.1810   -1.8310    1.0930 ha        1 C88      0.145000
@<TRIPOS>BOND
     1    1    2 1   
     2    1    6 1   
     3    1   27 1   
     4    1   28 1   
     5    2    3 1   
     6    2   29 1   
     7    2   30 1   
     8    3    4 1   
     9    3   31 1   
    10    4    5 1   
    11    4   32 1   
    12    4   33 1   
    13    5    6 1   
    14    5   34 1   
    15    5   35 1   
    16    6    7 1   
    17    6   36 1   
    18    7    8 1   
    19    7   37 1   
    20    7   38 1   
    21    8    9 1   
    22    8   10 1   
    23    9   17 2   
    24   10   11 ar  
    25   10   16 ar  
    26   11   12 ar  
    27   12   13 ar  
    28   12   39 1   
    29   13   14 ar  
    30   14   15 1   
    31   14   16 ar  
    32   15   40 1   
    33   15   41 1   
    34   16   17 1   
    35   17   18 1   
    36   18   19 ar  
    37   18   26 ar  
    38   19   20 ar  
    39   19   42 1   
    40   20   21 1   
    41   20   22 ar  
    42   21   43 1   
    43   21   44 1   
    44   21   45 1   
    45   22   23 1   
    46   22   25 ar  
    47   23   24 1   
    48   24   46 1   
    49   24   47 1   
    50   24   48 1   
    51   25   26 ar  
    52   25   49 1   
    53   26   50 1   
@<TRIPOS>SUBSTRUCTURE
     1 C88         1 TEMP              0 ****  ****    0 ROOT
