@<TRIPOS>MOLECULE
C88
   51    54     1     0     0
SMALL
bcc


@<TRIPOS>ATOM
      1 CAJ         0.4050    0.3720   -0.1280 c3        1 C88     -0.077900
      2 CAH         1.8560    0.7800    0.1300 c3        1 C88      0.166300
      3 NAP         2.2030    0.7520    1.5360 n3        1 C88     -0.823200
      4 CAI         1.3060    1.5250    2.3710 c3        1 C88      0.166300
      5 CAK        -0.1600    1.1380    2.1800 c3        1 C88     -0.077900
      6 CAY        -0.5480    1.2120    0.7070 c3        1 C88     -0.082700
      7 CAL        -1.9950    0.7250    0.5780 c3        1 C88      0.051300
      8 NAZ        -2.5900    0.9170   -0.7460 na        1 C88      0.040200
      9 NAO        -2.7580    2.1180   -1.3220 nc        1 C88     -0.426100
     10 C4         -3.0360   -0.1150   -1.5860 ca        1 C88      0.458800
     11 N3         -3.0620   -1.4720   -1.4270 nb        1 C88     -0.623000
     12 C2         -3.5750   -2.1420   -2.4780 ca        1 C88      0.682900
     13 N1         -4.0610   -1.6410   -3.6620 nb        1 C88     -0.699000
     14 C6         -4.0300   -0.2970   -3.8010 ca        1 C88      0.558200
     15 NAC        -4.5290    0.2940   -5.0610 n4        1 C88     -0.834300
     16 C5         -3.5380    0.5530   -2.8000 ca        1 C88     -0.432500
     17 CAV        -3.3280    1.9650   -2.5460 cd        1 C88      0.414500
     18 CAS        -3.6700    3.0460   -3.4580 ca        1 C88     -0.191900
     19 CAG        -5.0120    3.2460   -3.8270 ca        1 C88     -0.146000
     20 CAR        -5.3670    4.2670   -4.7020 ca        1 C88     -0.094300
     21 CAB        -6.7760    4.5050   -5.0830 c3        1 C88     -0.056800
     22 CAU        -4.3450    5.1130   -5.2070 ca        1 C88      0.155100
     23 OAQ        -4.7750    6.0810   -6.0810 os        1 C88     -0.312900
     24 CAA        -3.8050    7.0390   -6.5060 c3        1 C88      0.105700
     25 CAE        -3.0110    4.9330   -4.8220 ca        1 C88     -0.198000
     26 CAD        -2.6790    3.9050   -3.9410 ca        1 C88     -0.055000
     27 H1          0.1910    0.5080   -1.2180 hc        1 C88      0.051450
     28 H2          0.2690   -0.7140    0.1200 hc        1 C88      0.051450
     29 H3          2.5360    0.0540   -0.3990 h1        1 C88      0.036450
     30 H4          2.0190    1.8000   -0.3310 h1        1 C88      0.036450
     31 H5          3.1500    1.0550    1.6680 hn        1 C88      0.377800
     32 H7          1.5940    1.3310    3.4430 h1        1 C88      0.036450
     33 H8          1.4020    2.6360    2.1860 h1        1 C88      0.036450
     34 H9         -0.3310    0.0990    2.5650 hc        1 C88      0.051450
     35 H10        -0.7950    1.8400    2.7800 hc        1 C88      0.051450
     36 H11        -0.4770    2.2850    0.3730 hc        1 C88      0.072700
     37 H12        -2.6390    1.2860    1.3170 h1        1 C88      0.091700
     38 H13        -2.0460   -0.3770    0.8090 h1        1 C88      0.091700
     39 H14        -3.6150   -3.2540   -2.3890 h5        1 C88      0.099100
     40 H15        -5.4790   -0.0430   -5.2590 hn        1 C88      0.478133
     41 H16        -4.5350    1.3250   -4.9630 hn        1 C88      0.478133
     42 H17        -5.8030    2.6300   -3.3680 ha        1 C88      0.139000
     43 H18        -7.0980    5.5150   -4.7220 hc        1 C88      0.060367
     44 H19        -6.8820    4.4980   -6.1980 hc        1 C88      0.060367
     45 H20        -7.4570    3.7360   -4.6460 hc        1 C88      0.060367
     46 H21        -3.0060    6.5420   -7.1080 h1        1 C88      0.059700
     47 H22        -4.4050    7.7390   -7.1440 h1        1 C88      0.059700
     48 H23        -3.3700    7.5750   -5.6300 h1        1 C88      0.059700
     49 H24        -2.2220    5.6040   -5.1920 ha        1 C88      0.161000
     50 H25        -1.6330    3.7770   -3.6210 ha        1 C88      0.156000
     51 HAC3       -3.9120    0.0210   -5.8360 hn        1 C88      0.478133
@<TRIPOS>BOND
     1    1    2 1   
     2    1    6 1   
     3    1   27 1   
     4    1   28 1   
     5    2    3 1   
     6    2   29 1   
     7    2   30 1   
     8    3    4 1   
     9    3   31 1   
    10    4    5 1   
    11    4   32 1   
    12    4   33 1   
    13    5    6 1   
    14    5   34 1   
    15    5   35 1   
    16    6    7 1   
    17    6   36 1   
    18    7    8 1   
    19    7   37 1   
    20    7   38 1   
    21    8    9 1   
    22    8   10 1   
    23    9   17 2   
    24   10   11 ar  
    25   10   16 ar  
    26   11   12 ar  
    27   12   13 ar  
    28   12   39 1   
    29   13   14 ar  
    30   14   15 1   
    31   14   16 ar  
    32   15   40 1   
    33   15   41 1   
    34   15   51 1   
    35   16   17 1   
    36   17   18 1   
    37   18   19 ar  
    38   18   26 ar  
    39   19   20 ar  
    40   19   42 1   
    41   20   21 1   
    42   20   22 ar  
    43   21   43 1   
    44   21   44 1   
    45   21   45 1   
    46   22   23 1   
    47   22   25 ar  
    48   23   24 1   
    49   24   46 1   
    50   24   47 1   
    51   24   48 1   
    52   25   26 ar  
    53   25   49 1   
    54   26   50 1   
@<TRIPOS>SUBSTRUCTURE
     1 C88         1 TEMP              0 ****  ****    0 ROOT
