@<TRIPOS>MOLECULE
C88
   50    45     1     0     0
SMALL
bcc


@<TRIPOS>ATOM
      1 CAJ         0.8410   -1.2900    4.1220 c3        1 C88     -0.177000
      2 CAH         0.0120   -2.1500    5.0600 c3        1 C88     -0.078500
      3 NAP        -0.0350   -3.3840    4.6490 n3        1 C88     -0.290000
      4 CAI         0.9220   -4.0660    4.1310 c3        1 C88     -0.078500
      5 CAK         1.7590   -3.2130    3.1820 c3        1 C88     -0.177000
      6 CAY         1.0090   -1.9310    2.7080 c3        1 C88     -0.123000
      7 CAL         1.8010   -1.1370    1.8710 c3        1 C88      0.005000
      8 NAZ         1.0590   -0.8300    0.6400 n3        1 C88     -0.135000
      9 NAO         0.5860    0.4040    0.2670 n2        1 C88     -0.042000
     10 C4          1.1250   -1.6220   -0.4890 c1        1 C88      0.078000
     11 N3          1.4390   -2.9370   -0.6650 n1        1 C88     -0.215000
     12 C2          1.3220   -3.5010   -1.8910 c1        1 C88      0.032000
     13 N1          0.8880   -2.7500   -2.9570 n1        1 C88     -0.274000
     14 C6          0.5790   -1.4610   -2.7870 c1        1 C88      0.239000
     15 NAC        -0.0280   -1.3140   -4.0780 n3        1 C88     -0.355000
     16 C5          0.6960   -0.8830   -1.5450 c1        1 C88     -0.283000
     17 CAV         0.3600    0.3810   -1.0750 c1        1 C88     -0.023000
     18 CAS        -0.2400    1.6010   -1.7500 c1        1 C88     -0.057000
     19 CAG        -1.6040    1.8300   -1.6750 c2        1 C88     -0.098000
     20 CAR        -2.1530    2.9620   -2.2580 c1        1 C88     -0.096000
     21 CAB        -3.6380    3.2140   -2.1530 c3        1 C88     -0.169000
     22 CAU        -1.3360    3.8680   -2.9200 c1        1 C88      0.084000
     23 OAQ        -1.9210    4.9520   -3.6480 o         1 C88     -0.207000
     24 CAA        -1.5320    6.2500   -3.1760 c3        1 C88     -0.078000
     25 CAE         0.0330    3.6380   -2.9970 c1        1 C88     -0.205000
     26 CAD         0.5800    2.5000   -2.4090 c1        1 C88     -0.070000
     27 H1          0.4180   -0.4330    4.0270 hc        1 C88      0.092000
     28 H2          1.7530   -1.1590    4.5270 hc        1 C88      0.092000
     29 H3         -0.8860   -1.7980    5.0980 h1        1 C88      0.080750
     30 H4          0.4100   -2.1220    5.9710 h1        1 C88      0.080750
     31 H5         -0.4660   -3.8850    5.2510 hn        1 C88      0.148000
     32 H7          1.4910   -4.4020    4.8380 h1        1 C88      0.080750
     33 H8          0.5250   -4.8660    3.6080 h1        1 C88      0.080750
     34 H9          1.9940   -3.7600    2.3840 hc        1 C88      0.092000
     35 H10         2.5850   -2.9460    3.6400 hc        1 C88      0.092000
     36 H11         0.0920   -2.1620    2.2780 hc        1 C88      0.108000
     37 H12         2.0250   -0.3130    2.3290 h1        1 C88      0.113500
     38 H13         2.6710   -1.6440    1.6330 h1        1 C88      0.113500
     39 H14         1.5420   -4.4260   -2.0170 ha        1 C88      0.188000
     40 H15        -0.5840   -1.9600   -4.3950 hn        1 C88      0.237500
     41 H16         0.1880   -0.5640   -4.6220 hn        1 C88      0.237500
     42 H17        -2.1850    1.2120   -1.1390 ha        1 C88      0.148000
     43 H18        -3.7940    4.1300   -1.7980 hc        1 C88      0.088000
     44 H19        -4.0530    3.1310   -3.0490 hc        1 C88      0.088000
     45 H20        -4.0220    2.5790   -1.5720 hc        1 C88      0.088000
     46 H21        -0.6020    6.4250   -3.4300 h1        1 C88      0.085667
     47 H22        -2.1170    6.9370   -3.5780 h1        1 C88      0.085667
     48 H23        -1.6120    6.2810   -2.2270 h1        1 C88      0.085667
     49 H24         0.6050    4.2690   -3.4570 ha        1 C88      0.141000
     50 H25         1.5000    2.3440   -2.4590 ha        1 C88      0.147000
@<TRIPOS>BOND
     1    1    2 1   
     2    1    6 1   
     3    1   27 1   
     4    1   28 1   
     5    2    3 1   
     6    2   29 1   
     7    2   30 1   
     8    3    4 1   
     9    3   31 1   
    10    4    5 1   
    11    4   32 1   
    12    4   33 1   
    13    5    6 1   
    14    5   34 1   
    15    5   35 1   
    16    6    7 1   
    17    6   36 1   
    18    7    8 1   
    19    7   37 1   
    20    7   38 1   
    21    8    9 1   
    22    8   10 1   
    23    9   17 1   
    24   10   16 1   
    25   11   12 1   
    26   12   39 1   
    27   13   14 1   
    28   14   15 1   
    29   15   40 1   
    30   15   41 1   
    31   18   19 1   
    32   18   26 1   
    33   19   20 1   
    34   19   42 1   
    35   20   21 1   
    36   21   43 1   
    37   21   44 1   
    38   21   45 1   
    39   22   25 1   
    40   23   24 1   
    41   24   46 1   
    42   24   47 1   
    43   24   48 1   
    44   25   49 1   
    45   26   50 1   
@<TRIPOS>SUBSTRUCTURE
     1 C88         1 TEMP              0 ****  ****    0 ROOT
