@<TRIPOS>MOLECULE
C8C
   34    36     1     0     0
SMALL
bcc


@<TRIPOS>ATOM
      1 N1         -0.1320   -0.3690   -0.0630 nz        1 C8C     -0.806600
      2 C2          1.3570   -0.1520   -0.0440 cc        1 C8C      0.527800
      3 C4          3.4200    0.2250   -1.2560 c         1 C8C      0.700700
      4 C5          4.0490    0.2340    0.0670 cc        1 C8C     -0.211200
      5 C6          3.3090    0.0550    1.2060 cd        1 C8C      0.191400
      6 C7          3.9510    0.0610    2.5630 c3        1 C8C     -0.034200
      7 C8          3.5440    1.2530    3.4110 c3        1 C8C     -0.030100
      8 C9          3.9360    2.5660    2.8270 ca        1 C8C     -0.090300
      9 C10         5.2900    2.8140    2.5180 ca        1 C8C     -0.165000
     10 C11         5.7070    4.0280    1.9940 ca        1 C8C     -0.069000
     11 C12         4.7630    5.0320    1.7800 ca        1 C8C     -0.086800
     12 C13         4.8290    6.3870    1.2780 cc        1 C8C     -0.177200
     13 C14         3.5400    6.9040    1.3290 cd        1 C8C     -0.098100
     14 N15         2.6420    5.9310    1.7930 na        1 C8C     -0.194400
     15 C16         3.3770    4.7850    2.1160 ca        1 C8C     -0.052200
     16 C17         2.9680    3.5490    2.6350 ca        1 C8C     -0.147000
     17 N18         1.9230   -0.1500    1.1550 nd        1 C8C     -0.575300
     18 N3          1.9990    0.0180   -1.2650 ns        1 C8C     -0.495400
     19 O5          3.9640    0.3700   -2.3520 o         1 C8C     -0.525500
     20 H1N1       -0.4740   -0.4900    0.9030 hn        1 C8C      0.482133
     21 H1N2       -0.5920    0.4470   -0.4830 hn        1 C8C      0.482133
     22 H3          1.5200    0.0210   -2.1390 hn        1 C8C      0.351500
     23 H5          5.1380    0.4060    0.0790 ha        1 C8C      0.211000
     24 H7C1        5.0670    0.0600    2.4210 hc        1 C8C      0.080700
     25 H7C2        3.6770   -0.8840    3.1070 hc        1 C8C      0.080700
     26 H8C1        4.0450    1.1430    4.4130 hc        1 C8C      0.064700
     27 H8C2        2.4360    1.2230    3.5920 hc        1 C8C      0.064700
     28 H10         6.0350    2.0290    2.7170 ha        1 C8C      0.129000
     29 H17         1.9190    3.3700    2.9020 ha        1 C8C      0.124000
     30 H11         6.7670    4.2070    1.7580 ha        1 C8C      0.147000
     31 H13         5.7250    6.8950    0.9330 ha        1 C8C      0.169000
     32 H14         3.1780    7.8950    1.0460 h4        1 C8C      0.175000
     33 H15         1.7320    6.1200    2.1230 hn        1 C8C      0.295700
     34 H131       -0.3500   -1.2130   -0.6050 hn        1 C8C      0.482133
@<TRIPOS>BOND
     1    1    2 1   
     2    1   20 1   
     3    1   21 1   
     4    1   34 1   
     5    2   17 2   
     6    2   18 1   
     7    3    4 1   
     8    3   18 1   
     9    3   19 2   
    10    4    5 2   
    11    4   23 1   
    12    5    6 1   
    13    5   17 1   
    14    6    7 1   
    15    6   24 1   
    16    6   25 1   
    17    7    8 1   
    18    7   26 1   
    19    7   27 1   
    20    8    9 ar  
    21    8   16 ar  
    22    9   10 ar  
    23    9   28 1   
    24   10   11 ar  
    25   10   30 1   
    26   11   12 1   
    27   11   15 ar  
    28   12   13 2   
    29   12   31 1   
    30   13   14 1   
    31   13   32 1   
    32   14   15 1   
    33   14   33 1   
    34   15   16 ar  
    35   16   29 1   
    36   18   22 1   
@<TRIPOS>SUBSTRUCTURE
     1 C8C         1 TEMP              0 ****  ****    0 ROOT
