@<TRIPOS>MOLECULE
C8C
   33    27     1     0     0
SMALL
bcc


@<TRIPOS>ATOM
      1 N1         -4.4210    1.3050   -3.0570 n3        1 C8C     -0.334000
      2 C2         -3.0660    0.9270   -3.2390 c2        1 C8C      0.230000
      3 C4         -1.1690    0.4260   -4.7800 c1        1 C8C      0.344000
      4 C5         -0.2680    0.3460   -3.6210 c1        1 C8C     -0.315000
      5 C6         -0.8040    0.5270   -2.2640 c1        1 C8C      0.078000
      6 C7          0.1370    0.5850   -1.0810 c2        1 C8C     -0.114000
      7 C8         -0.1850   -0.5420   -0.1250 c3        1 C8C     -0.116000
      8 C9          0.7900   -0.5170    1.0320 c2        1 C8C     -0.060000
      9 C10         1.8850   -1.3690    0.9640 c2        1 C8C     -0.157000
     10 C11         2.6560   -1.5980    2.0940 c1        1 C8C     -0.080000
     11 C12         2.3310   -0.9680    3.3080 c1        1 C8C     -0.141500
     12 C13         2.9150   -1.0090    4.5550 c1        1 C8C     -0.141500
     13 C14         2.1880   -0.1870    5.3920 c1        1 C8C     -0.041500
     14 N15         1.1630    0.3560    4.6680 n2        1 C8C     -0.219000
     15 C16         1.2500   -0.1270    3.3750 c1        1 C8C     -0.041500
     16 C17         0.4680    0.1050    2.2300 c1        1 C8C     -0.141000
     17 N18        -2.1910    0.7620   -2.0800 n2        1 C8C     -0.270000
     18 N3         -2.5500    0.6840   -4.5850 n3        1 C8C     -0.338000
     19 O5         -0.7190    0.3410   -5.9060 o         1 C8C     -0.357000
     20 H1N1       -4.7100    1.5870   -2.2370 hn        1 C8C      0.215500
     21 H1N2       -5.0070    1.2550   -3.7560 hn        1 C8C      0.215500
     22 H3         -3.1100    0.7330   -5.3040 hn        1 C8C      0.246000
     23 H5          0.6830    0.1690   -3.7520 ha        1 C8C      0.170000
     24 H7C1        0.0300    1.4420   -0.6210 ha        1 C8C      0.104500
     25 H7C2        1.0590    0.4950   -1.3930 ha        1 C8C      0.104500
     26 H8C1       -0.1130   -1.3980   -0.5930 hc        1 C8C      0.096500
     27 H8C2       -1.0960   -0.4320    0.2150 hc        1 C8C      0.096500
     28 H10         2.1240   -1.7880    0.1160 ha        1 C8C      0.130000
     29 H17        -0.3100    0.6930    2.2810 ha        1 C8C      0.133000
     30 H11         3.4260   -2.1970    2.0460 ha        1 C8C      0.134000
     31 H13         3.7040   -1.5270    4.8020 DU        1 C8C      0.189667
     32 H14         2.3770   -0.0160    6.3350 DU        1 C8C      0.189667
     33 H15         0.5330    0.9350    4.9830 DU        1 C8C      0.189667
@<TRIPOS>BOND
     1    1    2 1   
     2    1   20 1   
     3    1   21 1   
     4    2   17 1   
     5    2   18 1   
     6    3   18 1   
     7    3   19 1   
     8    4    5 1   
     9    4   23 1   
    10    5   17 1   
    11    6    7 1   
    12    6   24 1   
    13    6   25 1   
    14    7    8 1   
    15    7   26 1   
    16    7   27 1   
    17    8    9 1   
    18    8   16 1   
    19    9   10 1   
    20    9   28 1   
    21   10   30 1   
    22   11   15 1   
    23   12   13 1   
    24   13   14 1   
    25   14   15 1   
    26   16   29 1   
    27   18   22 1   
@<TRIPOS>SUBSTRUCTURE
     1 C8C         1 TEMP              0 ****  ****    0 ROOT
