@<TRIPOS>MOLECULE
C8C
   33    35     1     0     0
SMALL
bcc


@<TRIPOS>ATOM
      1 N1         66.3460   49.5740    5.7770 nh        1 C8C     -0.892800
      2 C2         67.2870   49.2080    6.7670 cc        1 C8C      0.670800
      3 C4         68.0880   47.4940    8.3150 c         1 C8C      0.704700
      4 C5         69.2250   48.3730    8.5480 cc        1 C8C     -0.323200
      5 C6         69.3050   49.5800    7.8960 cd        1 C8C      0.214400
      6 C7         70.4660   50.4980    8.1600 c3        1 C8C     -0.028200
      7 C8         71.3360   50.7380    6.9390 c3        1 C8C     -0.030100
      8 C9         72.2430   49.5950    6.6370 ca        1 C8C     -0.067300
      9 C10        73.3260   49.3300    7.5060 ca        1 C8C     -0.158000
     10 C11        74.2140   48.2940    7.2690 ca        1 C8C     -0.080000
     11 C12        74.0320   47.4910    6.1420 ca        1 C8C     -0.095800
     12 C13        74.7320   46.3550    5.5880 cc        1 C8C     -0.186200
     13 C14        74.0580   45.9830    4.4280 cd        1 C8C     -0.109100
     14 N15        72.9710   46.8360    4.2090 na        1 C8C     -0.195400
     15 C16        72.9240   47.7640    5.2520 ca        1 C8C     -0.045200
     16 C17        72.0330   48.8190    5.5030 ca        1 C8C     -0.136000
     17 N18        68.3340   50.0260    7.0140 nd        1 C8C     -0.698300
     18 N3         67.1120   47.9690    7.4060 n         1 C8C     -0.498400
     19 O5         67.8910   46.3830    8.8400 o         1 C8C     -0.631500
     20 H1N1       66.4480   50.5070    5.4370 hn        1 C8C      0.417300
     21 H1N2       65.4030   49.3160    5.9680 hn        1 C8C      0.417300
     22 H3         66.3460   47.3740    7.1770 hn        1 C8C      0.332500
     23 H5         69.9920   48.0090    9.2410 ha        1 C8C      0.173000
     24 H7C1       70.0670   51.4860    8.5190 hc        1 C8C      0.061700
     25 H7C2       71.0910   50.0620    8.9860 hc        1 C8C      0.061700
     26 H8C1       70.6920   50.9700    6.0490 hc        1 C8C      0.057700
     27 H8C2       71.9660   51.6490    7.1360 hc        1 C8C      0.057700
     28 H10        73.4600   49.9710    8.3900 ha        1 C8C      0.126000
     29 H17        71.1940   49.0230    4.8240 ha        1 C8C      0.135000
     30 H11        75.0520   48.1010    7.9530 ha        1 C8C      0.133000
     31 H13        75.6160   45.8850    6.0070 ha        1 C8C      0.156000
     32 H14        74.2720   45.1730    3.7290 h4        1 C8C      0.163000
     33 H15        72.3050   46.7530    3.4900 hn        1 C8C      0.296700
@<TRIPOS>BOND
     1    1    2 1   
     2    1   20 1   
     3    1   21 1   
     4    2   17 2   
     5    2   18 1   
     6    3    4 1   
     7    3   18 1   
     8    3   19 2   
     9    4    5 2   
    10    4   23 1   
    11    5    6 1   
    12    5   17 1   
    13    6    7 1   
    14    6   24 1   
    15    6   25 1   
    16    7    8 1   
    17    7   26 1   
    18    7   27 1   
    19    8    9 ar  
    20    8   16 ar  
    21    9   10 ar  
    22    9   28 1   
    23   10   11 ar  
    24   10   30 1   
    25   11   12 1   
    26   11   15 ar  
    27   12   13 2   
    28   12   31 1   
    29   13   14 1   
    30   13   32 1   
    31   14   15 1   
    32   14   33 1   
    33   15   16 ar  
    34   16   29 1   
    35   18   22 1   
@<TRIPOS>SUBSTRUCTURE
     1 C8C         1 TEMP              0 ****  ****    0 ROOT
