@<TRIPOS>MOLECULE
C8C
   34    36     1     0     0
SMALL
bcc


@<TRIPOS>ATOM
      1 N1         -0.0750   -0.2410   -0.0890 n4        1 C8C     -0.806600
      2 C2          1.4230   -0.1140   -0.0460 cc        1 C8C      0.528800
      3 C4          3.5270    0.1040   -1.2260 c         1 C8C      0.701700
      4 C5          4.1300    0.1180    0.1080 cc        1 C8C     -0.213200
      5 C6          3.3600    0.0190    1.2370 cd        1 C8C      0.193400
      6 C7          3.9770    0.0340    2.6060 c3        1 C8C     -0.033200
      7 C8          3.5590    1.2320    3.4400 c3        1 C8C     -0.030100
      8 C9          3.9180    2.5430    2.8310 ca        1 C8C     -0.090300
      9 C10         5.2580    2.8060    2.4760 ca        1 C8C     -0.164000
     10 C11         5.6410    4.0200    1.9270 ca        1 C8C     -0.069000
     11 C12         4.6780    5.0090    1.7350 ca        1 C8C     -0.086800
     12 C13         4.7090    6.3600    1.2200 cc        1 C8C     -0.177200
     13 C14         3.4160    6.8620    1.3080 cd        1 C8C     -0.099100
     14 N15         2.5450    5.8810    1.8080 na        1 C8C     -0.195400
     15 C16         3.3070    4.7480    2.1190 ca        1 C8C     -0.053200
     16 C17         2.9310    3.5120    2.6620 ca        1 C8C     -0.147000
     17 N18         1.9660   -0.1090    1.1640 nd        1 C8C     -0.575300
     18 N3          2.0970   -0.0190   -1.2580 n         1 C8C     -0.495400
     19 O5          4.0990    0.1820   -2.3140 o         1 C8C     -0.525500
     20 H1N1       -0.4770    0.5900   -0.5360 hn        1 C8C      0.482133
     21 H1N2       -0.4410   -0.3180    0.8730 hn        1 C8C      0.482133
     22 H3          1.6350   -0.0130   -2.1420 hn        1 C8C      0.351500
     23 H5          5.2270    0.2280    0.1370 ha        1 C8C      0.210000
     24 H7C1        3.6880   -0.9080    3.1490 hc        1 C8C      0.080200
     25 H7C2        5.0950    0.0280    2.4850 hc        1 C8C      0.080200
     26 H8C1        2.4550    1.1830    3.6370 hc        1 C8C      0.064700
     27 H8C2        4.0760    1.1470    4.4370 hc        1 C8C      0.064700
     28 H10         6.0190    2.0320    2.6580 ha        1 C8C      0.129000
     29 H17         1.8930    3.3230    2.9660 ha        1 C8C      0.124000
     30 H11         6.6900    4.2100    1.6550 ha        1 C8C      0.147000
     31 H13         5.5860    6.8760    0.8400 ha        1 C8C      0.169000
     32 H14         3.0320    7.8460    1.0300 h4        1 C8C      0.176000
     33 H15         1.6520    6.0670    2.1820 hn        1 C8C      0.294700
     34 H131       -0.3350   -1.0830   -0.6160 hn        1 C8C      0.482133
@<TRIPOS>BOND
     1    1    2 1   
     2    1   20 1   
     3    1   21 1   
     4    1   34 1   
     5    2   17 2   
     6    2   18 1   
     7    3    4 1   
     8    3   18 1   
     9    3   19 2   
    10    4    5 2   
    11    4   23 1   
    12    5    6 1   
    13    5   17 1   
    14    6    7 1   
    15    6   24 1   
    16    6   25 1   
    17    7    8 1   
    18    7   26 1   
    19    7   27 1   
    20    8    9 ar  
    21    8   16 ar  
    22    9   10 ar  
    23    9   28 1   
    24   10   11 ar  
    25   10   30 1   
    26   11   12 1   
    27   11   15 ar  
    28   12   13 2   
    29   12   31 1   
    30   13   14 1   
    31   13   32 1   
    32   14   15 1   
    33   14   33 1   
    34   15   16 ar  
    35   16   29 1   
    36   18   22 1   
@<TRIPOS>SUBSTRUCTURE
     1 C8C         1 TEMP              0 ****  ****    0 ROOT
