@<TRIPOS>MOLECULE
C8C
   34    36     1     0     0
SMALL
bcc


@<TRIPOS>ATOM
      1 N1         -0.1270   -0.4300   -0.0670 n4        1 C8C     -0.806600
      2 C2          1.3570   -0.1780   -0.0520 cc        1 C8C      0.527800
      3 C4          3.4050    0.2620   -1.2680 c         1 C8C      0.700700
      4 C5          4.0390    0.2700    0.0520 cc        1 C8C     -0.211200
      5 C6          3.3090    0.0610    1.1920 cd        1 C8C      0.191400
      6 C7          3.9570    0.0660    2.5470 c3        1 C8C     -0.034200
      7 C8          3.5430    1.2520    3.4010 c3        1 C8C     -0.030100
      8 C9          3.9370    2.5680    2.8280 ca        1 C8C     -0.091300
      9 C10         5.2940    2.8220    2.5340 ca        1 C8C     -0.165000
     10 C11         5.7120    4.0400    2.0210 ca        1 C8C     -0.069000
     11 C12         4.7680    5.0420    1.8010 ca        1 C8C     -0.086800
     12 C13         4.8350    6.3990    1.3070 cc        1 C8C     -0.177200
     13 C14         3.5430    6.9120    1.3450 cd        1 C8C     -0.098100
     14 N15         2.6430    5.9340    1.7960 na        1 C8C     -0.194400
     15 C16         3.3790    4.7890    2.1210 ca        1 C8C     -0.052200
     16 C17         2.9680    3.5490    2.6290 ca        1 C8C     -0.147000
     17 N18         1.9280   -0.1750    1.1450 nd        1 C8C     -0.576300
     18 N3          1.9890    0.0210   -1.2730 n         1 C8C     -0.496400
     19 O5          3.9400    0.4320   -2.3640 o         1 C8C     -0.525500
     20 H1N1       -0.4610   -0.5690    0.9000 hn        1 C8C      0.482133
     21 H1N2       -0.6080    0.3780   -0.4770 hn        1 C8C      0.482133
     22 H3          1.5060    0.0220   -2.1460 hn        1 C8C      0.351500
     23 H5          5.1240    0.4680    0.0620 ha        1 C8C      0.211000
     24 H7C1        5.0720    0.0750    2.4010 hc        1 C8C      0.080200
     25 H7C2        3.6920   -0.8840    3.0880 hc        1 C8C      0.080200
     26 H8C1        4.0390    1.1360    4.4050 hc        1 C8C      0.064200
     27 H8C2        2.4340    1.2180    3.5760 hc        1 C8C      0.064200
     28 H10         6.0390    2.0380    2.7380 ha        1 C8C      0.129000
     29 H17         1.9160    3.3660    2.8850 ha        1 C8C      0.124000
     30 H11         6.7740    4.2230    1.7970 ha        1 C8C      0.147000
     31 H13         5.7320    6.9120    0.9740 ha        1 C8C      0.168000
     32 H14         3.1810    7.9040    1.0630 h4        1 C8C      0.175000
     33 H15         1.7280    6.1180    2.1120 hn        1 C8C      0.295700
     34 H131       -0.3270   -1.2740   -0.6160 hn        1 C8C      0.482133
@<TRIPOS>BOND
     1    1    2 1   
     2    1   20 1   
     3    1   21 1   
     4    1   34 1   
     5    2   17 2   
     6    2   18 1   
     7    3    4 1   
     8    3   18 1   
     9    3   19 2   
    10    4    5 2   
    11    4   23 1   
    12    5    6 1   
    13    5   17 1   
    14    6    7 1   
    15    6   24 1   
    16    6   25 1   
    17    7    8 1   
    18    7   26 1   
    19    7   27 1   
    20    8    9 ar  
    21    8   16 ar  
    22    9   10 ar  
    23    9   28 1   
    24   10   11 ar  
    25   10   30 1   
    26   11   12 1   
    27   11   15 ar  
    28   12   13 2   
    29   12   31 1   
    30   13   14 1   
    31   13   32 1   
    32   14   15 1   
    33   14   33 1   
    34   15   16 ar  
    35   16   29 1   
    36   18   22 1   
@<TRIPOS>SUBSTRUCTURE
     1 C8C         1 TEMP              0 ****  ****    0 ROOT
