@<TRIPOS>MOLECULE
C8E
   55    54     1     0     0
SMALL
bcc


@<TRIPOS>ATOM
      1 C1         -0.7880    2.0540    0.3570 c3        1 C8E     -0.093100
      2 C2          0.5510    1.3820    0.2030 c3        1 C8E     -0.080400
      3 C3          1.3310    1.3940    1.5000 c3        1 C8E     -0.079400
      4 C4          2.6760    0.7180    1.3410 c3        1 C8E     -0.079400
      5 C5          3.4550    0.7310    2.6380 c3        1 C8E     -0.078400
      6 C6          4.8000    0.0550    2.4780 c3        1 C8E     -0.078400
      7 C7          5.5750    0.0700    3.7770 c3        1 C8E     -0.083400
      8 C8          6.9200   -0.6110    3.6000 c3        1 C8E      0.132400
      9 O9          7.5770   -0.5520    4.8650 os        1 C8E     -0.428600
     10 C10         8.8720   -1.1470    4.8280 c3        1 C8E      0.126400
     11 C11         9.3860   -1.1530    6.2640 c3        1 C8E      0.127400
     12 O12         9.4170   -2.5180    6.6760 os        1 C8E     -0.429600
     13 C13         9.7170   -2.6560    8.0630 c3        1 C8E      0.127400
     14 C14         9.8850   -4.1490    8.3230 c3        1 C8E      0.127400
     15 O15        11.2830   -4.3760    8.4950 os        1 C8E     -0.428600
     16 C16        11.5980   -5.7640    8.5790 c3        1 C8E      0.127400
     17 C17        13.0800   -5.8510    8.9270 c3        1 C8E      0.128400
     18 O18        13.1530   -6.2640   10.2910 os        1 C8E     -0.438600
     19 C19        14.4840   -6.2170   10.8010 c3        1 C8E      0.087400
     20 C20        14.4070   -6.7390   12.2320 c3        1 C8E      0.131400
     21 O21        14.0530   -8.1050   12.2700 oh        1 C8E     -0.600800
     22 H11        -0.6620    3.1190    0.6700 hc        1 C8E      0.032700
     23 H12        -1.3470    2.0350   -0.6100 hc        1 C8E      0.032700
     24 H13        -1.4040    1.5340    1.1310 hc        1 C8E      0.032700
     25 H21         0.4040    0.3220   -0.1350 hc        1 C8E      0.038700
     26 H22         1.1450    1.9030   -0.5950 hc        1 C8E      0.038700
     27 H31         1.4810    2.4530    1.8390 hc        1 C8E      0.039700
     28 H32         0.7400    0.8730    2.2990 hc        1 C8E      0.039700
     29 H41         2.5270   -0.3410    1.0020 hc        1 C8E      0.039200
     30 H42         3.2670    1.2400    0.5420 hc        1 C8E      0.039200
     31 H51         2.8650    0.2090    3.4370 hc        1 C8E      0.041700
     32 H52         3.6050    1.7900    2.9770 hc        1 C8E      0.041700
     33 H61         4.6500   -1.0040    2.1400 hc        1 C8E      0.040200
     34 H62         5.3900    0.5770    1.6800 hc        1 C8E      0.040200
     35 H71         4.9960   -0.4560    4.5800 hc        1 C8E      0.054700
     36 H72         5.7350    1.1250    4.1210 hc        1 C8E      0.054700
     37 H81         6.7920   -1.6820    3.2920 h1        1 C8E      0.025700
     38 H82         7.5410   -0.0810    2.8290 h1        1 C8E      0.025700
     39 H101        8.8100   -2.1910    4.4220 h1        1 C8E      0.042200
     40 H102        9.5430   -0.5290    4.1730 h1        1 C8E      0.042200
     41 H111       10.4250   -0.7310    6.3120 h1        1 C8E      0.043700
     42 H112        8.7070   -0.5600    6.9320 h1        1 C8E      0.043700
     43 H131        8.8650   -2.2470    8.6680 h1        1 C8E      0.043700
     44 H132       10.6590   -2.0990    8.3140 h1        1 C8E      0.043700
     45 H141        9.4960   -4.7500    7.4590 h1        1 C8E      0.044200
     46 H142        9.3470   -4.4460    9.2620 h1        1 C8E      0.044200
     47 H161       11.4010   -6.2480    7.5860 h1        1 C8E      0.043200
     48 H162       10.9720   -6.2570    9.3690 h1        1 C8E      0.043200
     49 H171       13.5900   -6.6170    8.2850 h1        1 C8E      0.045200
     50 H172       13.5790   -4.8540    8.7960 h1        1 C8E      0.045200
     51 H191       14.8610   -5.1610   10.7860 h1        1 C8E      0.039200
     52 H192       15.1510   -6.8670   10.1760 h1        1 C8E      0.039200
     53 H201       15.4210   -6.6860   12.7110 h1        1 C8E      0.053200
     54 H202       13.6700   -6.1320   12.8230 h1        1 C8E      0.053200
     55 HO2        13.2100   -8.1900   11.8050 ho        1 C8E      0.412000
@<TRIPOS>BOND
     1    1    2 1   
     2    1   22 1   
     3    1   23 1   
     4    1   24 1   
     5    2    3 1   
     6    2   25 1   
     7    2   26 1   
     8    3    4 1   
     9    3   27 1   
    10    3   28 1   
    11    4    5 1   
    12    4   29 1   
    13    4   30 1   
    14    5    6 1   
    15    5   31 1   
    16    5   32 1   
    17    6    7 1   
    18    6   33 1   
    19    6   34 1   
    20    7    8 1   
    21    7   35 1   
    22    7   36 1   
    23    8    9 1   
    24    8   37 1   
    25    8   38 1   
    26    9   10 1   
    27   10   11 1   
    28   10   39 1   
    29   10   40 1   
    30   11   12 1   
    31   11   41 1   
    32   11   42 1   
    33   12   13 1   
    34   13   14 1   
    35   13   43 1   
    36   13   44 1   
    37   14   15 1   
    38   14   45 1   
    39   14   46 1   
    40   15   16 1   
    41   16   17 1   
    42   16   47 1   
    43   16   48 1   
    44   17   18 1   
    45   17   49 1   
    46   17   50 1   
    47   18   19 1   
    48   19   20 1   
    49   19   51 1   
    50   19   52 1   
    51   20   21 1   
    52   20   53 1   
    53   20   54 1   
    54   21   55 1   
@<TRIPOS>SUBSTRUCTURE
     1 C8E         1 TEMP              0 ****  ****    0 ROOT
