@<TRIPOS>MOLECULE
C8E
   55    54     1     0     0
SMALL
bcc


@<TRIPOS>ATOM
      1 C1         -0.7760    2.0830    0.3690 c3        1 C8E     -0.093100
      2 C2          0.5460    1.3770    0.2130 c3        1 C8E     -0.080400
      3 C3          1.3490    1.4120    1.4960 c3        1 C8E     -0.079400
      4 C4          2.6760    0.7020    1.3350 c3        1 C8E     -0.079400
      5 C5          3.4770    0.7380    2.6190 c3        1 C8E     -0.078400
      6 C6          4.8040    0.0270    2.4570 c3        1 C8E     -0.078400
      7 C7          5.6020    0.0650    3.7420 c3        1 C8E     -0.083400
      8 C8          6.9280   -0.6510    3.5640 c3        1 C8E      0.132400
      9 O9          7.6080   -0.5690    4.8160 os        1 C8E     -0.428600
     10 C10         8.8890   -1.1940    4.7760 c3        1 C8E      0.126400
     11 C11         9.4260   -1.1690    6.2030 c3        1 C8E      0.127400
     12 O12         9.4280   -2.5200    6.6570 os        1 C8E     -0.429600
     13 C13         9.7470   -2.6230    8.0440 c3        1 C8E      0.127400
     14 C14         9.8800   -4.1120    8.3480 c3        1 C8E      0.127400
     15 O15        11.2730   -4.3700    8.5080 os        1 C8E     -0.428600
     16 C16        11.5530   -5.7630    8.6300 c3        1 C8E      0.127400
     17 C17        13.0370   -5.8780    8.9620 c3        1 C8E      0.128400
     18 O18        13.1190   -6.2500   10.3370 os        1 C8E     -0.438600
     19 C19        14.4570   -6.2240   10.8280 c3        1 C8E      0.087400
     20 C20        14.3860   -6.6990   12.2760 c3        1 C8E      0.131400
     21 O21        13.9960   -8.0540   12.3610 oh        1 C8E     -0.600800
     22 H11        -0.6220    3.1530    0.6460 hc        1 C8E      0.032700
     23 H12        -1.3510    2.0450   -0.5880 hc        1 C8E      0.032700
     24 H13        -1.3890    1.6000    1.1680 hc        1 C8E      0.032700
     25 H21         0.3710    0.3110   -0.0900 hc        1 C8E      0.038700
     26 H22         1.1370    1.8600   -0.6100 hc        1 C8E      0.038700
     27 H31         1.5270    2.4770    1.7990 hc        1 C8E      0.039700
     28 H32         0.7610    0.9280    2.3200 hc        1 C8E      0.039700
     29 H41         2.4980   -0.3640    1.0320 hc        1 C8E      0.039200
     30 H42         3.2640    1.1850    0.5110 hc        1 C8E      0.039200
     31 H51         2.8900    0.2540    3.4430 hc        1 C8E      0.041700
     32 H52         3.6560    1.8030    2.9210 hc        1 C8E      0.041700
     33 H61         4.6250   -1.0390    2.1550 hc        1 C8E      0.040200
     34 H62         5.3920    0.5110    1.6330 hc        1 C8E      0.040200
     35 H71         5.0260   -0.4230    4.5710 hc        1 C8E      0.054700
     36 H72         5.7910    1.1260    4.0500 hc        1 C8E      0.054700
     37 H81         6.7710   -1.7290    3.2910 h1        1 C8E      0.025700
     38 H82         7.5480   -0.1600    2.7660 h1        1 C8E      0.025700
     39 H101        8.7960   -2.2480    4.4030 h1        1 C8E      0.042200
     40 H102        9.5620   -0.6120    4.0920 h1        1 C8E      0.042200
     41 H111       10.4760   -0.7730    6.2210 h1        1 C8E      0.043700
     42 H112        8.7740   -0.5370    6.8630 h1        1 C8E      0.043700
     43 H131        8.9150   -2.1730    8.6470 h1        1 C8E      0.043700
     44 H132       10.7070   -2.0840    8.2630 h1        1 C8E      0.043700
     45 H141        9.4630   -4.7290    7.5090 h1        1 C8E      0.044200
     46 H142        9.3480   -4.3640    9.3030 h1        1 C8E      0.044200
     47 H161       11.3310   -6.2710    7.6550 h1        1 C8E      0.043200
     48 H162       10.9260   -6.2150    9.4440 h1        1 C8E      0.043200
     49 H171       13.5190   -6.6760    8.3370 h1        1 C8E      0.045200
     50 H172       13.5600   -4.8990    8.7940 h1        1 C8E      0.045200
     51 H191       14.8610   -5.1790   10.7750 h1        1 C8E      0.039200
     52 H192       15.0980   -6.9100   10.2150 h1        1 C8E      0.039200
     53 H201       15.4070   -6.6590   12.7400 h1        1 C8E      0.053200
     54 H202       13.6740   -6.0550   12.8570 h1        1 C8E      0.053200
     55 HO2        13.1450   -8.1300   11.9090 ho        1 C8E      0.412000
@<TRIPOS>BOND
     1    1    2 1   
     2    1   22 1   
     3    1   23 1   
     4    1   24 1   
     5    2    3 1   
     6    2   25 1   
     7    2   26 1   
     8    3    4 1   
     9    3   27 1   
    10    3   28 1   
    11    4    5 1   
    12    4   29 1   
    13    4   30 1   
    14    5    6 1   
    15    5   31 1   
    16    5   32 1   
    17    6    7 1   
    18    6   33 1   
    19    6   34 1   
    20    7    8 1   
    21    7   35 1   
    22    7   36 1   
    23    8    9 1   
    24    8   37 1   
    25    8   38 1   
    26    9   10 1   
    27   10   11 1   
    28   10   39 1   
    29   10   40 1   
    30   11   12 1   
    31   11   41 1   
    32   11   42 1   
    33   12   13 1   
    34   13   14 1   
    35   13   43 1   
    36   13   44 1   
    37   14   15 1   
    38   14   45 1   
    39   14   46 1   
    40   15   16 1   
    41   16   17 1   
    42   16   47 1   
    43   16   48 1   
    44   17   18 1   
    45   17   49 1   
    46   17   50 1   
    47   18   19 1   
    48   19   20 1   
    49   19   51 1   
    50   19   52 1   
    51   20   21 1   
    52   20   53 1   
    53   20   54 1   
    54   21   55 1   
@<TRIPOS>SUBSTRUCTURE
     1 C8E         1 TEMP              0 ****  ****    0 ROOT
