@<TRIPOS>MOLECULE
C8M
   51    53     1     0     0
SMALL
bcc


@<TRIPOS>ATOM
      1 N1          2.5400   -4.0270    1.9960 nz        1 C8M     -0.768400
      2 C1          3.2740   -2.7450    1.8090 c         1 C8M      0.555100
      3 C4          3.0150   -1.6510    2.8130 c3        1 C8M     -0.182400
      4 C5          3.4570   -0.2820    2.2910 c3        1 C8M      0.106800
      5 N2          4.6850    0.2890    2.9310 nx        1 C8M     -0.682400
      6 C6          4.6260    1.7800    2.9020 c3        1 C8M      0.081100
      7 C5'         5.9510   -0.2010    2.2800 c3        1 C8M      0.085800
      8 C4'         7.1510   -0.1240    3.2400 c3        1 C8M      0.066100
      9 O4'         6.8440   -0.8650    4.4160 os        1 C8M     -0.447600
     10 C1'         7.6800   -2.0410    4.5400 c3        1 C8M      0.227800
     11 N5          6.8540   -3.2160    4.3430 na        1 C8M     -0.267000
     12 C11         5.8020   -3.4490    5.2720 ca        1 C8M      0.448800
     13 N4          5.6870   -3.1080    6.5830 nb        1 C8M     -0.651000
     14 C10         4.5360   -3.5440    7.1530 ca        1 C8M      0.686900
     15 N3          3.5070   -4.2410    6.5850 nb        1 C8M     -0.699000
     16 C9          3.6180   -4.5820    5.2740 ca        1 C8M      0.632200
     17 N7          2.5790   -5.2600    4.5670 nv        1 C8M     -0.936500
     18 C12         4.7790   -4.1900    4.5460 ca        1 C8M     -0.226200
     19 N6          5.1950   -4.4020    3.2240 nc        1 C8M     -0.632100
     20 C7          6.4150   -3.8330    3.1220 cd        1 C8M      0.451800
     21 C2'         8.8810   -1.8370    3.5700 c3        1 C8M      0.093100
     22 O2'         9.9370   -1.3510    4.3700 oh        1 C8M     -0.576800
     23 C3'         8.4370   -0.7070    2.6030 c3        1 C8M      0.120100
     24 O3'         9.4010    0.2900    2.4270 oh        1 C8M     -0.557800
     25 C8          7.2760   -3.9770    1.9150 c3        1 C8M     -0.136400
     26 O1          4.0470   -2.6750    0.8620 o         1 C8M     -0.422100
     27 HN1         2.5130   -4.3260    3.0220 hn        1 C8M      0.492133
     28 HN1A        3.0180   -4.7700    1.4650 hn        1 C8M      0.492133
     29 H4          3.5310   -1.9450    3.7730 hc        1 C8M      0.130200
     30 H4A         1.9120   -1.5920    3.0410 hc        1 C8M      0.130200
     31 H5          3.6370   -0.3180    1.1750 hx        1 C8M      0.131200
     32 H5A         2.6110    0.4470    2.4800 hx        1 C8M      0.131200
     33 H6          5.5760    2.1930    3.3400 hx        1 C8M      0.117033
     34 H6A         4.5170    2.1350    1.8420 hx        1 C8M      0.117033
     35 H6B         3.7530    2.1340    3.5150 hx        1 C8M      0.117033
     36 H5'         5.7820   -1.2700    1.9610 hx        1 C8M      0.113200
     37 H5'A        6.1620    0.4290    1.3690 hx        1 C8M      0.113200
     38 H4'         7.3350    0.9370    3.5730 h1        1 C8M      0.115700
     39 H1'         8.0310   -2.0380    5.6220 h2        1 C8M      0.175700
     40 H10         4.4110   -3.3120    8.2390 h5        1 C8M      0.102100
     41 HN7         1.7380   -5.3500    5.1150 hn        1 C8M      0.421800
     42 HN7A        2.9030   -6.1770    4.2980 hn        1 C8M      0.421800
     43 H2'         9.1690   -2.7670    3.0200 h1        1 C8M      0.096700
     44 HO2'       10.7510   -1.8040    4.1080 ho        1 C8M      0.453000
     45 H3'         8.2430   -1.0990    1.5670 h1        1 C8M      0.096700
     46 HO3'        9.8290    0.4770    3.2810 ho        1 C8M      0.448000
     47 H8          6.7450   -4.5670    1.1230 hc        1 C8M      0.085367
     48 H8A         7.5430   -2.9790    1.4900 hc        1 C8M      0.085367
     49 H8B         8.2110   -4.5340    2.1860 hc        1 C8M      0.085367
     50 H13         1.5810   -3.9360    1.6480 hn        1 C8M      0.492133
     51 H21         4.7200   -0.0080    3.9210 hn        1 C8M      0.466800
@<TRIPOS>BOND
     1    1    2 1   
     2    1   27 1   
     3    1   28 1   
     4    1   50 1   
     5    2    3 1   
     6    2   26 2   
     7    3    4 1   
     8    3   29 1   
     9    3   30 1   
    10    4    5 1   
    11    4   31 1   
    12    4   32 1   
    13    5    6 1   
    14    5    7 1   
    15    5   51 1   
    16    6   33 1   
    17    6   34 1   
    18    6   35 1   
    19    7    8 1   
    20    7   36 1   
    21    7   37 1   
    22    8    9 1   
    23    8   23 1   
    24    8   38 1   
    25    9   10 1   
    26   10   11 1   
    27   10   21 1   
    28   10   39 1   
    29   11   12 1   
    30   11   20 1   
    31   12   13 ar  
    32   12   18 ar  
    33   13   14 ar  
    34   14   15 ar  
    35   14   40 1   
    36   15   16 ar  
    37   16   17 1   
    38   16   18 ar  
    39   17   41 1   
    40   17   42 1   
    41   18   19 1   
    42   19   20 2   
    43   20   25 1   
    44   21   22 1   
    45   21   23 1   
    46   21   43 1   
    47   22   44 1   
    48   23   24 1   
    49   23   45 1   
    50   24   46 1   
    51   25   47 1   
    52   25   48 1   
    53   25   49 1   
@<TRIPOS>SUBSTRUCTURE
     1 C8M         1 TEMP              0 ****  ****    0 ROOT
