@<TRIPOS>MOLECULE
C8M
   49    46     1     0     0
SMALL
bcc


@<TRIPOS>ATOM
      1 N1         -5.2400    3.5300   -4.0800 n         1 C8M     -0.440000
      2 C1         -4.1090    2.5780   -3.9050 c2        1 C8M      0.300000
      3 C4         -3.3690    2.5180   -2.6010 c3        1 C8M     -0.181000
      4 C5         -1.8270    2.2060   -2.8800 c3        1 C8M     -0.061000
      5 N2         -1.1140    2.1910   -1.6460 n3        1 C8M     -0.264000
      6 C6         -0.5830    3.5320   -1.3700 c3        1 C8M     -0.124000
      7 C5'         0.0180    1.2180   -1.7340 c3        1 C8M     -0.063000
      8 C4'         0.7180    1.1320   -0.3840 c3        1 C8M     -0.005000
      9 O4'         0.2460    0.1410    0.3050 os        1 C8M     -0.263000
     10 C1'         1.4730   -0.4340    1.1520 c3        1 C8M      0.166000
     11 N5          1.2310   -1.7830    1.5010 n3        1 C8M     -0.192000
     12 C11         1.2960   -2.0250    2.8410 c1        1 C8M      0.077000
     13 N4          1.7670   -1.2670    3.8920 n1        1 C8M     -0.206000
     14 C10         1.7520   -1.7690    5.1530 c1        1 C8M      0.022000
     15 N3          1.2660   -3.0360    5.3850 n1        1 C8M     -0.268000
     16 C9          0.8020   -3.7830    4.3550 c1        1 C8M      0.235000
     17 N7          0.3490   -5.0090    4.9980 n2        1 C8M     -0.355000
     18 C12         0.8170   -3.2710    3.0660 c1        1 C8M     -0.234000
     19 N6          0.4560   -3.8020    1.8720 n1        1 C8M     -0.123000
     20 C7          0.7130   -2.8770    0.9050 c1        1 C8M      0.024000
     21 C2'         2.5440   -0.3490    0.3670 c3        1 C8M     -0.043000
     22 O2'         3.7550   -0.0490    1.1800 oh        1 C8M     -0.313000
     23 C3'         2.2470    0.8060   -0.5800 c3        1 C8M     -0.029000
     24 O3'         2.9960    1.8710   -0.2600 oh        1 C8M     -0.313000
     25 C8          0.1750   -3.7680   -0.2380 c2        1 C8M     -0.161000
     26 O1         -3.7990    1.8200   -4.8180 o         1 C8M     -0.380000
     27 HN1        -5.5220    3.7620   -4.9330 hn        1 C8M      0.225000
     28 HN1A       -5.6460    3.9370   -3.3160 hn        1 C8M      0.225000
     29 H4         -3.4480    3.3600   -2.1490 hc        1 C8M      0.110000
     30 H4A        -3.7630    1.7860   -2.0230 hc        1 C8M      0.110000
     31 H5         -1.4420    2.9160   -3.4810 h1        1 C8M      0.091000
     32 H5A        -1.7470    1.3480   -3.3070 h1        1 C8M      0.091000
     33 H6         -0.5410    3.6700   -0.4170 h1        1 C8M      0.076000
     34 H6A         0.3230    3.6130   -1.7530 h1        1 C8M      0.076000
     35 H6B        -1.1920    4.2320   -1.7870 h1        1 C8M      0.076000
     36 H5'         0.6660    1.5240   -2.4230 h1        1 C8M      0.081500
     37 H5'A       -0.3350    0.3160   -1.9840 h1        1 C8M      0.081500
     38 H4'         0.6110    1.9690    0.1070 h1        1 C8M      0.107000
     39 H1'         1.6080    0.1120    1.9740 h2        1 C8M      0.167000
     40 H10         2.0970   -1.2150    5.9180 ha        1 C8M      0.189000
     41 HN7         0.9640   -5.6830    5.2040 hn        1 C8M      0.240500
     42 HN7A       -0.5590   -5.1440    5.1510 hn        1 C8M      0.240500
     43 H2'         2.6630   -1.1610   -0.1240 h1        1 C8M      0.113000
     44 HO2'        4.5120   -0.3260    0.7230 ho        1 C8M      0.221000
     45 H3'         2.4160    0.5380   -1.5010 h1        1 C8M      0.136000
     46 HO3'        3.5900    2.0200   -0.9040 ho        1 C8M      0.217000
     47 H8         -0.8450   -3.7730   -0.2150 ha        1 C8M      0.106000
     48 H8A         0.4870   -3.4060   -1.1170 ha        1 C8M      0.106000
     49 H8B         0.5210   -4.7160   -0.1190 ha        1 C8M      0.106000
@<TRIPOS>BOND
     1    1    2 1   
     2    1   27 1   
     3    1   28 1   
     4    2    3 1   
     5    2   26 1   
     6    3    4 1   
     7    3   29 1   
     8    3   30 1   
     9    4    5 1   
    10    4   31 1   
    11    4   32 1   
    12    5    6 1   
    13    5    7 1   
    14    6   33 1   
    15    6   34 1   
    16    6   35 1   
    17    7    8 1   
    18    7   36 1   
    19    7   37 1   
    20    8    9 1   
    21    8   23 1   
    22    8   38 1   
    23    9   10 1   
    24   10   11 1   
    25   10   21 1   
    26   10   39 1   
    27   11   12 1   
    28   11   20 1   
    29   12   18 1   
    30   13   14 1   
    31   14   40 1   
    32   15   16 1   
    33   16   18 1   
    34   17   41 1   
    35   17   42 1   
    36   19   20 1   
    37   21   22 1   
    38   21   23 1   
    39   21   43 1   
    40   22   44 1   
    41   23   24 1   
    42   23   45 1   
    43   24   46 1   
    44   25   47 1   
    45   25   48 1   
    46   25   49 1   
@<TRIPOS>SUBSTRUCTURE
     1 C8M         1 TEMP              0 ****  ****    0 ROOT
