@<TRIPOS>MOLECULE
C8M
   52    54     1     0     0
SMALL
bcc


@<TRIPOS>ATOM
      1 N1          0.5890    2.9200    1.2780 n4        1 C8M     -0.752400
      2 C1          1.1980    1.5970    1.6600 c         1 C8M      0.538100
      3 C4          2.5830    1.3070    1.1420 c3        1 C8M     -0.178400
      4 C5          2.9250   -0.1570    1.4560 c3        1 C8M      0.104800
      5 N2          4.3420   -0.5340    1.1610 n4        1 C8M     -0.683400
      6 C6          4.5980   -0.5930   -0.3050 c3        1 C8M      0.077100
      7 C5'         4.6760   -1.8630    1.7950 c3        1 C8M      0.108800
      8 C4'         5.1060   -1.6960    3.2560 c3        1 C8M      0.090100
      9 O4'         5.3880   -2.9920    3.7790 os        1 C8M     -0.402600
     10 C1'         6.3040   -2.8280    4.9080 c3        1 C8M      0.225800
     11 N5          7.1330   -3.9930    5.0360 na        1 C8M     -0.281000
     12 C11         6.9930   -4.9360    6.0780 ca        1 C8M      0.464800
     13 N4          6.2290   -4.9340    7.1970 nb        1 C8M     -0.633000
     14 C10         6.4050   -6.0270    7.9870 ca        1 C8M      0.694900
     15 N3          7.2410   -7.0880    7.7920 nb        1 C8M     -0.655000
     16 C9          8.0040   -7.0770    6.6710 ca        1 C8M      0.543200
     17 N7          8.9350   -8.1930    6.4240 n4        1 C8M     -0.819300
     18 C12         7.9330   -6.0190    5.7420 ca        1 C8M     -0.128200
     19 N6          8.5720   -5.7430    4.5290 nc        1 C8M     -0.556100
     20 C7          8.0790   -4.5550    4.1180 cd        1 C8M      0.506800
     21 C2'         7.0630   -1.4690    4.6770 c3        1 C8M      0.093100
     22 O2'         6.7690   -0.6130    5.7550 oh        1 C8M     -0.591800
     23 C3'         6.4010   -0.8660    3.4170 c3        1 C8M      0.104100
     24 O3'         6.0550    0.4960    3.4660 oh        1 C8M     -0.635800
     25 C8          8.4930   -3.8600    2.8690 c3        1 C8M     -0.133400
     26 O1          0.5120    0.8790    2.3670 o         1 C8M     -0.355100
     27 HN1        -0.3350    3.0220    1.7350 hn        1 C8M      0.492467
     28 HN1A        0.4540    2.9770    0.2600 hn        1 C8M      0.492467
     29 H4          2.6260    1.4960    0.0330 hc        1 C8M      0.126200
     30 H4A         3.3090    2.0070    1.6450 hc        1 C8M      0.126200
     31 H5          2.7360   -0.3510    2.5560 hx        1 C8M      0.131700
     32 H5A         2.2480   -0.8390    0.8590 hx        1 C8M      0.131700
     33 H6          4.3330    0.3930   -0.7720 hx        1 C8M      0.115700
     34 H6A         3.9840   -1.4130   -0.7680 hx        1 C8M      0.115700
     35 H6B         5.6900   -0.7990   -0.4840 hx        1 C8M      0.115700
     36 H5'         5.5160   -2.3350    1.2080 hx        1 C8M      0.128700
     37 H5'A        3.7770   -2.5430    1.7340 hx        1 C8M      0.128700
     38 H4'         4.2780   -1.2400    3.8700 h1        1 C8M      0.084700
     39 H1'         5.6550   -2.7360    5.8360 h2        1 C8M      0.145700
     40 H10         5.7900   -6.0680    8.9210 h5        1 C8M      0.117100
     41 HN7         9.8990   -7.8550    6.5520 hn        1 C8M      0.487800
     42 HN7A        8.8150   -8.5190    5.4560 hn        1 C8M      0.487800
     43 H2'         8.1650   -1.6080    4.5290 h1        1 C8M      0.098700
     44 HO2'        7.5120   -0.6300    6.3760 ho        1 C8M      0.460000
     45 H3'         7.0840   -0.9950    2.5320 h1        1 C8M      0.080700
     46 HO3'        6.2460    0.8530    4.3510 ho        1 C8M      0.477000
     47 H8          7.6710   -3.2030    2.4920 hc        1 C8M      0.083700
     48 H8A         8.7520   -4.6120    2.0790 hc        1 C8M      0.083700
     49 H8B         9.4050   -3.2400    3.0750 hc        1 C8M      0.083700
     50 H13         1.1900    3.6990    1.5780 hn        1 C8M      0.492467
     51 H21         4.9660    0.1820    1.5790 hn        1 C8M      0.478800
     52 H73         8.7600   -8.9740    7.0760 hn        1 C8M      0.487800
@<TRIPOS>BOND
     1    1    2 1   
     2    1   27 1   
     3    1   28 1   
     4    1   50 1   
     5    2    3 1   
     6    2   26 2   
     7    3    4 1   
     8    3   29 1   
     9    3   30 1   
    10    4    5 1   
    11    4   31 1   
    12    4   32 1   
    13    5    6 1   
    14    5    7 1   
    15    5   51 1   
    16    6   33 1   
    17    6   34 1   
    18    6   35 1   
    19    7    8 1   
    20    7   36 1   
    21    7   37 1   
    22    8    9 1   
    23    8   23 1   
    24    8   38 1   
    25    9   10 1   
    26   10   11 1   
    27   10   21 1   
    28   10   39 1   
    29   11   12 1   
    30   11   20 1   
    31   12   13 ar  
    32   12   18 ar  
    33   13   14 ar  
    34   14   15 ar  
    35   14   40 1   
    36   15   16 ar  
    37   16   17 1   
    38   16   18 ar  
    39   17   41 1   
    40   17   42 1   
    41   17   52 1   
    42   18   19 1   
    43   19   20 2   
    44   20   25 1   
    45   21   22 1   
    46   21   23 1   
    47   21   43 1   
    48   22   44 1   
    49   23   24 1   
    50   23   45 1   
    51   24   46 1   
    52   25   47 1   
    53   25   48 1   
    54   25   49 1   
@<TRIPOS>SUBSTRUCTURE
     1 C8M         1 TEMP              0 ****  ****    0 ROOT
