@<TRIPOS>MOLECULE
C8M
   49    51     1     0     0
SMALL
bcc


@<TRIPOS>ATOM
      1 N1         -6.4940    3.0680   -0.4740 n         1 C8M     -0.680000
      2 C1         -5.9570    1.8970    0.0020 c         1 C8M      0.656100
      3 C4         -4.6700    1.4060   -0.6320 c3        1 C8M     -0.152400
      4 C5         -4.3110    0.0290   -0.0700 c3        1 C8M      0.175800
      5 N2         -3.0060   -0.4340   -0.5290 n3        1 C8M     -0.738600
      6 C6         -3.0290   -0.9760   -1.8670 c3        1 C8M      0.152100
      7 C5'        -2.3680   -1.2880    0.4590 c3        1 C8M      0.173800
      8 C4'        -1.1220   -2.0480   -0.0120 c3        1 C8M      0.106100
      9 O4'        -0.1760   -1.1570   -0.6120 os        1 C8M     -0.406600
     10 C1'         1.1610   -1.4130   -0.1390 c3        1 C8M      0.257800
     11 N5          1.8350   -0.1730    0.1400 na        1 C8M     -0.275000
     12 C11         3.0630    0.2070   -0.4320 ca        1 C8M      0.468800
     13 N4          3.9020   -0.4620   -1.2770 nb        1 C8M     -0.732000
     14 C10         5.0080    0.2540   -1.5890 ca        1 C8M      0.684900
     15 N3          5.3890    1.4970   -1.1920 nb        1 C8M     -0.794000
     16 C9          4.5540    2.1730   -0.3330 ca        1 C8M      0.756200
     17 N7          4.8910    3.4110    0.1510 nh        1 C8M     -0.957500
     18 C12         3.3310    1.5440    0.0790 ca        1 C8M     -0.225200
     19 N6          2.2840    1.9630    0.9080 nc        1 C8M     -0.550100
     20 C7          1.4030    0.9430    0.9240 cd        1 C8M      0.425800
     21 C2'         1.0480   -2.3730    1.0880 c3        1 C8M      0.068100
     22 O2'         1.8380   -3.5040    0.7740 oh        1 C8M     -0.585800
     23 C3'        -0.4420   -2.7650    1.1720 c3        1 C8M      0.082100
     24 O3'        -0.6100   -4.1630    1.1210 oh        1 C8M     -0.585800
     25 C8          0.1000    0.9470    1.6390 c3        1 C8M     -0.118400
     26 O1         -6.5290    1.2860    0.9290 o         1 C8M     -0.619100
     27 HN1        -6.0550    3.5750   -1.1960 hn        1 C8M      0.311500
     28 HN1A       -7.3270    3.4230   -0.0750 hn        1 C8M      0.311500
     29 H4         -4.7940    1.3540   -1.7450 hc        1 C8M      0.070700
     30 H4A        -3.8520    2.1410   -0.4120 hc        1 C8M      0.070700
     31 H5         -4.3070    0.1090    1.0550 h1        1 C8M      0.051700
     32 H5A        -5.1340   -0.6930   -0.3460 h1        1 C8M      0.051700
     33 H6         -3.5910   -0.2760   -2.5380 h1        1 C8M      0.036700
     34 H6A        -1.9720   -1.0540   -2.2380 h1        1 C8M      0.036700
     35 H6B        -3.5140   -1.9890   -1.9290 h1        1 C8M      0.036700
     36 H5'        -2.0810   -0.6180    1.3200 h1        1 C8M      0.042200
     37 H5'A       -3.0760   -2.0780    0.8540 h1        1 C8M      0.042200
     38 H4'        -1.4020   -2.7970   -0.8060 h1        1 C8M      0.067700
     39 H1'         1.7120   -1.9350   -0.9820 h2        1 C8M      0.127700
     40 H10         5.7190   -0.2490   -2.2800 h5        1 C8M      0.052100
     41 HN7         5.6840    3.8860   -0.2020 hn        1 C8M      0.445300
     42 HN7A        4.2150    3.9130    0.6700 hn        1 C8M      0.445300
     43 H2'         1.3990   -1.9010    2.0420 h1        1 C8M      0.073700
     44 HO2'        1.8060   -4.0880    1.5440 ho        1 C8M      0.422000
     45 H3'        -0.8910   -2.4630    2.1570 h1        1 C8M      0.096700
     46 HO3'       -0.1830   -4.4830    0.3130 ho        1 C8M      0.418000
     47 H8         -0.0220    0.0050    2.2300 hc        1 C8M      0.066700
     48 H8A         0.0370    1.8220    2.3320 hc        1 C8M      0.066700
     49 H8B        -0.7290    1.0110    0.8870 hc        1 C8M      0.066700
@<TRIPOS>BOND
     1    1    2 1   
     2    1   27 1   
     3    1   28 1   
     4    2    3 1   
     5    2   26 2   
     6    3    4 1   
     7    3   29 1   
     8    3   30 1   
     9    4    5 1   
    10    4   31 1   
    11    4   32 1   
    12    5    6 1   
    13    5    7 1   
    14    6   33 1   
    15    6   34 1   
    16    6   35 1   
    17    7    8 1   
    18    7   36 1   
    19    7   37 1   
    20    8    9 1   
    21    8   23 1   
    22    8   38 1   
    23    9   10 1   
    24   10   11 1   
    25   10   21 1   
    26   10   39 1   
    27   11   12 1   
    28   11   20 1   
    29   12   13 ar  
    30   12   18 ar  
    31   13   14 ar  
    32   14   15 ar  
    33   14   40 1   
    34   15   16 ar  
    35   16   17 1   
    36   16   18 ar  
    37   17   41 1   
    38   17   42 1   
    39   18   19 1   
    40   19   20 2   
    41   20   25 1   
    42   21   22 1   
    43   21   23 1   
    44   21   43 1   
    45   22   44 1   
    46   23   24 1   
    47   23   45 1   
    48   24   46 1   
    49   25   47 1   
    50   25   48 1   
    51   25   49 1   
@<TRIPOS>SUBSTRUCTURE
     1 C8M         1 TEMP              0 ****  ****    0 ROOT
