@<TRIPOS>MOLECULE
C8M
   51    53     1     0     0
SMALL
bcc


@<TRIPOS>ATOM
      1 N1          2.4900   -3.9620    2.0130 n4        1 C8M     -0.768400
      2 C1          3.2260   -2.6790    1.8500 c         1 C8M      0.555100
      3 C4          3.0030   -1.6190    2.8970 c3        1 C8M     -0.182400
      4 C5          3.4390   -0.2350    2.4100 c3        1 C8M      0.106800
      5 N2          4.6880    0.3070    3.0340 n4        1 C8M     -0.682400
      6 C6          4.6380    1.7990    3.0580 c3        1 C8M      0.081100
      7 C5'         5.9320   -0.1670    2.3320 c3        1 C8M      0.085800
      8 C4'         7.1590   -0.1300    3.2590 c3        1 C8M      0.066100
      9 O4'         6.8810   -0.9090    4.4180 os        1 C8M     -0.447600
     10 C1'         7.7120   -2.0930    4.4770 c3        1 C8M      0.227800
     11 N5          6.8730   -3.2560    4.2640 na        1 C8M     -0.267000
     12 C11         5.8470   -3.5160    5.2130 ca        1 C8M      0.448800
     13 N4          5.7710   -3.2190    6.5380 nb        1 C8M     -0.651000
     14 C10         4.6330   -3.6680    7.1250 ca        1 C8M      0.686900
     15 N3          3.5840   -4.3390    6.5630 nb        1 C8M     -0.699000
     16 C9          3.6560   -4.6360    5.2390 ca        1 C8M      0.632200
     17 N7          2.5940   -5.2840    4.5390 nh        1 C8M     -0.936500
     18 C12         4.7980   -4.2260    4.4910 ca        1 C8M     -0.226200
     19 N6          5.1760   -4.3940    3.1520 nc        1 C8M     -0.632100
     20 C7          6.3960   -3.8280    3.0350 cd        1 C8M      0.451800
     21 C2'         8.8860   -1.8620    3.4810 c3        1 C8M      0.093100
     22 O2'         9.9670   -1.4100    4.2670 oh        1 C8M     -0.576800
     23 C3'         8.4230   -0.6970    2.5660 c3        1 C8M      0.120100
     24 O3'         9.3880    0.3000    2.3980 oh        1 C8M     -0.557800
     25 C8          7.2210   -3.9350    1.7990 c3        1 C8M     -0.136400
     26 O1          3.9730   -2.5800    0.8840 o         1 C8M     -0.422100
     27 HN1         2.9480   -4.6900    1.4440 hn        1 C8M      0.492133
     28 HN1A        1.5220   -3.8540    1.6960 hn        1 C8M      0.492133
     29 H4          3.5440   -1.9480    3.8320 hc        1 C8M      0.130200
     30 H4A         1.9070   -1.5620    3.1590 hc        1 C8M      0.130200
     31 H5          2.6030    0.4920    2.6480 hx        1 C8M      0.131200
     32 H5A         3.5870   -0.2340    1.2880 hx        1 C8M      0.131200
     33 H6          5.6020    2.1910    3.4830 hx        1 C8M      0.117033
     34 H6A         3.7840    2.1360    3.7070 hx        1 C8M      0.117033
     35 H6B         4.5010    2.1910    2.0150 hx        1 C8M      0.117033
     36 H5'         5.7480   -1.2230    1.9810 hx        1 C8M      0.113200
     37 H5'A        6.1210    0.4930    1.4370 hx        1 C8M      0.113200
     38 H4'         7.3590    0.9190    3.6230 h1        1 C8M      0.115700
     39 H1'         8.0940   -2.1290    5.5480 h2        1 C8M      0.175700
     40 H10         4.5410   -3.4730    8.2220 h5        1 C8M      0.102100
     41 HN7         2.9040   -6.1920    4.2280 hn        1 C8M      0.421800
     42 HN7A        1.7670   -5.3870    5.1060 hn        1 C8M      0.421800
     43 H2'         9.1530   -2.7740    2.8910 h1        1 C8M      0.096700
     44 HO2'       10.7710   -1.8580    3.9660 ho        1 C8M      0.453000
     45 H3'         8.1970   -1.0520    1.5230 h1        1 C8M      0.096700
     46 HO3'        9.8410    0.4550    3.2450 ho        1 C8M      0.448000
     47 H8          8.1600   -4.5060    2.0240 hc        1 C8M      0.085367
     48 H8A         6.6650   -4.4940    1.0030 hc        1 C8M      0.085367
     49 H8B         7.4820   -2.9250    1.4020 hc        1 C8M      0.085367
     50 H13         2.4900   -4.2970    3.0290 hn        1 C8M      0.492133
     51 H21         4.7490   -0.0240    4.0130 hn        1 C8M      0.466800
@<TRIPOS>BOND
     1    1    2 1   
     2    1   27 1   
     3    1   28 1   
     4    1   50 1   
     5    2    3 1   
     6    2   26 2   
     7    3    4 1   
     8    3   29 1   
     9    3   30 1   
    10    4    5 1   
    11    4   31 1   
    12    4   32 1   
    13    5    6 1   
    14    5    7 1   
    15    5   51 1   
    16    6   33 1   
    17    6   34 1   
    18    6   35 1   
    19    7    8 1   
    20    7   36 1   
    21    7   37 1   
    22    8    9 1   
    23    8   23 1   
    24    8   38 1   
    25    9   10 1   
    26   10   11 1   
    27   10   21 1   
    28   10   39 1   
    29   11   12 1   
    30   11   20 1   
    31   12   13 ar  
    32   12   18 ar  
    33   13   14 ar  
    34   14   15 ar  
    35   14   40 1   
    36   15   16 ar  
    37   16   17 1   
    38   16   18 ar  
    39   17   41 1   
    40   17   42 1   
    41   18   19 1   
    42   19   20 2   
    43   20   25 1   
    44   21   22 1   
    45   21   23 1   
    46   21   43 1   
    47   22   44 1   
    48   23   24 1   
    49   23   45 1   
    50   24   46 1   
    51   25   47 1   
    52   25   48 1   
    53   25   49 1   
@<TRIPOS>SUBSTRUCTURE
     1 C8M         1 TEMP              0 ****  ****    0 ROOT
