@<TRIPOS>MOLECULE
C90
   59    61     1     0     0
SMALL
bcc


@<TRIPOS>ATOM
      1 C5         -7.5900   -0.0240   -1.3300 c3        1 C90      0.211100
      2 C6         -6.1120    0.0990   -1.1010 ca        1 C90     -0.074300
      3 C9         -3.3400    0.3820   -0.7710 ca        1 C90      0.016000
      4 C10        -1.9510    0.5240   -0.6050 cg        1 C90     -0.079000
      5 O1        -10.3410   -1.3150    1.6050 os        1 C90     -0.415600
      6 C11        -0.7650    0.6460   -0.4640 ch        1 C90     -0.120000
      7 C12         0.6230    0.7880   -0.2990 ca        1 C90      0.056000
      8 C19         7.7880    0.0490    1.6300 c3        1 C90      0.137100
      9 C15         3.3890    1.0620    0.0390 ca        1 C90     -0.139600
     10 C16         4.8530    1.2520    0.2320 c         1 C90      0.667700
     11 C18         7.0690    0.1800    0.2590 c3        1 C90     -0.008300
     12 C21         7.1520    0.9210    2.6940 c3        1 C90     -0.127100
     13 C22         7.5970   -0.8490   -0.7620 c         1 C90      0.578100
     14 CA1        -8.9580   -1.4000    1.9320 c3        1 C90      0.126900
     15 CA2       -10.6510   -0.1210    0.8960 c3        1 C90      0.126900
     16 CB1        -8.0750   -1.2880    0.6850 c3        1 C90      0.129800
     17 CB2        -9.8050    0.0230   -0.3740 c3        1 C90      0.129800
     18 N4         -8.3760   -0.1000   -0.1040 n3        1 C90     -0.725600
     19 CC1        -5.2300   -0.7190   -1.8150 ca        1 C90     -0.122500
     20 CC2        -5.6020    1.0590   -0.2210 ca        1 C90     -0.122500
     21 CD1        -3.8540   -0.5800   -1.6550 ca        1 C90     -0.105500
     22 CD2        -4.2280    1.2010   -0.0530 ca        1 C90     -0.105500
     23 CE1         1.5100   -0.0350   -1.0130 ca        1 C90     -0.118000
     24 CE2         1.1370    1.7590    0.5790 ca        1 C90     -0.118000
     25 CF1         2.8850    0.1010   -0.8440 ca        1 C90     -0.091500
     26 CF          2.5120    1.8970    0.7410 ca        1 C90     -0.091500
     27 O16         5.3650    2.3840    0.3460 o         1 C90     -0.594100
     28 N17         5.6290    0.1030    0.3670 n         1 C90     -0.544900
     29 N23         8.9820   -1.1840   -0.7150 n         1 C90     -0.339400
     30 O22         6.8840   -1.2580   -1.6950 o         1 C90     -0.576100
     31 O24         9.3210   -2.2230   -1.4840 oh        1 C90     -0.433100
     32 H51        -7.9280    0.8990   -1.8880 h1        1 C90      0.043200
     33 H52        -7.7870   -0.9140   -2.0010 h1        1 C90      0.043200
     34 H19         8.8640    0.3640    1.4880 h1        1 C90      0.080700
     35 H18         7.3500    1.2050   -0.1470 h1        1 C90      0.114700
     36 H211        7.8500    1.0260    3.5590 hc        1 C90      0.055700
     37 H212        6.9260    1.9320    2.2750 hc        1 C90      0.055700
     38 H213        6.2010    0.4690    3.0650 hc        1 C90      0.055700
     39 HA11       -8.6990   -0.6030    2.6770 h1        1 C90      0.054450
     40 HA12       -8.8430   -2.4140    2.3970 h1        1 C90      0.054450
     41 HA21      -11.7340   -0.2290    0.6270 h1        1 C90      0.054450
     42 HA22      -10.5070    0.7640    1.5710 h1        1 C90      0.054450
     43 HB11       -6.9980   -1.2170    1.0080 h1        1 C90      0.042950
     44 HB12       -8.1960   -2.2320    0.0780 h1        1 C90      0.042950
     45 HB21      -10.1540   -0.7440   -1.1250 h1        1 C90      0.042950
     46 HB22       -9.9870    1.0440   -0.8100 h1        1 C90      0.042950
     47 HC1        -5.6210   -1.4770   -2.5100 ha        1 C90      0.143500
     48 HC2        -6.2930    1.7040    0.3450 ha        1 C90      0.143500
     49 HD1        -3.1660   -1.2250   -2.2220 ha        1 C90      0.140500
     50 HD2        -3.8330    1.9570    0.6420 ha        1 C90      0.140500
     51 HE1         1.1140   -0.7880   -1.7110 ha        1 C90      0.147000
     52 HE2         0.4480    2.4130    1.1340 ha        1 C90      0.147000
     53 HF1         3.5650   -0.5400   -1.4270 ha        1 C90      0.151500
     54 HF          2.9200    2.6680    1.4140 ha        1 C90      0.151500
     55 HN17        5.2210   -0.7610    0.0820 hn        1 C90      0.317500
     56 HN23        9.2970   -1.3960    0.2310 hn        1 C90      0.322500
     57 HO24        9.2550   -1.9070   -2.4080 ho        1 C90      0.432000
     58 O20         7.8740   -1.3070    2.0290 oh        1 C90     -0.613800
     59 HO20        7.0040   -1.5770    2.3500 ho        1 C90      0.414000
@<TRIPOS>BOND
     1    1    2 1   
     2    1   18 1   
     3    1   32 1   
     4    1   33 1   
     5    2   19 ar  
     6    2   20 ar  
     7    3    4 1   
     8    3   21 ar  
     9    3   22 ar  
    10    4    6 3   
    11    5   14 1   
    12    5   15 1   
    13    6    7 1   
    14    7   23 ar  
    15    7   24 ar  
    16    8   11 1   
    17    8   12 1   
    18    8   34 1   
    19    8   58 1   
    20    9   10 1   
    21    9   25 ar  
    22    9   26 ar  
    23   10   27 2   
    24   10   28 1   
    25   11   13 1   
    26   11   28 1   
    27   11   35 1   
    28   12   36 1   
    29   12   37 1   
    30   12   38 1   
    31   13   29 1   
    32   13   30 2   
    33   14   16 1   
    34   14   39 1   
    35   14   40 1   
    36   15   17 1   
    37   15   41 1   
    38   15   42 1   
    39   16   18 1   
    40   16   43 1   
    41   16   44 1   
    42   17   18 1   
    43   17   45 1   
    44   17   46 1   
    45   19   21 ar  
    46   19   47 1   
    47   20   22 ar  
    48   20   48 1   
    49   21   49 1   
    50   22   50 1   
    51   23   25 ar  
    52   23   51 1   
    53   24   26 ar  
    54   24   52 1   
    55   25   53 1   
    56   26   54 1   
    57   28   55 1   
    58   29   31 1   
    59   29   56 1   
    60   31   57 1   
    61   58   59 1   
@<TRIPOS>SUBSTRUCTURE
     1 C90         1 TEMP              0 ****  ****    0 ROOT
