@<TRIPOS>MOLECULE
C90
   61    61     1     0     0
SMALL
bcc


@<TRIPOS>ATOM
      1 C5          0.3830   -0.2710    0.8770 c3        1 C90     -0.048000
      2 C6          1.8590   -0.0530    0.7040 ca        1 C90      0.017000
      3 C9          4.6400    0.2510    0.4440 ca        1 C90     -0.085000
      4 C10         6.0190    0.3930    0.3140 c1        1 C90      0.135000
      5 O1         -1.1190    4.6010    0.3960 os        1 C90     -0.134000
      6 C11         7.2200    0.5110    0.1970 c1        1 C90     -0.278000
      7 C12         8.5870    0.6430    0.0690 ca        1 C90      0.247000
      8 C19        15.7040    0.6570   -2.8930 c3        1 C90      0.038000
      9 C15        11.3930    0.8980   -0.2160 ca        1 C90     -0.250000
     10 C16        12.8040    1.0340   -0.2490 c2        1 C90      0.354000
     11 C18        14.9590    0.7640   -1.5230 c3        1 C90     -0.088000
     12 C21        15.3030    1.7330   -3.8760 c3        1 C90     -0.292000
     13 C22        15.5770    1.9260   -0.7450 c2        1 C90      0.262000
     14 CA1        -2.5030    4.4280    0.6170 c2        1 C90     -0.054000
     15 CA2        -0.3680    3.5360    0.2410 c1        1 C90     -0.076000
     16 CB1        -3.1450    3.2690    0.5060 c2        1 C90     -0.229000
     17 CB2        -1.7720   -0.1540   -0.2040 c3        1 C90     -0.123000
     18 N4         -0.4160    0.3250   -0.1730 n3        1 C90     -0.328000
     19 CC1         2.6630    0.1140    1.8420 ca        1 C90     -0.136000
     20 CC2         2.4550   -0.0620   -0.5650 ca        1 C90     -0.136000
     21 CD1         4.0380    0.2630    1.7210 ca        1 C90     -0.059500
     22 CD2         3.8290    0.0890   -0.6990 ca        1 C90     -0.059500
     23 CE1         9.2000    0.6190   -1.2190 ca        1 C90     -0.149500
     24 CE2         9.4180    0.8050    1.2080 ca        1 C90     -0.149500
     25 CF1        10.5600    0.7430   -1.3570 ca        1 C90     -0.026000
     26 CF         10.7820    0.9310    1.0720 ca        1 C90     -0.026000
     27 O16        13.6340    1.2180    0.6490 o         1 C90     -0.348000
     28 N17        13.4880    0.9510   -1.6450 n4        1 C90     -0.119000
     29 O22        15.3260    3.1120   -0.8550 o         1 C90     -0.130000
     30 O24        16.2790    0.5470    1.0710 oh        1 C90     -0.199000
     31 H51         0.0820    0.0960    1.9050 h1        1 C90      0.090000
     32 H52         0.2140   -1.3900    0.8670 h1        1 C90      0.090000
     33 H19        15.5190   -0.3720   -3.3170 h1        1 C90      0.141000
     34 H18        15.1280   -0.2080   -0.9540 hx        1 C90      0.202000
     35 H211       14.2970    1.5230   -4.3130 hc        1 C90      0.123667
     36 H212       15.3030    2.7450   -3.4010 hc        1 C90      0.123667
     37 H213       16.0360    1.7580   -4.7250 hc        1 C90      0.123667
     38 HA11       -2.6310    2.3310    0.2460 ha        1 C90      0.143500
     39 HA12       -2.9200    5.4160    0.8660 h4        1 C90      0.176000
     40 HA21       -2.3080    0.3670   -1.0410 h1        1 C90      0.074667
     41 HA22        0.6800    3.9010    0.0780 ha        1 C90      0.038000
     42 HB11       -0.3880    1.3330   -0.1120 hn        1 C90      0.199000
     43 HB12       -4.2270    3.2010    0.6750 ha        1 C90      0.143500
     44 HB21       -2.3380    0.0260    0.7510 h1        1 C90      0.074667
     45 HB22       -1.7750   -1.2580   -0.4080 h1        1 C90      0.074667
     46 HC1         2.2000    0.1270    2.8420 ha        1 C90      0.167500
     47 HC2         1.8270   -0.1910   -1.4640 ha        1 C90      0.167500
     48 HD1         4.6610    0.3910    2.6190 ha        1 C90      0.142500
     49 HD2         4.2890    0.0820   -1.6990 ha        1 C90      0.142500
     50 HE1         8.5550    0.5000   -2.1080 ha        1 C90      0.183500
     51 HE2         8.9540    0.8290    2.2100 ha        1 C90      0.183500
     52 HF1        10.9810    0.7280   -2.3740 ha        1 C90      0.142500
     53 HF         11.4200    1.0580    1.9640 ha        1 C90      0.142500
     54 HN17       13.0970    0.1560   -2.1660 hn        1 C90      0.271500
     55 HN23       16.9870    2.3790    0.7690 hn        1 C90      0.305000
     56 HO24       15.5730    0.8830    1.6790 ho        1 C90      0.297000
     57 O20        17.0670    0.7770   -2.5030 oh        1 C90     -0.382000
     58 HO20       17.6180    0.6440   -3.2910 ho        1 C90      0.283000
     59 H172       13.2840    1.8150   -2.1650 hn        1 C90      0.271500
     60 H232       17.4740    1.1460   -0.3050 hn        1 C90      0.305000
     61 N23        16.6660    1.5400    0.2420 n4        1 C90      0.030000
@<TRIPOS>BOND
     1    1    2 1   
     2    1   18 1   
     3    1   31 1   
     4    1   32 1   
     5    2   19 1   
     6    2   20 1   
     7    3    4 1   
     8    3   21 1   
     9    3   22 1   
    10    4    6 1   
    11    5   14 1   
    12    5   15 1   
    13    6    7 1   
    14    7   23 1   
    15    7   24 1   
    16    8   11 1   
    17    8   12 1   
    18    8   33 1   
    19    8   57 1   
    20    9   10 1   
    21    9   25 1   
    22    9   26 1   
    23   10   27 1   
    24   10   28 1   
    25   11   13 1   
    26   11   28 1   
    27   11   34 1   
    28   12   35 1   
    29   12   36 1   
    30   12   37 1   
    31   13   29 1   
    32   13   61 1   
    33   14   16 1   
    34   14   39 1   
    35   15   41 1   
    36   16   38 1   
    37   16   43 1   
    38   17   18 1   
    39   17   40 1   
    40   17   44 1   
    41   17   45 1   
    42   18   42 1   
    43   19   21 1   
    44   19   46 1   
    45   20   22 1   
    46   20   47 1   
    47   21   48 1   
    48   22   49 1   
    49   23   25 1   
    50   23   50 1   
    51   24   26 1   
    52   24   51 1   
    53   25   52 1   
    54   26   53 1   
    55   28   54 1   
    56   28   59 1   
    57   30   56 1   
    58   30   61 1   
    59   55   61 1   
    60   57   58 1   
    61   60   61 1   
@<TRIPOS>SUBSTRUCTURE
     1 C90         1 TEMP              0 ****  ****    0 ROOT
