@<TRIPOS>MOLECULE
C90
   61    63     1     0     0
SMALL
bcc


@<TRIPOS>ATOM
      1 C5         -0.0680    0.2860    0.8780 c3        1 C90      0.198100
      2 C6          1.4320    0.2100    0.9040 ca        1 C90     -0.011300
      3 C9          4.2270   -0.0430    0.9870 ca        1 C90     -0.074000
      4 C10         5.6180   -0.1690    1.0260 cg        1 C90      0.115000
      5 O1         -2.3690    3.4540   -0.6870 os        1 C90     -0.404600
      6 C11         6.8210   -0.2770    1.0540 ch        1 C90     -0.263000
      7 C12         8.2020   -0.4000    1.0730 ca        1 C90      0.223000
      8 C19        15.4360    0.1550    2.6150 c3        1 C90      0.140100
      9 C15        11.0150   -0.6540    1.1300 ca        1 C90     -0.268600
     10 C16        12.4380   -0.7740    1.0340 c         1 C90      0.600700
     11 C18        14.6580   -1.1580    2.2840 c3        1 C90      0.048500
     12 C21        14.7570    1.4090    2.1120 c3        1 C90     -0.166100
     13 C22        15.1580   -2.3110    3.1580 c         1 C90      0.522100
     14 CA1        -0.9960    3.7230   -0.4320 c3        1 C90      0.126400
     15 CA2        -2.5650    2.1680   -1.2600 c3        1 C90      0.126400
     16 CB1        -0.3770    2.6560    0.4790 c3        1 C90      0.128300
     17 CB2        -1.9830    1.0590   -0.3750 c3        1 C90      0.128300
     18 N4         -0.5870    1.3030   -0.0260 n3        1 C90     -0.730600
     19 CC1         2.0880    0.0110    2.1270 ca        1 C90     -0.131000
     20 CC2         2.1820    0.2810   -0.2780 ca        1 C90     -0.131000
     21 CD1         3.4710   -0.1170    2.1740 ca        1 C90     -0.067500
     22 CD2         3.5660    0.1580   -0.2410 ca        1 C90     -0.067500
     23 CE1         8.8920   -0.5990    2.3000 ca        1 C90     -0.142000
     24 CE2         8.9530   -0.3300   -0.1220 ca        1 C90     -0.142000
     25 CF1        10.2640   -0.7230    2.3270 ca        1 C90     -0.036000
     26 CF         10.3290   -0.4550   -0.0990 ca        1 C90     -0.036000
     27 O16        13.2020   -0.7230    0.0810 o         1 C90     -0.465100
     28 N17        13.1790   -1.0220    2.4040 n4        1 C90     -0.700800
     29 O22        14.4770   -3.1870    3.6670 o         1 C90     -0.382100
     30 O24        17.0630   -3.6090    3.8060 oh        1 C90     -0.327300
     31 H51        -0.4460    0.4320    1.9350 h1        1 C90      0.056700
     32 H52        -0.4420   -0.7220    0.5250 h1        1 C90      0.056700
     33 H19        16.4510    0.0630    2.1250 h1        1 C90      0.083700
     34 H18        14.8950   -1.4290    1.1970 hx        1 C90      0.188700
     35 H211       15.5000    2.2500    2.0950 hc        1 C90      0.094033
     36 H212       13.9150    1.7210    2.7770 hc        1 C90      0.094033
     37 H213       14.3830    1.2660    1.0680 hc        1 C90      0.094033
     38 HA11       -0.4370    3.7900   -1.4020 h1        1 C90      0.060200
     39 HA12       -0.9960    4.7180    0.0850 h1        1 C90      0.060200
     40 HA21       -3.6800    2.0590   -1.3290 h1        1 C90      0.060200
     41 HA22       -2.1090    2.1370   -2.2850 h1        1 C90      0.060200
     42 HB11        0.7330    2.8290    0.5370 h1        1 C90      0.043950
     43 HB12       -0.8050    2.7830    1.5160 h1        1 C90      0.043950
     44 HB21       -2.0330    0.0880   -0.9410 h1        1 C90      0.043950
     45 HB22       -2.6280    0.9620    0.5460 h1        1 C90      0.043950
     46 HC1         1.5050   -0.0450    3.0600 ha        1 C90      0.163500
     47 HC2         1.6710    0.4380   -1.2420 ha        1 C90      0.163500
     48 HD1         3.9770   -0.2740    3.1390 ha        1 C90      0.143000
     49 HD2         4.1480    0.2170   -1.1740 ha        1 C90      0.143000
     50 HE1         8.3090   -0.6530    3.2350 ha        1 C90      0.182500
     51 HE2         8.4300   -0.1760   -1.0820 ha        1 C90      0.182500
     52 HF1        10.7460   -0.8760    3.3050 ha        1 C90      0.144000
     53 HF         10.9060   -0.4000   -1.0390 ha        1 C90      0.144000
     54 HN17       12.9600   -0.2340    3.0240 hn        1 C90      0.470800
     55 HN23       16.8880   -1.6630    4.1500 hn        1 C90      0.510800
     56 HO24       16.4830   -3.9500    4.5330 ho        1 C90      0.496000
     57 O20        15.6120    0.1350    4.0220 oh        1 C90     -0.669800
     58 HO20       15.6920    1.0440    4.3530 ho        1 C90      0.486000
     59 H172       12.7670   -1.8750    2.8080 hn        1 C90      0.470800
     60 H232       17.1860   -2.1740    2.5550 hn        1 C90      0.510800
     61 N23        16.6470   -2.3810    3.4250 n4        1 C90     -0.433300
@<TRIPOS>BOND
     1    1    2 1   
     2    1   18 1   
     3    1   31 1   
     4    1   32 1   
     5    2   19 ar  
     6    2   20 ar  
     7    3    4 1   
     8    3   21 ar  
     9    3   22 ar  
    10    4    6 3   
    11    5   14 1   
    12    5   15 1   
    13    6    7 1   
    14    7   23 ar  
    15    7   24 ar  
    16    8   11 1   
    17    8   12 1   
    18    8   33 1   
    19    8   57 1   
    20    9   10 1   
    21    9   25 ar  
    22    9   26 ar  
    23   10   27 2   
    24   10   28 1   
    25   11   13 1   
    26   11   28 1   
    27   11   34 1   
    28   12   35 1   
    29   12   36 1   
    30   12   37 1   
    31   13   29 2   
    32   13   61 1   
    33   14   16 1   
    34   14   38 1   
    35   14   39 1   
    36   15   17 1   
    37   15   40 1   
    38   15   41 1   
    39   16   18 1   
    40   16   42 1   
    41   16   43 1   
    42   17   18 1   
    43   17   44 1   
    44   17   45 1   
    45   19   21 ar  
    46   19   46 1   
    47   20   22 ar  
    48   20   47 1   
    49   21   48 1   
    50   22   49 1   
    51   23   25 ar  
    52   23   50 1   
    53   24   26 ar  
    54   24   51 1   
    55   25   52 1   
    56   26   53 1   
    57   28   54 1   
    58   28   59 1   
    59   30   56 1   
    60   30   61 1   
    61   55   61 1   
    62   57   58 1   
    63   60   61 1   
@<TRIPOS>SUBSTRUCTURE
     1 C90         1 TEMP              0 ****  ****    0 ROOT
