@<TRIPOS>MOLECULE
C90
   59    54     1     0     0
SMALL
bcc


@<TRIPOS>ATOM
      1 C5         -7.1020    0.5690   -1.5810 c3        1 C90     -0.033000
      2 C6         -5.5470    0.7200   -1.3880 c2        1 C90     -0.066000
      3 C9         -2.8310    1.1540   -0.9720 c1        1 C90      0.018000
      4 C10        -1.3180    1.3290   -0.7580 c1        1 C90     -0.103000
      5 O1         -9.4960   -2.8270   -1.0510 os        1 C90     -0.272000
      6 C11        -0.1330    1.4660   -0.5870 c1        1 C90     -0.103000
      7 C12         1.3560    1.6370   -0.3740 c1        1 C90     -0.028000
      8 C19         7.9260    0.3180    2.9700 c3        1 C90      0.022000
      9 C15         4.0850    1.1730   -0.0780 c1        1 C90     -0.028000
     10 C16         5.5580    0.8100    0.0740 c1        1 C90      0.351000
     11 C18         7.4820    0.1570    1.5410 c3        1 C90     -0.026000
     12 C21         9.2530    0.9580    3.0100 c3        1 C90     -0.250000
     13 C22         7.4550   -1.2930    1.1870 c1        1 C90      0.231000
     14 CA1        -8.4370   -2.9040   -1.9950 c3        1 C90     -0.023500
     15 CA2        -9.1440   -2.0810    0.1120 c3        1 C90     -0.023500
     16 CB1        -7.8650   -1.5350   -2.3390 c3        1 C90     -0.107000
     17 CB2        -8.5690   -0.7050   -0.2330 c3        1 C90     -0.107000
     18 N4         -7.5100   -0.7850   -1.1780 n3        1 C90     -0.251000
     19 CC1        -4.7500    1.1200   -2.4460 c2        1 C90     -0.132000
     20 CC2        -4.9880    0.5380   -0.1300 c1        1 C90     -0.113000
     21 CD1        -3.3890    1.3390   -2.2450 c2        1 C90     -0.104000
     22 CD2        -3.6220    0.7590    0.0700 c1        1 C90     -0.107000
     23 CE1         1.9350    1.6430    0.9010 c1        1 C90     -0.110000
     24 CE2         2.1400    1.4010   -1.4900 c2        1 C90     -0.097000
     25 CF1         3.3000    1.4110    1.0470 c1        1 C90     -0.110000
     26 CF          3.5000    1.1690   -1.3490 c2        1 C90     -0.097000
     27 O16         6.2560    0.5480   -0.9610 o         1 C90     -0.387000
     28 N17         6.1490    0.7140    1.3840 n2        1 C90     -0.368000
     29 O20         6.9760    1.1430    3.6760 oh        1 C90     -0.323000
     30 N23         8.6120   -1.9150    0.5670 n2        1 C90     -0.202000
     31 O22         6.5270   -1.9270    1.4360 o         1 C90     -0.329000
     32 O24         8.7090   -3.3360    0.5120 oh        1 C90     -0.235000
     33 H51        -7.5760    1.2440   -1.0160 h1        1 C90      0.082000
     34 H52        -7.3230    0.7080   -2.4880 h1        1 C90      0.082000
     35 H19         7.9760   -0.5560    3.3910 h1        1 C90      0.147000
     36 H18         8.1190    0.6370    0.9370 h1        1 C90      0.126000
     37 H211        9.7150    0.6770    3.7940 hc        1 C90      0.093333
     38 H212        9.7750    0.6920    2.2030 hc        1 C90      0.093333
     39 H213        9.1470    1.9200    3.0270 hc        1 C90      0.093333
     40 HA11       -7.7120   -3.4700   -1.6230 h1        1 C90      0.093750
     41 HA12       -8.7880   -3.3390   -2.8500 h1        1 C90      0.093750
     42 HA21       -9.9630   -1.9610    0.6800 h1        1 C90      0.093750
     43 HA22       -8.5110   -2.5580    0.5950 h1        1 C90      0.093750
     44 HB11       -7.0340   -1.6610   -2.9150 h1        1 C90      0.082250
     45 HB12       -8.5700   -1.0010   -2.8790 h1        1 C90      0.082250
     46 HB21       -9.2760   -0.1510   -0.6000 h1        1 C90      0.082250
     47 HB22       -8.2360   -0.2940    0.5750 h1        1 C90      0.082250
     48 HC1        -5.1380    1.2460   -3.3260 ha        1 C90      0.136000
     49 HC2        -5.5340    0.2640    0.5960 ha        1 C90      0.151000
     50 HD1        -2.8210    1.6230   -2.9910 ha        1 C90      0.140000
     51 HD2        -3.2390    0.6330    0.9470 ha        1 C90      0.140000
     52 HE1         1.3960    1.8080    1.6630 ha        1 C90      0.143500
     53 HE2         1.7450    1.3950   -2.3590 ha        1 C90      0.153500
     54 HF1         3.7070    1.4140    1.9410 ha        1 C90      0.143500
     55 HF          4.0770    0.9950   -2.1770 ha        1 C90      0.153500
     56 HN17        5.6360    0.9570    2.1590 hn        1 C90      0.248000
     57 HO20        7.0300    0.9730    4.5800 ho        1 C90      0.202000
     58 HN23        9.3110   -1.3830    0.2320 hn        1 C90      0.251000
     59 HO24        9.5710   -3.5810    0.5700 ho        1 C90      0.227000
@<TRIPOS>BOND
     1    1    2 1   
     2    1   18 1   
     3    1   33 1   
     4    1   34 1   
     5    2   19 1   
     6    2   20 1   
     7    3   21 1   
     8    3   22 1   
     9    4    6 1   
    10    5   14 1   
    11    5   15 1   
    12    7   23 1   
    13    7   24 1   
    14    8   11 1   
    15    8   12 1   
    16    8   29 1   
    17    8   35 1   
    18    9   25 1   
    19    9   26 1   
    20   10   27 1   
    21   11   13 1   
    22   11   28 1   
    23   11   36 1   
    24   12   37 1   
    25   12   38 1   
    26   12   39 1   
    27   13   31 1   
    28   14   16 1   
    29   14   40 1   
    30   14   41 1   
    31   15   17 1   
    32   15   42 1   
    33   15   43 1   
    34   16   18 1   
    35   16   44 1   
    36   16   45 1   
    37   17   18 1   
    38   17   46 1   
    39   17   47 1   
    40   19   21 1   
    41   19   48 1   
    42   20   49 1   
    43   21   50 1   
    44   22   51 1   
    45   23   52 1   
    46   24   26 1   
    47   24   53 1   
    48   25   54 1   
    49   26   55 1   
    50   28   56 1   
    51   29   57 1   
    52   30   32 1   
    53   30   58 1   
    54   32   59 1   
@<TRIPOS>SUBSTRUCTURE
     1 C90         1 TEMP              0 ****  ****    0 ROOT
