@<TRIPOS>MOLECULE
C90
   61    63     1     0     0
SMALL
bcc


@<TRIPOS>ATOM
      1 C5         -0.2120    0.2170    0.5620 c3        1 C90      0.198100
      2 C6          1.2760    0.1400    0.7550 ca        1 C90     -0.011300
      3 C9          4.0440   -0.1180    1.1440 ca        1 C90     -0.074000
      4 C10         5.4230   -0.2460    1.3340 cg        1 C90      0.115000
      5 O1         -2.3380    3.4660   -1.0820 os        1 C90     -0.404600
      6 C11         6.6150   -0.3550    1.4940 ch        1 C90     -0.263000
      7 C12         7.9860   -0.4790    1.6640 ca        1 C90      0.223000
      8 C19        14.9930   -0.0110    4.0500 c3        1 C90      0.140100
      9 C15        10.7750   -0.7360    2.0260 ca        1 C90     -0.268600
     10 C16        12.2010   -0.8490    2.0870 c         1 C90      0.600700
     11 C18        14.2670   -1.3030    3.5590 c3        1 C90      0.048500
     12 C21        14.3680    1.2690    3.5450 c3        1 C90     -0.166100
     13 C22        14.6720   -2.5040    4.4180 c         1 C90      0.522100
     14 CA1        -1.0050    3.7200   -0.6580 c3        1 C90      0.126400
     15 CA2        -2.4610    2.2130   -1.7420 c3        1 C90      0.126400
     16 CB1        -0.4870    2.6050    0.2590 c3        1 C90      0.128300
     17 CB2        -1.9760    1.0580   -0.8570 c3        1 C90      0.128300
     18 N4         -0.6300    1.2820   -0.3380 n3        1 C90     -0.730600
     19 CC1         1.7890   -0.1280    2.0320 ca        1 C90     -0.131000
     20 CC2         2.1560    0.2770   -0.3270 ca        1 C90     -0.131000
     21 CD1         3.1580   -0.2580    2.2300 ca        1 C90     -0.067500
     22 CD2         3.5270    0.1520   -0.1390 ca        1 C90     -0.067500
     23 CE1         8.5330   -0.7480    2.9480 ca        1 C90     -0.142000
     24 CE2         8.8680   -0.3410    0.5680 ca        1 C90     -0.142000
     25 CF1         9.8940   -0.8730    3.1250 ca        1 C90     -0.036000
     26 CF         10.2330   -0.4670    0.7410 ca        1 C90     -0.036000
     27 O16        13.0680   -0.7440    1.2320 o         1 C90     -0.465100
     28 N17        12.7830   -1.1750    3.5160 ny        1 C90     -0.700800
     29 O22        13.9430   -3.4080    4.7950 o         1 C90     -0.382100
     30 O24        16.5000   -3.8360    5.2050 oh        1 C90     -0.327300
     31 H51        -0.5370   -0.7700    0.1150 h1        1 C90      0.056700
     32 H52        -0.7090    0.3060    1.5750 h1        1 C90      0.056700
     33 H19        16.0580   -0.0740    3.6750 h1        1 C90      0.083700
     34 H18        14.6280   -1.5120    2.4930 hx        1 C90      0.188700
     35 H211       15.1020    2.1100    3.6590 hc        1 C90      0.094033
     36 H212       14.1150    1.1860    2.4570 hc        1 C90      0.094033
     37 H213       13.4530    1.5430    4.1250 hc        1 C90      0.094033
     38 HA11       -0.3400    3.8400   -1.5530 h1        1 C90      0.060200
     39 HA12       -1.0700    4.6860   -0.0910 h1        1 C90      0.060200
     40 HA21       -3.5590    2.1090   -1.9430 h1        1 C90      0.060200
     41 HA22       -1.8910    2.2380   -2.7080 h1        1 C90      0.060200
     42 HB11        0.6080    2.7750    0.4530 h1        1 C90      0.043950
     43 HB12       -1.0320    2.6760    1.2460 h1        1 C90      0.043950
     44 HB21       -2.7220    0.9110   -0.0220 h1        1 C90      0.043950
     45 HB22       -1.9560    0.1190   -1.4770 h1        1 C90      0.043950
     46 HC1         1.1030   -0.2360    2.8880 ha        1 C90      0.163500
     47 HC2         1.7570    0.4880   -1.3330 ha        1 C90      0.163500
     48 HD1         3.5520   -0.4690    3.2360 ha        1 C90      0.143000
     49 HD2         4.2120    0.2630   -0.9940 ha        1 C90      0.143000
     50 HE1         7.8470   -0.8550    3.8060 ha        1 C90      0.182500
     51 HE2         8.4560   -0.1330   -0.4350 ha        1 C90      0.182500
     52 HF1        10.2620   -1.0810    4.1400 ha        1 C90      0.144000
     53 HF         10.9140   -0.3590   -0.1230 ha        1 C90      0.144000
     54 HN17       12.4900   -0.4230    4.1510 hn        1 C90      0.470800
     55 HN23       16.7540   -2.3320    4.0580 hn        1 C90      0.510800
     56 HO24       15.8420   -4.2170    5.8400 ho        1 C90      0.496000
     57 O20        15.0080   -0.1110    5.4650 oh        1 C90     -0.669800
     58 HO20       15.0430    0.7780    5.8520 ho        1 C90      0.486000
     59 H172       12.3330   -2.0490    3.8220 hn        1 C90      0.470800
     60 H232       16.2740   -1.9120    5.6360 hn        1 C90      0.510800
     61 N23        16.1220   -2.5880    4.8480 ny        1 C90     -0.433300
@<TRIPOS>BOND
     1    1    2 1   
     2    1   18 1   
     3    1   31 1   
     4    1   32 1   
     5    2   19 ar  
     6    2   20 ar  
     7    3    4 1   
     8    3   21 ar  
     9    3   22 ar  
    10    4    6 3   
    11    5   14 1   
    12    5   15 1   
    13    6    7 1   
    14    7   23 ar  
    15    7   24 ar  
    16    8   11 1   
    17    8   12 1   
    18    8   33 1   
    19    8   57 1   
    20    9   10 1   
    21    9   25 ar  
    22    9   26 ar  
    23   10   27 2   
    24   10   28 1   
    25   11   13 1   
    26   11   28 1   
    27   11   34 1   
    28   12   35 1   
    29   12   36 1   
    30   12   37 1   
    31   13   29 2   
    32   13   61 1   
    33   14   16 1   
    34   14   38 1   
    35   14   39 1   
    36   15   17 1   
    37   15   40 1   
    38   15   41 1   
    39   16   18 1   
    40   16   42 1   
    41   16   43 1   
    42   17   18 1   
    43   17   44 1   
    44   17   45 1   
    45   19   21 ar  
    46   19   46 1   
    47   20   22 ar  
    48   20   47 1   
    49   21   48 1   
    50   22   49 1   
    51   23   25 ar  
    52   23   50 1   
    53   24   26 ar  
    54   24   51 1   
    55   25   52 1   
    56   26   53 1   
    57   28   54 1   
    58   28   59 1   
    59   30   56 1   
    60   30   61 1   
    61   55   61 1   
    62   57   58 1   
    63   60   61 1   
@<TRIPOS>SUBSTRUCTURE
     1 C90         1 TEMP              0 ****  ****    0 ROOT
