@<TRIPOS>MOLECULE
C91
   47    51     1     0     0
SMALL
bcc


@<TRIPOS>ATOM
      1 O           2.1510    2.5200    0.2190 o         1 C91     -0.601100
      2 C13         1.7030    1.4270   -0.1760 c         1 C91      0.653100
      3 N4          0.9570    0.5650    0.5960 ns        1 C91     -0.445100
      4 C4          0.6030    0.7250    1.9480 ca        1 C91      0.075600
      5 C2          0.7800    1.9630    2.6470 ca        1 C91     -0.143000
      6 C5          0.4000    2.0780    3.9590 ca        1 C91     -0.100000
      7 C18        -0.1770    0.9880    4.6630 ca        1 C91     -0.058000
      8 C25        -0.5750    1.0940    6.0230 ca        1 C91     -0.108000
      9 C26        -1.1310    0.0200    6.6710 ca        1 C91     -0.137000
     10 C27        -1.3150   -1.2090    5.9900 ca        1 C91     -0.122000
     11 C28        -0.9390   -1.3380    4.6760 ca        1 C91     -0.126000
     12 C16        -0.3590   -0.2400    3.9790 ca        1 C91     -0.010000
     13 C12         0.0380   -0.3560    2.6250 ca        1 C91     -0.183000
     14 C17         2.0370    1.0200   -1.6290 c3        1 C91     -0.023700
     15 N1          1.0740    0.2360   -2.3270 na        1 C91     -0.158300
     16 C6          1.0750   -1.1650   -2.5730 cc        1 C91      0.349800
     17 C37         2.0880   -2.0940   -2.0280 ca        1 C91      0.382000
     18 C38         2.5470   -3.1420   -2.8540 ca        1 C91     -0.194300
     19 C39         3.4810   -4.0410   -2.3320 ca        1 C91     -0.096000
     20 C40         3.9260   -3.8760   -1.0220 ca        1 C91     -0.230300
     21 C41         3.4100   -2.8000   -0.2720 ca        1 C91      0.400200
     22 N42         2.5120   -1.9230   -0.7480 nb        1 C91     -0.681000
     23 N3          0.0510   -1.5590   -3.3610 nd        1 C91     -0.549100
     24 C11        -0.6680   -0.3880   -3.6630 ca        1 C91      0.063400
     25 C10        -0.0340    0.7480   -3.0220 ca        1 C91     -0.068200
     26 C1         -0.5450    2.0440   -3.1660 ca        1 C91     -0.129000
     27 C3         -1.6850    2.1960   -3.9420 ca        1 C91     -0.107000
     28 C14        -2.3110    1.1010   -4.5640 ca        1 C91     -0.150000
     29 C9         -1.8220   -0.1900   -4.4380 ca        1 C91     -0.067000
     30 H1          0.7220   -0.3240    0.2050 hn        1 C91      0.338500
     31 H2          1.2250    2.8280    2.1280 ha        1 C91      0.173000
     32 H3          0.5400    3.0320    4.4900 ha        1 C91      0.136000
     33 H4         -0.4280    2.0540    6.5410 ha        1 C91      0.131000
     34 H5         -1.4410    0.0980    7.7240 ha        1 C91      0.131000
     35 H6         -1.7630   -2.0550    6.5300 ha        1 C91      0.130000
     36 H7         -1.0790   -2.2880    4.1400 ha        1 C91      0.131000
     37 H8         -0.1180   -1.3250    2.1250 ha        1 C91      0.135000
     38 H9          2.1810    1.9920   -2.1900 h1        1 C91      0.096200
     39 H10         3.0260    0.4810   -1.5960 h1        1 C91      0.096200
     40 H11         2.1690   -3.2490   -3.8810 ha        1 C91      0.168000
     41 H12         3.8560   -4.8700   -2.9520 ha        1 C91      0.147000
     42 H13         4.6580   -4.5610   -0.5750 ha        1 C91      0.151000
     43 H14         3.7310   -2.6310    0.7720 h4        1 C91      0.032100
     44 H15        -0.0650    2.9040   -2.6790 ha        1 C91      0.145000
     45 H16        -2.1150    3.2010   -4.0740 ha        1 C91      0.136000
     46 H17        -3.2140    1.2800   -5.1670 ha        1 C91      0.136000
     47 H18        -2.3160   -1.0420   -4.9260 ha        1 C91      0.149000
@<TRIPOS>BOND
     1    1    2 2   
     2    2    3 1   
     3    2   14 1   
     4    3    4 1   
     5    3   30 1   
     6    4    5 ar  
     7    4   13 ar  
     8    5    6 ar  
     9    5   31 1   
    10    6    7 ar  
    11    6   32 1   
    12    7    8 ar  
    13    7   12 ar  
    14    8    9 ar  
    15    8   33 1   
    16    9   10 ar  
    17    9   34 1   
    18   10   11 ar  
    19   10   35 1   
    20   11   12 ar  
    21   11   36 1   
    22   12   13 ar  
    23   13   37 1   
    24   14   15 1   
    25   14   38 1   
    26   14   39 1   
    27   15   16 1   
    28   15   25 1   
    29   16   17 1   
    30   16   23 2   
    31   17   18 ar  
    32   17   22 ar  
    33   18   19 ar  
    34   18   40 1   
    35   19   20 ar  
    36   19   41 1   
    37   20   21 ar  
    38   20   42 1   
    39   21   22 ar  
    40   21   43 1   
    41   23   24 1   
    42   24   25 ar  
    43   24   29 ar  
    44   25   26 ar  
    45   26   27 ar  
    46   26   44 1   
    47   27   28 ar  
    48   27   45 1   
    49   28   29 ar  
    50   28   46 1   
    51   29   47 1   
@<TRIPOS>SUBSTRUCTURE
     1 C91         1 TEMP              0 ****  ****    0 ROOT
