@<TRIPOS>MOLECULE
C91
   48    52     1     0     0
SMALL
bcc


@<TRIPOS>ATOM
      1 O           2.4700    1.3430    0.8290 o         1 C91     -0.412100
      2 C13         1.7270    0.7650    0.0520 c         1 C91      0.519100
      3 N4          0.5520   -0.0000    0.5950 n4        1 C91     -0.540200
      4 C4          0.2610    0.2140    2.0120 ca        1 C91     -0.052400
      5 C2         -0.9960    0.7900    2.3680 ca        1 C91     -0.139000
      6 C5         -1.3030    0.9740    3.6910 ca        1 C91     -0.071000
      7 C18        -0.3880    0.6050    4.7160 ca        1 C91     -0.014000
      8 C25        -0.6950    0.7920    6.0900 ca        1 C91     -0.119000
      9 C26         0.2130    0.4320    7.0590 ca        1 C91     -0.089000
     10 C27         1.4630   -0.1280    6.6990 ca        1 C91     -0.101000
     11 C28         1.7850   -0.3200    5.3770 ca        1 C91     -0.112000
     12 C16         0.8640    0.0420    4.3560 ca        1 C91     -0.042000
     13 C12         1.1780   -0.1470    2.9850 ca        1 C91     -0.047000
     14 C17         1.9620    0.7150   -1.4630 c3        1 C91     -0.008700
     15 N1          0.8630    0.2670   -2.2390 na        1 C91     -0.212300
     16 C6          0.6860   -1.0620   -2.7660 cc        1 C91      0.337800
     17 C37         1.3540   -2.2470   -2.1900 ca        1 C91      0.379000
     18 C38         1.7050   -3.3030   -3.0560 ca        1 C91     -0.175300
     19 C39         2.3100   -4.4420   -2.5130 ca        1 C91     -0.074000
     20 C40         2.5460   -4.4960   -1.1410 ca        1 C91     -0.209300
     21 C41         2.1610   -3.3940   -0.3510 ca        1 C91      0.406200
     22 N42         1.5790   -2.2910   -0.8480 nb        1 C91     -0.768000
     23 N3         -0.1780   -1.1030   -3.7890 nd        1 C91     -0.498100
     24 C11        -0.5710    0.2350   -4.0250 ca        1 C91      0.067400
     25 C10         0.0970    1.1090   -3.0830 ca        1 C91     -0.083200
     26 C1         -0.1030    2.4900   -3.1050 ca        1 C91     -0.144000
     27 C3         -0.9780    2.9910   -4.0660 ca        1 C91     -0.084000
     28 C14        -1.6370    2.1520   -4.9770 ca        1 C91     -0.133000
     29 C9         -1.4490    0.7740   -4.9730 ca        1 C91     -0.048000
     30 H1         -0.2830    0.2510    0.0490 hn        1 C91      0.485800
     31 H2         -1.7180    1.0840    1.5890 ha        1 C91      0.148000
     32 H3         -2.2720    1.4140    3.9800 ha        1 C91      0.163000
     33 H4         -1.6680    1.2290    6.3630 ha        1 C91      0.153000
     34 H5         -0.0210    0.5760    8.1260 ha        1 C91      0.157000
     35 H6          2.1730   -0.4050    7.4940 ha        1 C91      0.156000
     36 H7          2.7560   -0.7520    5.0910 ha        1 C91      0.145000
     37 H8          2.1640   -0.5670    2.7250 ha        1 C91      0.152000
     38 H9          2.8640    0.0440   -1.6020 h1        1 C91      0.125700
     39 H10         2.2500    1.7700   -1.7610 h1        1 C91      0.125700
     40 H11         1.4990   -3.2340   -4.1360 ha        1 C91      0.183000
     41 H12         2.5920   -5.2830   -3.1670 ha        1 C91      0.169000
     42 H13         3.0170   -5.3740   -0.6740 ha        1 C91      0.170000
     43 H14         2.3270   -3.4030    0.7420 h4        1 C91      0.028100
     44 H15         0.4090    3.1620   -2.4040 ha        1 C91      0.140000
     45 H16        -1.1540    4.0780   -4.1140 ha        1 C91      0.154000
     46 H17        -2.3190    2.6000   -5.7170 ha        1 C91      0.157000
     47 H18        -1.9680    0.1210   -5.6910 ha        1 C91      0.168000
     48 H42         0.7530   -1.0130    0.4270 hn        1 C91      0.485800
@<TRIPOS>BOND
     1    1    2 2   
     2    2    3 1   
     3    2   14 1   
     4    3    4 1   
     5    3   30 1   
     6    3   48 1   
     7    4    5 ar  
     8    4   13 ar  
     9    5    6 ar  
    10    5   31 1   
    11    6    7 ar  
    12    6   32 1   
    13    7    8 ar  
    14    7   12 ar  
    15    8    9 ar  
    16    8   33 1   
    17    9   10 ar  
    18    9   34 1   
    19   10   11 ar  
    20   10   35 1   
    21   11   12 ar  
    22   11   36 1   
    23   12   13 ar  
    24   13   37 1   
    25   14   15 1   
    26   14   38 1   
    27   14   39 1   
    28   15   16 1   
    29   15   25 1   
    30   16   17 1   
    31   16   23 2   
    32   17   18 ar  
    33   17   22 ar  
    34   18   19 ar  
    35   18   40 1   
    36   19   20 ar  
    37   19   41 1   
    38   20   21 ar  
    39   20   42 1   
    40   21   22 ar  
    41   21   43 1   
    42   23   24 1   
    43   24   25 ar  
    44   24   29 ar  
    45   25   26 ar  
    46   26   27 ar  
    47   26   44 1   
    48   27   28 ar  
    49   27   45 1   
    50   28   29 ar  
    51   28   46 1   
    52   29   47 1   
@<TRIPOS>SUBSTRUCTURE
     1 C91         1 TEMP              0 ****  ****    0 ROOT
