@<TRIPOS>MOLECULE
C91
   47    51     1     0     0
SMALL
bcc


@<TRIPOS>ATOM
      1 O           2.1480    2.5230    0.2310 o         1 C91     -0.601100
      2 C13         1.7020    1.4300   -0.1690 c         1 C91      0.653100
      3 N4          0.9550    0.5640    0.5990 n         1 C91     -0.445100
      4 C4          0.5990    0.7190    1.9510 ca        1 C91      0.075600
      5 C2          0.7730    1.9540    2.6550 ca        1 C91     -0.143000
      6 C5          0.3910    2.0640    3.9670 ca        1 C91     -0.100000
      7 C18        -0.1860    0.9710    4.6650 ca        1 C91     -0.058000
      8 C25        -0.5870    1.0720    6.0250 ca        1 C91     -0.108000
      9 C26        -1.1440   -0.0050    6.6680 ca        1 C91     -0.137000
     10 C27        -1.3260   -1.2310    5.9820 ca        1 C91     -0.122000
     11 C28        -0.9470   -1.3550    4.6690 ca        1 C91     -0.126000
     12 C16        -0.3660   -0.2550    3.9770 ca        1 C91     -0.010000
     13 C12         0.0330   -0.3640    2.6230 ca        1 C91     -0.183000
     14 C17         2.0380    1.0300   -1.6220 c3        1 C91     -0.023700
     15 N1          1.0780    0.2450   -2.3240 na        1 C91     -0.158300
     16 C6          1.0830   -1.1550   -2.5750 cc        1 C91      0.349800
     17 C37         2.0960   -2.0840   -2.0310 ca        1 C91      0.382000
     18 C38         2.5580   -3.1280   -2.8600 ca        1 C91     -0.194300
     19 C39         3.4930   -4.0270   -2.3390 ca        1 C91     -0.096000
     20 C40         3.9350   -3.8650   -1.0280 ca        1 C91     -0.230300
     21 C41         3.4160   -2.7920   -0.2750 ca        1 C91      0.400200
     22 N42         2.5170   -1.9150   -0.7500 nb        1 C91     -0.681000
     23 N3          0.0600   -1.5480   -3.3660 nd        1 C91     -0.549100
     24 C11        -0.6610   -0.3780   -3.6660 ca        1 C91      0.063400
     25 C10        -0.0300    0.7580   -3.0200 ca        1 C91     -0.068200
     26 C1         -0.5440    2.0530   -3.1600 ca        1 C91     -0.129000
     27 C3         -1.6830    2.2050   -3.9370 ca        1 C91     -0.107000
     28 C14        -2.3050    1.1110   -4.5640 ca        1 C91     -0.150000
     29 C9         -1.8140   -0.1790   -4.4410 ca        1 C91     -0.067000
     30 H1          0.7220   -0.3230    0.2050 hn        1 C91      0.338500
     31 H2          1.2190    2.8220    2.1400 ha        1 C91      0.173000
     32 H3          0.5290    3.0170    4.5020 ha        1 C91      0.136000
     33 H4         -0.4420    2.0300    6.5470 ha        1 C91      0.131000
     34 H5         -1.4560    0.0680    7.7200 ha        1 C91      0.131000
     35 H6         -1.7750   -2.0800    6.5180 ha        1 C91      0.130000
     36 H7         -1.0850   -2.3040    4.1280 ha        1 C91      0.131000
     37 H8         -0.1210   -1.3310    2.1180 ha        1 C91      0.135000
     38 H9          3.0280    0.4920   -1.5900 h1        1 C91      0.096200
     39 H10         2.1810    2.0040   -2.1800 h1        1 C91      0.096200
     40 H11         2.1820   -3.2330   -3.8880 ha        1 C91      0.168000
     41 H12         3.8700   -4.8530   -2.9600 ha        1 C91      0.147000
     42 H13         4.6680   -4.5500   -0.5820 ha        1 C91      0.151000
     43 H14         3.7350   -2.6260    0.7700 h4        1 C91      0.032100
     44 H15        -0.0660    2.9120   -2.6700 ha        1 C91      0.145000
     45 H16        -2.1150    3.2100   -4.0660 ha        1 C91      0.136000
     46 H17        -3.2090    1.2900   -5.1670 ha        1 C91      0.136000
     47 H18        -2.3050   -1.0310   -4.9330 ha        1 C91      0.149000
@<TRIPOS>BOND
     1    1    2 2   
     2    2    3 1   
     3    2   14 1   
     4    3    4 1   
     5    3   30 1   
     6    4    5 ar  
     7    4   13 ar  
     8    5    6 ar  
     9    5   31 1   
    10    6    7 ar  
    11    6   32 1   
    12    7    8 ar  
    13    7   12 ar  
    14    8    9 ar  
    15    8   33 1   
    16    9   10 ar  
    17    9   34 1   
    18   10   11 ar  
    19   10   35 1   
    20   11   12 ar  
    21   11   36 1   
    22   12   13 ar  
    23   13   37 1   
    24   14   15 1   
    25   14   38 1   
    26   14   39 1   
    27   15   16 1   
    28   15   25 1   
    29   16   17 1   
    30   16   23 2   
    31   17   18 ar  
    32   17   22 ar  
    33   18   19 ar  
    34   18   40 1   
    35   19   20 ar  
    36   19   41 1   
    37   20   21 ar  
    38   20   42 1   
    39   21   22 ar  
    40   21   43 1   
    41   23   24 1   
    42   24   25 ar  
    43   24   29 ar  
    44   25   26 ar  
    45   26   27 ar  
    46   26   44 1   
    47   27   28 ar  
    48   27   45 1   
    49   28   29 ar  
    50   28   46 1   
    51   29   47 1   
@<TRIPOS>SUBSTRUCTURE
     1 C91         1 TEMP              0 ****  ****    0 ROOT
