@<TRIPOS>MOLECULE
C92
   54    56     1     0     0
SMALL
bcc


@<TRIPOS>ATOM
      1 C23         0.3460   -0.2940    0.5770 c3        1 C92     -0.078900
      2 C24         1.6780   -0.9110    0.1720 c3        1 C92     -0.079900
      3 C25         1.6330   -2.3890    0.5360 c3        1 C92     -0.079900
      4 C26         0.2790   -2.6660    1.1760 c3        1 C92     -0.078900
      5 C12        -0.3480   -1.3080    1.4900 c3        1 C92     -0.069700
      6 C13        -1.8520   -1.2840    1.2830 c3        1 C92     -0.101400
      7 C11        -2.5250   -2.1730    2.3220 c3        1 C92      0.103800
      8 N10        -4.0090   -2.2280    2.1560 ny        1 C92     -0.677800
      9 C8         -4.6530   -3.1060    3.2170 c         1 C92      0.576700
     10 O9         -5.2570   -2.4730    4.0740 o         1 C92     -0.431100
     11 C4         -4.4750   -4.5470    3.1100 ca        1 C92     -0.223600
     12 C3         -4.7720   -5.3010    4.2610 ca        1 C92     -0.011000
     13 C5         -4.0510   -5.2070    1.9430 ca        1 C92     -0.071000
     14 C6         -3.9170   -6.5870    1.9370 ca        1 C92     -0.140000
     15 C7         -4.1890   -7.3510    3.0880 ca        1 C92      0.065700
     16 C14        -4.0190   -8.8190    3.0620 c3        1 C92     -0.098800
     17 C2         -4.6210   -6.6860    4.2490 ca        1 C92     -0.155600
     18 C1         -4.8540   -7.4580    5.5190 c         1 C92      0.665700
     19 O15        -3.9090   -8.0550    6.0660 o         1 C92     -0.567100
     20 N16        -6.1360   -7.4000    6.0200 ns        1 C92     -0.439100
     21 C17        -6.6030   -8.1000    7.1510 ca        1 C92     -0.149700
     22 C22        -5.7640   -8.5460    8.1940 ca        1 C92     -0.057000
     23 C21        -6.3210   -9.1920    9.2870 ca        1 C92     -0.289300
     24 C20        -7.7350   -9.3900    9.3520 ca        1 C92      0.644200
     25 N27        -8.3050   -9.9430   10.4950 nv        1 C92     -0.934500
     26 N19        -8.5560   -8.9750    8.3260 nb        1 C92     -0.706000
     27 C18        -7.9970   -8.3570    7.2850 ca        1 C92      0.417200
     28 H23        -0.2790   -0.0910   -0.3300 hc        1 C92      0.044700
     29 H23A        0.4940    0.6780    1.1080 hc        1 C92      0.044700
     30 H24         2.5200   -0.4040    0.7070 hc        1 C92      0.056950
     31 H24A        1.8540   -0.7760   -0.9250 hc        1 C92      0.056950
     32 H25         1.7760   -3.0280   -0.3710 hc        1 C92      0.056950
     33 H25A        2.4590   -2.6390    1.2500 hc        1 C92      0.056950
     34 H26         0.3920   -3.2760    2.1060 hc        1 C92      0.044700
     35 H26A       -0.3690   -3.2440    0.4690 hc        1 C92      0.044700
     36 H12        -0.1260   -1.0410    2.5600 hc        1 C92      0.062700
     37 H13        -2.2170   -0.2270    1.3800 hc        1 C92      0.066200
     38 H13A       -2.0940   -1.6390    0.2450 hc        1 C92      0.066200
     39 H11        -2.1290   -3.2280    2.2410 hx        1 C92      0.111200
     40 H11A       -2.3130   -1.7850    3.3600 hx        1 C92      0.111200
     41 HN10       -4.2380   -2.5850    1.2240 hn        1 C92      0.456300
     42 H3         -5.1130   -4.7870    5.1790 ha        1 C92      0.177000
     43 H5         -3.8290   -4.6590    1.0150 ha        1 C92      0.128000
     44 H6         -3.5870   -7.1000    1.0180 ha        1 C92      0.169000
     45 H14        -5.0220   -9.3200    3.0810 hc        1 C92      0.084367
     46 H14A       -3.4760   -9.1530    2.1440 hc        1 C92      0.084367
     47 H14B       -3.4460   -9.1590    3.9650 hc        1 C92      0.084367
     48 HN16       -6.8400   -6.9750    5.4580 hn        1 C92      0.318500
     49 H22        -4.6730   -8.3960    8.1460 ha        1 C92      0.169000
     50 H21        -5.6720   -9.5410   10.1030 ha        1 C92      0.153000
     51 HN27       -7.7070  -10.5270   11.0300 hn        1 C92      0.422800
     52 HN2A       -9.2570  -10.2230   10.4470 hn        1 C92      0.422800
     53 H18        -8.7150   -8.0450    6.5030 h4        1 C92      0.018100
     54 H102       -4.3900   -1.2750    2.2400 hn        1 C92      0.456300
@<TRIPOS>BOND
     1    1    2 1   
     2    1    5 1   
     3    1   28 1   
     4    1   29 1   
     5    2    3 1   
     6    2   30 1   
     7    2   31 1   
     8    3    4 1   
     9    3   32 1   
    10    3   33 1   
    11    4    5 1   
    12    4   34 1   
    13    4   35 1   
    14    5    6 1   
    15    5   36 1   
    16    6    7 1   
    17    6   37 1   
    18    6   38 1   
    19    7    8 1   
    20    7   39 1   
    21    7   40 1   
    22    8    9 1   
    23    8   41 1   
    24    8   54 1   
    25    9   10 2   
    26    9   11 1   
    27   11   12 ar  
    28   11   13 ar  
    29   12   17 ar  
    30   12   42 1   
    31   13   14 ar  
    32   13   43 1   
    33   14   15 ar  
    34   14   44 1   
    35   15   16 1   
    36   15   17 ar  
    37   16   45 1   
    38   16   46 1   
    39   16   47 1   
    40   17   18 1   
    41   18   19 2   
    42   18   20 1   
    43   20   21 1   
    44   20   48 1   
    45   21   22 ar  
    46   21   27 ar  
    47   22   23 ar  
    48   22   49 1   
    49   23   24 ar  
    50   23   50 1   
    51   24   25 1   
    52   24   26 ar  
    53   25   51 1   
    54   25   52 1   
    55   26   27 ar  
    56   27   53 1   
@<TRIPOS>SUBSTRUCTURE
     1 C92         1 TEMP              0 ****  ****    0 ROOT
