@<TRIPOS>MOLECULE
C92
   54    56     1     0     0
SMALL
bcc


@<TRIPOS>ATOM
      1 C23         0.4810   -0.4270    0.9390 c3        1 C92     -0.078900
      2 C24         1.8810   -1.0250    0.9330 c3        1 C92     -0.079900
      3 C25         1.7780   -2.4480    1.4660 c3        1 C92     -0.079900
      4 C26         0.3170   -2.7080    1.8100 c3        1 C92     -0.078900
      5 C12        -0.3890   -1.3510    1.7930 c3        1 C92     -0.069700
      6 C13        -1.8040   -1.4240    1.2460 c3        1 C92     -0.100400
      7 C11        -2.6840   -2.2100    2.2090 c3        1 C92      0.104800
      8 N10        -4.0890   -2.3540    1.7170 n4        1 C92     -0.679800
      9 C8         -4.9330   -3.1330    2.7150 c         1 C92      0.578700
     10 O9         -5.5560   -2.4320    3.5000 o         1 C92     -0.419100
     11 C4         -4.8650   -4.5880    2.6360 ca        1 C92     -0.224600
     12 C3         -4.9630   -5.2970    3.8460 ca        1 C92     -0.018000
     13 C5         -4.7510   -5.2900    1.4250 ca        1 C92     -0.072000
     14 C6         -4.7070   -6.6760    1.4320 ca        1 C92     -0.137000
     15 C7         -4.7670   -7.3990    2.6370 ca        1 C92      0.058700
     16 C14        -4.6960   -8.8760    2.6200 c3        1 C92     -0.097800
     17 C2         -4.9010   -6.6890    3.8430 ca        1 C92     -0.152600
     18 C1         -4.9040   -7.4210    5.1570 c         1 C92      0.665700
     19 O15        -3.8890   -8.0370    5.5280 o         1 C92     -0.569100
     20 N16        -6.0610   -7.3030    5.8960 n         1 C92     -0.439100
     21 C17        -6.3220   -7.9570    7.1170 ca        1 C92     -0.149700
     22 C22        -5.3130   -8.4310    7.9820 ca        1 C92     -0.058000
     23 C21        -5.6680   -9.0280    9.1810 ca        1 C92     -0.289300
     24 C20        -7.0490   -9.1470    9.5350 ca        1 C92      0.644200
     25 N27        -7.4020   -9.6490   10.7840 nh        1 C92     -0.933500
     26 N19        -8.0370   -8.7050    8.6850 nb        1 C92     -0.705000
     27 C18        -7.6710   -8.1360    7.5360 ca        1 C92      0.417200
     28 H23         0.4860    0.6090    1.3590 hc        1 C92      0.044950
     29 H23A        0.0820   -0.3650   -0.1050 hc        1 C92      0.044950
     30 H24         2.3060   -1.0170   -0.1020 hc        1 C92      0.056950
     31 H24A        2.5670   -0.4180    1.5760 hc        1 C92      0.056950
     32 H25         2.1380   -3.1860    0.7060 hc        1 C92      0.056950
     33 H25A        2.4190   -2.5700    2.3760 hc        1 C92      0.056950
     34 H26        -0.1390   -3.3980    1.0550 hc        1 C92      0.044950
     35 H26A        0.2220   -3.1930    2.8130 hc        1 C92      0.044950
     36 H12        -0.4270   -0.9460    2.8410 hc        1 C92      0.061700
     37 H13        -2.2000   -0.3810    1.1190 hc        1 C92      0.066200
     38 H13A       -1.7900   -1.9140    0.2360 hc        1 C92      0.066200
     39 H11        -2.7270   -1.6890    3.2090 hx        1 C92      0.112200
     40 H11A       -2.2590   -3.2460    2.3580 hx        1 C92      0.112200
     41 HN10       -4.4930   -1.4160    1.5930 hn        1 C92      0.454800
     42 H3         -5.0780   -4.7480    4.7980 ha        1 C92      0.173000
     43 H5         -4.7260   -4.7680    0.4560 ha        1 C92      0.131000
     44 H6         -4.6230   -7.2250    0.4790 ha        1 C92      0.169000
     45 H14        -3.9950   -9.2410    3.4170 hc        1 C92      0.083700
     46 H14A       -5.7090   -9.3100    2.8260 hc        1 C92      0.083700
     47 H14B       -4.3440   -9.2570    1.6300 hc        1 C92      0.083700
     48 HN16       -6.8470   -6.8660    5.4680 hn        1 C92      0.319500
     49 H22        -4.2480   -8.3420    7.7110 ha        1 C92      0.169000
     50 H21        -4.8860   -9.3980    9.8590 ha        1 C92      0.152000
     51 HN27       -6.7390  -10.2580   11.2020 hn        1 C92      0.422300
     52 HN2A       -8.3570   -9.8780   10.9360 hn        1 C92      0.422300
     53 H18        -8.5160   -7.7980    6.9060 h4        1 C92      0.018100
     54 H102       -4.0830   -2.8300    0.8110 hn        1 C92      0.454800
@<TRIPOS>BOND
     1    1    2 1   
     2    1    5 1   
     3    1   28 1   
     4    1   29 1   
     5    2    3 1   
     6    2   30 1   
     7    2   31 1   
     8    3    4 1   
     9    3   32 1   
    10    3   33 1   
    11    4    5 1   
    12    4   34 1   
    13    4   35 1   
    14    5    6 1   
    15    5   36 1   
    16    6    7 1   
    17    6   37 1   
    18    6   38 1   
    19    7    8 1   
    20    7   39 1   
    21    7   40 1   
    22    8    9 1   
    23    8   41 1   
    24    8   54 1   
    25    9   10 2   
    26    9   11 1   
    27   11   12 ar  
    28   11   13 ar  
    29   12   17 ar  
    30   12   42 1   
    31   13   14 ar  
    32   13   43 1   
    33   14   15 ar  
    34   14   44 1   
    35   15   16 1   
    36   15   17 ar  
    37   16   45 1   
    38   16   46 1   
    39   16   47 1   
    40   17   18 1   
    41   18   19 2   
    42   18   20 1   
    43   20   21 1   
    44   20   48 1   
    45   21   22 ar  
    46   21   27 ar  
    47   22   23 ar  
    48   22   49 1   
    49   23   24 ar  
    50   23   50 1   
    51   24   25 1   
    52   24   26 ar  
    53   25   51 1   
    54   25   52 1   
    55   26   27 ar  
    56   27   53 1   
@<TRIPOS>SUBSTRUCTURE
     1 C92         1 TEMP              0 ****  ****    0 ROOT
