@<TRIPOS>MOLECULE
C92
   53    51     1     0     0
SMALL
bcc


@<TRIPOS>ATOM
      1 C23         4.3440   -1.9360   -4.6020 c3        1 C92     -0.156000
      2 C24         5.5770   -2.0750   -5.1440 c3        1 C92     -0.157500
      3 C25         6.4370   -2.8090   -4.0310 c3        1 C92     -0.157500
      4 C26         5.5570   -2.7580   -2.7060 c3        1 C92     -0.156000
      5 C12         4.5600   -1.8900   -2.9790 c3        1 C92     -0.104000
      6 C13         3.2710   -2.3220   -2.2610 c3        1 C92     -0.178000
      7 C11         2.9340   -1.3070   -1.1580 c3        1 C92     -0.035000
      8 N10         1.5020   -1.3090   -0.9200 n         1 C92     -0.367000
      9 C8          0.9890   -1.0660    0.4150 c2        1 C92      0.341000
     10 O9          1.7550   -0.8600    1.3280 o         1 C92     -0.363000
     11 C4         -0.5300   -1.1710    0.6900 c2        1 C92     -0.136000
     12 C3         -1.2290   -0.0630    1.1620 c2        1 C92     -0.055000
     13 C5         -1.1860   -2.3840    0.5170 c1        1 C92     -0.079000
     14 C6         -2.5430   -2.4910    0.8140 c1        1 C92     -0.149000
     15 C7         -3.2420   -1.3840    1.2850 c1        1 C92      0.008000
     16 C14        -4.7250   -1.4790    1.5290 c3        1 C92     -0.201000
     17 C2         -2.5860   -0.1700    1.4590 c1        1 C92     -0.139000
     18 C1         -3.3470    1.0440    2.0710 c2        1 C92      0.356000
     19 O15        -4.5320    0.9510    2.3310 o         1 C92     -0.348000
     20 N16        -2.6680    2.2860    2.2690 n         1 C92     -0.311000
     21 C17        -3.3890    3.4300    2.7760 c2        1 C92     -0.025000
     22 C22        -3.2920    3.7680    4.0940 c2        1 C92     -0.113000
     23 C21        -3.9460    4.8750    4.5650 c1        1 C92     -0.204000
     24 C20        -4.7060    5.6510    3.7020 c1        1 C92      0.076000
     25 N27        -5.3540    6.8250    4.1830 n3        1 C92     -0.313000
     26 N19        -4.8010    5.3110    2.3840 n1        1 C92     -0.174000
     27 C18        -4.1510    4.2090    1.9130 c1        1 C92     -0.048000
     28 H23         3.9330   -1.1060   -4.9100 hc        1 C92      0.081000
     29 H23A        3.7820   -2.7000   -4.8450 hc        1 C92      0.081000
     30 H24         5.5320   -2.6260   -5.9620 hc        1 C92      0.080250
     31 H24A        5.9590   -1.1990   -5.3450 hc        1 C92      0.080250
     32 H25         6.6040   -3.7430   -4.2920 hc        1 C92      0.080250
     33 H25A        7.2790   -2.3420   -3.8940 hc        1 C92      0.080250
     34 H26         5.1900   -3.6470   -2.5070 hc        1 C92      0.081000
     35 H26A        6.0930   -2.4340   -1.9550 hc        1 C92      0.081000
     36 H12         4.8140   -0.9890   -2.7010 hc        1 C92      0.093000
     37 H13         3.4010   -3.2070   -1.8620 hc        1 C92      0.086000
     38 H13A        2.5360   -2.3600   -2.9060 hc        1 C92      0.086000
     39 H11         3.3990   -1.5530   -0.3370 h1        1 C92      0.104000
     40 H11A        3.2180   -0.4110   -1.4390 h1        1 C92      0.104000
     41 HN10        0.9210   -1.4080   -1.6230 hn        1 C92      0.219000
     42 H3         -0.7690    0.7880    1.2830 ha        1 C92      0.160000
     43 H5         -0.6940   -3.1630    0.1860 ha        1 C92      0.142000
     44 H6         -3.0030   -3.3430    0.6920 ha        1 C92      0.143000
     45 H14        -4.9020   -1.4240    2.4930 hc        1 C92      0.102000
     46 H14A       -5.0570   -2.3290    1.1860 hc        1 C92      0.102000
     47 H14B       -5.1820   -0.7390    1.0690 hc        1 C92      0.102000
     48 HN16       -1.7740    2.3460    2.1110 hn        1 C92      0.237000
     49 H22        -2.7570    3.2220    4.7010 ha        1 C92      0.136000
     50 H21        -3.8770    5.1200    5.5140 ha        1 C92      0.143000
     51 HN27       -5.8540    7.3330    3.6170 hn        1 C92      0.192500
     52 HN2A       -5.2680    7.0680    5.0650 hn        1 C92      0.192500
     53 H18        -4.2200    3.9690    0.9760 ha        1 C92      0.199000
@<TRIPOS>BOND
     1    1    2 1   
     2    1    5 1   
     3    1   28 1   
     4    1   29 1   
     5    2    3 1   
     6    2   30 1   
     7    2   31 1   
     8    3    4 1   
     9    3   32 1   
    10    3   33 1   
    11    4    5 1   
    12    4   34 1   
    13    4   35 1   
    14    5    6 1   
    15    5   36 1   
    16    6    7 1   
    17    6   37 1   
    18    6   38 1   
    19    7    8 1   
    20    7   39 1   
    21    7   40 1   
    22    8    9 1   
    23    8   41 1   
    24    9   10 1   
    25    9   11 1   
    26   11   12 1   
    27   11   13 1   
    28   12   17 1   
    29   12   42 1   
    30   13   43 1   
    31   14   15 1   
    32   14   44 1   
    33   15   16 1   
    34   16   45 1   
    35   16   46 1   
    36   16   47 1   
    37   17   18 1   
    38   18   19 1   
    39   18   20 1   
    40   20   21 1   
    41   20   48 1   
    42   21   22 1   
    43   21   27 1   
    44   22   23 1   
    45   22   49 1   
    46   23   50 1   
    47   24   25 1   
    48   24   26 1   
    49   25   51 1   
    50   25   52 1   
    51   27   53 1   
@<TRIPOS>SUBSTRUCTURE
     1 C92         1 TEMP              0 ****  ****    0 ROOT
