@<TRIPOS>MOLECULE
C92
   53    55     1     0     0
SMALL
bcc


@<TRIPOS>ATOM
      1 C23         7.7350   -0.6630    1.1440 c3        1 C92     -0.077400
      2 C24         9.0470   -1.0300    0.4650 c3        1 C92     -0.078900
      3 C25         8.7390   -1.3350   -0.9960 c3        1 C92     -0.078900
      4 C26         7.2380   -1.1700   -1.1940 c3        1 C92     -0.077400
      5 C12         6.6100   -1.0830    0.1970 c3        1 C92     -0.065700
      6 C13         5.4400   -0.1220    0.2630 c3        1 C92     -0.096400
      7 C11         4.2520   -0.6710   -0.5300 c3        1 C92      0.085000
      8 N10         3.1200    0.2110   -0.5850 n         1 C92     -0.564900
      9 C8          1.9170   -0.0780    0.0240 c         1 C92      0.670700
     10 O9          1.7060   -1.1820    0.5670 o         1 C92     -0.605100
     11 C4          0.8510    0.9650   -0.0390 ca        1 C92     -0.152600
     12 C3         -0.4650    0.5470   -0.2690 ca        1 C92     -0.053000
     13 C5          1.1240    2.3210    0.1590 ca        1 C92     -0.083000
     14 C6          0.0890    3.2520    0.1160 ca        1 C92     -0.148000
     15 C7         -1.2310    2.8510   -0.1270 ca        1 C92     -0.000300
     16 C14        -2.3160    3.8580   -0.1800 c3        1 C92     -0.075800
     17 C2         -1.4990    1.4840   -0.3150 ca        1 C92     -0.158600
     18 C1         -2.8950    1.0240   -0.5970 c         1 C92      0.683700
     19 O15        -3.5700    1.5060   -1.5260 o         1 C92     -0.589100
     20 N16        -3.3670    0.0310    0.2470 n         1 C92     -0.457100
     21 C17        -4.6350   -0.5660    0.2160 ca        1 C92     -0.095700
     22 C22        -5.5700   -0.3900   -0.8260 ca        1 C92     -0.086000
     23 C21        -6.7960   -1.0380   -0.7610 ca        1 C92     -0.270300
     24 C20        -7.0980   -1.8800    0.3480 ca        1 C92      0.595200
     25 N27        -8.2970   -2.6150    0.3540 nh        1 C92     -0.915500
     26 N19        -6.2000   -2.0460    1.3750 nb        1 C92     -0.699000
     27 C18        -5.0260   -1.4170    1.2920 ca        1 C92      0.391200
     28 H23         7.6330   -1.1770    2.1310 hc        1 C92      0.041450
     29 H23A        7.6930    0.4400    1.3330 hc        1 C92      0.041450
     30 H24         9.7820   -0.1910    0.5490 hc        1 C92      0.040950
     31 H24A        9.5060   -1.9230    0.9590 hc        1 C92      0.040950
     32 H25         9.3020   -0.6460   -1.6730 hc        1 C92      0.040950
     33 H25A        9.0540   -2.3780   -1.2490 hc        1 C92      0.040950
     34 H26         7.0250   -0.2390   -1.7770 hc        1 C92      0.041450
     35 H26A        6.8110   -2.0290   -1.7680 hc        1 C92      0.041450
     36 H12         6.2500   -2.1070    0.4960 hc        1 C92      0.054700
     37 H13         5.1460    0.0240    1.3350 hc        1 C92      0.044700
     38 H13A        5.7490    0.8780   -0.1410 hc        1 C92      0.044700
     39 H11         4.5910   -0.8720   -1.5890 h1        1 C92      0.064700
     40 H11A        3.9260   -1.6520   -0.0760 h1        1 C92      0.064700
     41 HN10        3.2670    1.1190   -0.9560 hn        1 C92      0.308500
     42 H3         -0.6660   -0.5280   -0.4130 ha        1 C92      0.162000
     43 H5          2.1500    2.6630    0.3660 ha        1 C92      0.137000
     44 H6          0.3100    4.3190    0.2740 ha        1 C92      0.143000
     45 H14        -2.8650    3.7780   -1.1550 hc        1 C92      0.062033
     46 H14A       -3.0510    3.6770    0.6440 hc        1 C92      0.062033
     47 H14B       -1.9150    4.8950   -0.0760 hc        1 C92      0.062033
     48 HN16       -2.7590   -0.2810    0.9730 hn        1 C92      0.325500
     49 H22        -5.3420    0.2580   -1.6890 ha        1 C92      0.176000
     50 H21        -7.5240   -0.9070   -1.5750 ha        1 C92      0.145000
     51 HN27       -9.0560   -2.1250   -0.0660 hn        1 C92      0.397300
     52 HN2A       -8.5340   -3.0380    1.2250 hn        1 C92      0.397300
     53 H18        -4.3480   -1.6040    2.1460 h4        1 C92      0.020100
@<TRIPOS>BOND
     1    1    2 1   
     2    1    5 1   
     3    1   28 1   
     4    1   29 1   
     5    2    3 1   
     6    2   30 1   
     7    2   31 1   
     8    3    4 1   
     9    3   32 1   
    10    3   33 1   
    11    4    5 1   
    12    4   34 1   
    13    4   35 1   
    14    5    6 1   
    15    5   36 1   
    16    6    7 1   
    17    6   37 1   
    18    6   38 1   
    19    7    8 1   
    20    7   39 1   
    21    7   40 1   
    22    8    9 1   
    23    8   41 1   
    24    9   10 2   
    25    9   11 1   
    26   11   12 ar  
    27   11   13 ar  
    28   12   17 ar  
    29   12   42 1   
    30   13   14 ar  
    31   13   43 1   
    32   14   15 ar  
    33   14   44 1   
    34   15   16 1   
    35   15   17 ar  
    36   16   45 1   
    37   16   46 1   
    38   16   47 1   
    39   17   18 1   
    40   18   19 2   
    41   18   20 1   
    42   20   21 1   
    43   20   48 1   
    44   21   22 ar  
    45   21   27 ar  
    46   22   23 ar  
    47   22   49 1   
    48   23   24 ar  
    49   23   50 1   
    50   24   25 1   
    51   24   26 ar  
    52   25   51 1   
    53   25   52 1   
    54   26   27 ar  
    55   27   53 1   
@<TRIPOS>SUBSTRUCTURE
     1 C92         1 TEMP              0 ****  ****    0 ROOT
