@<TRIPOS>MOLECULE
C92
   56    58     1     0     0
SMALL
bcc


@<TRIPOS>ATOM
      1 C23        -0.2640    0.2780   -0.2760 c3        1 C92     -0.078900
      2 C24         0.9580    1.1540   -0.0400 c3        1 C92     -0.080900
      3 C25         1.6140    0.6940    1.2560 c3        1 C92     -0.080900
      4 C26         0.7760   -0.4480    1.8190 c3        1 C92     -0.078900
      5 C12        -0.5400   -0.4540    1.0410 c3        1 C92     -0.069700
      6 C13        -1.0690   -1.8550    0.7770 c3        1 C92     -0.104400
      7 C11        -1.4860   -2.4870    2.0990 c3        1 C92      0.106800
      8 N10        -1.9780   -3.9000    1.9160 n4        1 C92     -0.667800
      9 C8         -2.3530   -4.5630    3.2100 c         1 C92      0.552700
     10 O9         -1.8410   -4.1310    4.2340 o         1 C92     -0.387100
     11 C4         -3.3210   -5.6780    3.1540 ca        1 C92     -0.187600
     12 C3         -4.0150   -5.9680    4.3380 ca        1 C92      0.013000
     13 C5         -3.5440   -6.4610    2.0110 ca        1 C92     -0.023000
     14 C6         -4.4670   -7.5010    2.0500 ca        1 C92     -0.112000
     15 C7         -5.1850   -7.7970    3.2200 ca        1 C92      0.040700
     16 C14        -6.1960   -8.8780    3.1790 c3        1 C92     -0.113800
     17 C2         -4.9310   -7.0320    4.3740 ca        1 C92     -0.217600
     18 C1         -5.6750   -7.2220    5.6300 c         1 C92      0.582700
     19 O15        -6.3750   -6.4390    6.2390 o         1 C92     -0.356100
     20 N16        -5.4680   -8.6060    6.2890 n4        1 C92     -0.561200
     21 C17        -6.3780   -8.9080    7.3900 ca        1 C92     -0.127700
     22 C22        -7.3020   -9.9600    7.3050 ca        1 C92     -0.029000
     23 C21        -8.1390  -10.2300    8.3990 ca        1 C92     -0.174300
     24 C20        -8.0150   -9.4180    9.5450 ca        1 C92      0.512200
     25 N27        -8.8700   -9.6620   10.7260 n4        1 C92     -0.827300
     26 N19        -7.1260   -8.3830    9.6380 nb        1 C92     -0.603000
     27 C18        -6.3350   -8.1360    8.5940 ca        1 C92      0.491200
     28 H23        -1.1490    0.8900   -0.5790 hc        1 C92      0.045450
     29 H23A       -0.0630   -0.4550   -1.0980 hc        1 C92      0.045450
     30 H24         1.6710    1.0710   -0.8990 hc        1 C92      0.064950
     31 H24A        0.6570    2.2290    0.0370 hc        1 C92      0.064950
     32 H25         2.6640    0.3540    1.0730 hc        1 C92      0.064950
     33 H25A        1.6630    1.5390    1.9890 hc        1 C92      0.064950
     34 H26         1.3160   -1.4200    1.6880 hc        1 C92      0.045450
     35 H26A        0.5920   -0.3060    2.9120 hc        1 C92      0.045450
     36 H12        -1.3130    0.1230    1.6200 hc        1 C92      0.061700
     37 H13        -1.9450   -1.7880    0.0790 hc        1 C92      0.070200
     38 H13A       -0.2690   -2.4660    0.2790 hc        1 C92      0.070200
     39 H11        -0.6080   -2.5140    2.8110 hx        1 C92      0.121700
     40 H11A       -2.3200   -1.8980    2.5760 hx        1 C92      0.121700
     41 HN10       -1.2280   -4.4470    1.4690 hn        1 C92      0.465800
     42 H3         -3.8390   -5.3470    5.2380 ha        1 C92      0.188000
     43 H5         -2.9950   -6.2830    1.0690 ha        1 C92      0.169000
     44 H6         -4.6490   -8.1030    1.1390 ha        1 C92      0.201000
     45 H14        -7.0030   -8.7280    3.9370 hc        1 C92      0.084700
     46 H14A       -5.7100   -9.8770    3.3270 hc        1 C92      0.084700
     47 H14B       -6.6950   -8.9070    2.1710 hc        1 C92      0.084700
     48 HN16       -4.5010   -8.6380    6.6480 hn        1 C92      0.479300
     49 H22        -7.3950  -10.5970    6.4040 ha        1 C92      0.198000
     50 H21        -8.8630  -11.0630    8.3320 ha        1 C92      0.211000
     51 HN27       -9.5050  -10.4500   10.5400 hn        1 C92      0.497800
     52 HN2A       -9.4260   -8.8180   10.9430 hn        1 C92      0.497800
     53 H18        -5.6450   -7.2730    8.7270 h4        1 C92      0.090100
     54 H102       -2.7880   -3.8910    1.2840 hn        1 C92      0.465800
     55 H162       -5.5610   -9.3270    5.5570 hn        1 C92      0.479300
     56 H273       -8.2830   -9.8830   11.5490 hn        1 C92      0.497800
@<TRIPOS>BOND
     1    1    2 1   
     2    1    5 1   
     3    1   28 1   
     4    1   29 1   
     5    2    3 1   
     6    2   30 1   
     7    2   31 1   
     8    3    4 1   
     9    3   32 1   
    10    3   33 1   
    11    4    5 1   
    12    4   34 1   
    13    4   35 1   
    14    5    6 1   
    15    5   36 1   
    16    6    7 1   
    17    6   37 1   
    18    6   38 1   
    19    7    8 1   
    20    7   39 1   
    21    7   40 1   
    22    8    9 1   
    23    8   41 1   
    24    8   54 1   
    25    9   10 2   
    26    9   11 1   
    27   11   12 ar  
    28   11   13 ar  
    29   12   17 ar  
    30   12   42 1   
    31   13   14 ar  
    32   13   43 1   
    33   14   15 ar  
    34   14   44 1   
    35   15   16 1   
    36   15   17 ar  
    37   16   45 1   
    38   16   46 1   
    39   16   47 1   
    40   17   18 1   
    41   18   19 2   
    42   18   20 1   
    43   20   21 1   
    44   20   48 1   
    45   20   55 1   
    46   21   22 ar  
    47   21   27 ar  
    48   22   23 ar  
    49   22   49 1   
    50   23   24 ar  
    51   23   50 1   
    52   24   25 1   
    53   24   26 ar  
    54   25   51 1   
    55   25   52 1   
    56   25   56 1   
    57   26   27 ar  
    58   27   53 1   
@<TRIPOS>SUBSTRUCTURE
     1 C92         1 TEMP              0 ****  ****    0 ROOT
