@<TRIPOS>MOLECULE
C93
   32    33     1     0     0
SMALL
bcc


@<TRIPOS>ATOM
      1 O12         0.9850    1.3690    0.4930 o         1 C93     -0.845300
      2 C10         1.1660    0.1980    0.0500 c         1 C93      0.927200
      3 O11         0.9160   -0.8420    0.7260 o         1 C93     -0.845300
      4 C1          1.8780    0.0340   -1.2920 ca        1 C93     -0.067600
      5 C6          3.2680   -0.1110   -1.1680 ca        1 C93     -0.144000
      6 C5          4.0830   -0.2520   -2.2840 ca        1 C93     -0.176000
      7 C4          3.5170   -0.2450   -3.5540 ca        1 C93     -0.217000
      8 C3          2.1220   -0.1130   -3.7060 ca        1 C93      0.093600
      9 C2          1.2850    0.0220   -2.5630 ca        1 C93     -0.062600
     10 C7         -0.2190    0.1410   -2.7940 c         1 C93      0.939200
     11 O9         -0.6900    1.2830   -3.0860 o         1 C93     -0.845800
     12 O8         -0.9240   -0.9050   -2.7660 o         1 C93     -0.845800
     13 N13         1.5310   -0.1510   -5.0120 nh        1 C93     -0.611000
     14 C18         2.2340   -0.9480   -5.9960 c3        1 C93      0.182800
     15 C17         1.3870   -1.1770   -7.2500 c3        1 C93     -0.105900
     16 C16         0.9370    0.1550   -7.8400 c3        1 C93      0.135100
     17 O19         0.0850   -0.0580   -8.9630 oh        1 C93     -0.632800
     18 C15         0.2540    1.0110   -6.7810 c3        1 C93     -0.105900
     19 C14         1.1200    1.1430   -5.5290 c3        1 C93      0.182800
     20 H2          3.7090   -0.1140   -0.1610 ha        1 C93      0.112000
     21 H3          5.1690   -0.3670   -2.1710 ha        1 C93      0.078000
     22 H4          4.1750   -0.3470   -4.4280 ha        1 C93      0.083000
     23 H6          3.2080   -0.4740   -6.3290 h1        1 C93      0.039200
     24 H7          2.4810   -1.9420   -5.5310 h1        1 C93      0.039200
     25 H8          1.9890   -1.7430   -8.0040 hc        1 C93      0.042700
     26 H9          0.4860   -1.7920   -6.9920 hc        1 C93      0.042700
     27 H10         1.8200    0.7020   -8.2770 h1        1 C93      0.048700
     28 H11        -0.7310   -0.4430   -8.6220 ho        1 C93      0.395000
     29 H12        -0.7300    0.5510   -6.5010 hc        1 C93      0.042700
     30 H13         0.0520    2.0310   -7.1940 hc        1 C93      0.042700
     31 H14         0.5170    1.6540   -4.7130 h1        1 C93      0.039200
     32 H15         2.0130    1.7890   -5.7860 h1        1 C93      0.039200
@<TRIPOS>BOND
     1    1    2 1   
     2    2    3 1   
     3    2    4 1   
     4    4    5 ar  
     5    4    9 ar  
     6    5    6 ar  
     7    5   20 1   
     8    6    7 ar  
     9    6   21 1   
    10    7    8 ar  
    11    7   22 1   
    12    8    9 ar  
    13    8   13 1   
    14    9   10 1   
    15   10   11 1   
    16   10   12 1   
    17   13   14 1   
    18   13   19 1   
    19   14   15 1   
    20   14   23 1   
    21   14   24 1   
    22   15   16 1   
    23   15   25 1   
    24   15   26 1   
    25   16   17 1   
    26   16   18 1   
    27   16   27 1   
    28   17   28 1   
    29   18   19 1   
    30   18   29 1   
    31   18   30 1   
    32   19   31 1   
    33   19   32 1   
@<TRIPOS>SUBSTRUCTURE
     1 C93         1 TEMP              0 ****  ****    0 ROOT
