@<TRIPOS>MOLECULE
C93
   32    33     1     0     0
SMALL
bcc


@<TRIPOS>ATOM
      1 O12         1.0430    1.4560    0.4750 o         1 C93     -0.845300
      2 C10         1.1560    0.2720    0.0450 c         1 C93      0.927200
      3 O11         0.8410   -0.7440    0.7310 o         1 C93     -0.845300
      4 C1          1.8630    0.0500   -1.2910 ca        1 C93     -0.067600
      5 C6          3.2420   -0.1750   -1.1580 ca        1 C93     -0.144000
      6 C5          4.0520   -0.3780   -2.2670 ca        1 C93     -0.176000
      7 C4          3.4940   -0.3510   -3.5400 ca        1 C93     -0.217000
      8 C3          2.1100   -0.1390   -3.7020 ca        1 C93      0.093600
      9 C2          1.2770    0.0590   -2.5650 ca        1 C93     -0.062600
     10 C7         -0.2160    0.2640   -2.8050 c         1 C93      0.939200
     11 O9         -0.6170    1.4290   -3.1130 o         1 C93     -0.845800
     12 O8         -0.9820   -0.7370   -2.7700 o         1 C93     -0.845800
     13 N13         1.5240   -0.1570   -5.0100 nh        1 C93     -0.611000
     14 C18         2.1840   -1.0050   -5.9810 c3        1 C93      0.182800
     15 C17         1.3310   -1.1970   -7.2370 c3        1 C93     -0.105900
     16 C16         0.9640    0.1520   -7.8450 c3        1 C93      0.135100
     17 O19         0.1060   -0.0230   -8.9710 oh        1 C93     -0.632800
     18 C15         0.3270    1.0590   -6.8000 c3        1 C93     -0.105900
     19 C14         1.1940    1.1530   -5.5440 c3        1 C93      0.182800
     20 H2          3.6770   -0.1930   -0.1480 ha        1 C93      0.112000
     21 H3          5.1290   -0.5550   -2.1460 ha        1 C93      0.078000
     22 H4          4.1490   -0.5020   -4.4100 ha        1 C93      0.083000
     23 H6          3.1860   -0.5930   -6.3140 h1        1 C93      0.039200
     24 H7          2.3690   -2.0070   -5.5040 h1        1 C93      0.039200
     25 H8          1.9020   -1.8070   -7.9810 hc        1 C93      0.042700
     26 H9          0.3940   -1.7550   -6.9780 hc        1 C93      0.042700
     27 H10         1.8800    0.6400   -8.2830 h1        1 C93      0.048700
     28 H11        -0.7330   -0.3550   -8.6290 ho        1 C93      0.395000
     29 H12         0.1890    2.0850   -7.2250 hc        1 C93      0.042700
     30 H13        -0.6830    0.6610   -6.5200 hc        1 C93      0.042700
     31 H14         0.6180    1.7090   -4.7380 h1        1 C93      0.039200
     32 H15         2.1240    1.7420   -5.8040 h1        1 C93      0.039200
@<TRIPOS>BOND
     1    1    2 1   
     2    2    3 1   
     3    2    4 1   
     4    4    5 ar  
     5    4    9 ar  
     6    5    6 ar  
     7    5   20 1   
     8    6    7 ar  
     9    6   21 1   
    10    7    8 ar  
    11    7   22 1   
    12    8    9 ar  
    13    8   13 1   
    14    9   10 1   
    15   10   11 1   
    16   10   12 1   
    17   13   14 1   
    18   13   19 1   
    19   14   15 1   
    20   14   23 1   
    21   14   24 1   
    22   15   16 1   
    23   15   25 1   
    24   15   26 1   
    25   16   17 1   
    26   16   18 1   
    27   16   27 1   
    28   17   28 1   
    29   18   19 1   
    30   18   29 1   
    31   18   30 1   
    32   19   31 1   
    33   19   32 1   
@<TRIPOS>SUBSTRUCTURE
     1 C93         1 TEMP              0 ****  ****    0 ROOT
