@<TRIPOS>MOLECULE
C93
   32    33     1     0     0
SMALL
bcc


@<TRIPOS>ATOM
      1 O12         0.9490    1.3740    0.4880 o         1 C93     -0.845800
      2 C10         1.1470    0.2050    0.0480 c         1 C93      0.927200
      3 O11         0.9080   -0.8370    0.7260 o         1 C93     -0.845800
      4 C1          1.8650    0.0460   -1.2910 ca        1 C93     -0.067600
      5 C6          3.2570   -0.0810   -1.1620 ca        1 C93     -0.144000
      6 C5          4.0770   -0.2150   -2.2740 ca        1 C93     -0.176000
      7 C4          3.5170   -0.2170   -3.5460 ca        1 C93     -0.217000
      8 C3          2.1200   -0.1030   -3.7040 ca        1 C93      0.093600
      9 C2          1.2780    0.0240   -2.5640 ca        1 C93     -0.062600
     10 C7         -0.2270    0.1230   -2.8000 c         1 C93      0.939200
     11 O9         -0.7110    1.2590   -3.0980 o         1 C93     -0.845800
     12 O8         -0.9190   -0.9310   -2.7730 o         1 C93     -0.845800
     13 N13         1.5350   -0.1520   -5.0110 nh        1 C93     -0.611000
     14 C18         2.2520   -0.9430   -5.9910 c3        1 C93      0.182800
     15 C17         1.4110   -1.1850   -7.2470 c3        1 C93     -0.105900
     16 C16         0.9470    0.1390   -7.8430 c3        1 C93      0.135100
     17 O19         0.1020   -0.0880   -8.9680 oh        1 C93     -0.632800
     18 C15         0.2500    0.9890   -6.7890 c3        1 C93     -0.105900
     19 C14         1.1100    1.1350   -5.5330 c3        1 C93      0.182800
     20 H2          3.6940   -0.0750   -0.1520 ha        1 C93      0.112000
     21 H3          5.1650   -0.3150   -2.1560 ha        1 C93      0.078000
     22 H4          4.1780   -0.3130   -4.4180 ha        1 C93      0.083000
     23 H6          3.2200   -0.4580   -6.3220 h1        1 C93      0.039200
     24 H7          2.5090   -1.9330   -5.5220 h1        1 C93      0.039200
     25 H8          2.0230   -1.7460   -7.9970 hc        1 C93      0.042700
     26 H9          0.5170   -1.8110   -6.9910 hc        1 C93      0.042700
     27 H10         1.8250    0.6950   -8.2780 h1        1 C93      0.048700
     28 H11        -0.7100   -0.4820   -8.6290 ho        1 C93      0.395000
     29 H12         0.0370    2.0060   -7.2050 hc        1 C93      0.042700
     30 H13        -0.7290    0.5170   -6.5100 hc        1 C93      0.042700
     31 H14         0.4970    1.6410   -4.7210 h1        1 C93      0.039200
     32 H15         1.9950    1.7920   -5.7890 h1        1 C93      0.039200
@<TRIPOS>BOND
     1    1    2 1   
     2    2    3 1   
     3    2    4 1   
     4    4    5 ar  
     5    4    9 ar  
     6    5    6 ar  
     7    5   20 1   
     8    6    7 ar  
     9    6   21 1   
    10    7    8 ar  
    11    7   22 1   
    12    8    9 ar  
    13    8   13 1   
    14    9   10 1   
    15   10   11 1   
    16   10   12 1   
    17   13   14 1   
    18   13   19 1   
    19   14   15 1   
    20   14   23 1   
    21   14   24 1   
    22   15   16 1   
    23   15   25 1   
    24   15   26 1   
    25   16   17 1   
    26   16   18 1   
    27   16   27 1   
    28   17   28 1   
    29   18   19 1   
    30   18   29 1   
    31   18   30 1   
    32   19   31 1   
    33   19   32 1   
@<TRIPOS>SUBSTRUCTURE
     1 C93         1 TEMP              0 ****  ****    0 ROOT
