@<TRIPOS>MOLECULE
C94
   37    29     1     0     0
SMALL
bcc


@<TRIPOS>ATOM
      1 O4         -2.6750   -5.4900    1.2510 o         1 C94     -0.924000
      2 S2         -2.3490   -4.4900    2.2290 ss        1 C94      2.852000
      3 O3         -3.6230   -4.2930    2.8620 o         1 C94     -0.924000
      4 N6         -1.2320   -5.0450    3.2980 n2        1 C94     -0.954000
      5 C16        -1.7740   -3.0000    1.4590 c1        1 C94     -0.742000
      6 C15        -2.1070   -2.7280    0.1410 c2        1 C94     -0.042000
      7 C24        -2.9240   -3.7230   -0.6530 c3        1 C94      0.459000
      8 F26        -4.0260   -4.0460    0.0350 f         1 C94     -0.156333
      9 F27        -3.2720   -3.1790   -1.8260 f         1 C94     -0.156333
     10 F25        -2.1950   -4.8260   -0.8710 f         1 C94     -0.156333
     11 C14        -1.6940   -1.5430   -0.4470 c1        1 C94     -0.096000
     12 C13        -0.9490   -0.6300    0.2820 c1        1 C94      0.032000
     13 C18        -0.6170   -0.9010    1.6000 c1        1 C94     -0.112000
     14 C17        -1.0290   -2.0860    2.1880 c1        1 C94     -0.049000
     15 C4         -0.5730    0.5740   -0.2940 c1        1 C94     -0.011000
     16 O2          0.5400    0.7830   -1.0650 os        1 C94     -0.088000
     17 C3         -1.2970    1.7480   -0.2610 c1        1 C94     -0.156000
     18 C2         -0.6290    2.6760   -1.0100 c1        1 C94     -0.156000
     19 C1          0.5110    2.0800   -1.5100 c1        1 C94     -0.011000
     20 C6          1.5120    2.7210   -2.4460 c1        1 C94     -0.002000
     21 C7          2.5140    3.4720   -1.9490 c1        1 C94     -0.357000
     22 S1          2.7790    3.7780   -0.4160 s         1 C94      0.405000
     23 C9          4.0980    4.7240   -0.3270 c2        1 C94     -0.023000
     24 N3          4.6600    5.1570    0.7710 n1        1 C94     -0.251000
     25 N2          4.5940    4.9700   -1.7390 n         1 C94     -0.387000
     26 C8          3.6090    4.1890   -2.7710 c2        1 C94      0.351000
     27 O1          3.7150    4.1720   -3.9810 o         1 C94     -0.304000
     28 H6N1       -1.0980   -4.6050    4.0880 hn        1 C94      0.252500
     29 H6N2       -0.7600   -5.8060    3.1130 hn        1 C94      0.252500
     30 H17        -0.7950   -2.2770    3.1170 ha        1 C94      0.175000
     31 H14        -1.9280   -1.3520   -1.3760 ha        1 C94      0.175000
     32 H18        -0.0920   -0.2580    2.1130 ha        1 C94      0.150000
     33 H3         -2.1380    1.8920    0.2140 DU        1 C94      0.170333
     34 H2         -0.9090    3.5980   -1.1640 DU        1 C94      0.170333
     35 H6          1.4320    2.5900   -3.4100 ha        1 C94      0.181000
     36 H3N1        5.3210    5.4690   -1.9700 hn        1 C94      0.259000
     37 H3N2        5.4030    5.6870    0.7250 DU        1 C94      0.170333
@<TRIPOS>BOND
     1    1    2 1   
     2    2    3 1   
     3    4   28 1   
     4    4   29 1   
     5    5    6 1   
     6    5   14 1   
     7    6    7 1   
     8    6   11 1   
     9    7    8 1   
    10    7    9 1   
    11    7   10 1   
    12   11   31 1   
    13   12   13 1   
    14   13   32 1   
    15   14   30 1   
    16   15   16 1   
    17   15   17 1   
    18   16   19 1   
    19   17   18 1   
    20   18   19 1   
    21   20   21 1   
    22   20   35 1   
    23   21   26 1   
    24   22   23 1   
    25   23   24 1   
    26   23   25 1   
    27   25   26 1   
    28   25   36 1   
    29   26   27 1   
@<TRIPOS>SUBSTRUCTURE
     1 C94         1 TEMP              0 ****  ****    0 ROOT
