@<TRIPOS>MOLECULE
C94
   37    39     1     0     0
SMALL
bcc


@<TRIPOS>ATOM
      1 O4         -5.7130   -1.3550    0.4800 o         1 C94     -0.643800
      2 S2         -5.0020   -0.2300    0.0100 sy        1 C94      1.511200
      3 O3         -5.3200    0.2260   -1.2780 o         1 C94     -0.643800
      4 N6         -5.0930    0.9440    1.0770 n3        1 C94     -1.030700
      5 C16        -3.3190   -0.6580    0.0260 ca        1 C94     -0.289500
      6 C15        -2.1950    0.1770   -0.0310 ca        1 C94     -0.049300
      7 C24        -2.2840    1.7110   -0.0460 c3        1 C94      0.671200
      8 F26        -1.1550    2.3420   -0.5060 f         1 C94     -0.229633
      9 F27        -3.2880    2.2410   -0.8190 f         1 C94     -0.229633
     10 F25        -2.4900    2.2680    1.1960 f         1 C94     -0.229633
     11 C14        -0.9030   -0.3490   -0.0540 ca        1 C94     -0.095000
     12 C13        -0.6970   -1.7370   -0.0250 ca        1 C94     -0.075500
     13 C18        -1.8110   -2.5850    0.0330 ca        1 C94     -0.110000
     14 C17        -3.0910   -2.0420    0.0590 ca        1 C94     -0.051000
     15 C4          0.6320   -2.2930   -0.0550 cc        1 C94      0.300200
     16 O2          1.7060   -1.3940   -0.0230 os        1 C94     -0.348800
     17 C3          1.1090   -3.5980   -0.1150 cd        1 C94     -0.227300
     18 C2          2.5420   -3.5190   -0.1220 cd        1 C94     -0.217300
     19 C1          2.8750   -2.1680   -0.0650 cc        1 C94      0.288500
     20 C6          4.1520   -1.5300   -0.0440 ce        1 C94     -0.125800
     21 C7          4.4240   -0.2130    0.0360 cd        1 C94     -0.127600
     22 S1          3.3780    1.1200    0.1380 ss        1 C94     -0.021800
     23 C9          4.6990    2.3100    0.2000 cc        1 C94      0.486800
     24 N3          4.4340    3.5620    0.2900 n2        1 C94     -0.780100
     25 N2          5.9420    1.6300    0.1360 n         1 C94     -0.546400
     26 C8          5.8510    0.2380    0.0450 c         1 C94      0.706700
     27 O1          6.8480   -0.4940   -0.0180 o         1 C94     -0.586500
     28 H6N1       -4.9430    1.9010    0.8620 hn        1 C94      0.459300
     29 H6N2       -5.3070    0.8000    2.0330 hn        1 C94      0.459300
     30 H17        -3.9560   -2.7320    0.1170 ha        1 C94      0.178000
     31 H14        -0.0270    0.3220   -0.0990 ha        1 C94      0.174000
     32 H18        -1.6750   -3.6780    0.0590 ha        1 C94      0.151000
     33 H3          0.5200   -4.5120   -0.1530 ha        1 C94      0.170000
     34 H2          3.2300   -4.3600   -0.1650 ha        1 C94      0.173000
     35 H6          5.0050   -2.2400   -0.1010 ha        1 C94      0.174000
     36 H3N1        6.8170    2.0950    0.1510 hn        1 C94      0.345500
     37 H3N2        5.1950    4.2070    0.3220 hn        1 C94      0.407400
@<TRIPOS>BOND
     1    1    2 2   
     2    2    3 2   
     3    2    4 1   
     4    2    5 1   
     5    4   28 1   
     6    4   29 1   
     7    5    6 ar  
     8    5   14 ar  
     9    6    7 1   
    10    6   11 ar  
    11    7    8 1   
    12    7    9 1   
    13    7   10 1   
    14   11   12 ar  
    15   11   31 1   
    16   12   13 ar  
    17   12   15 1   
    18   13   14 ar  
    19   13   32 1   
    20   14   30 1   
    21   15   16 1   
    22   15   17 2   
    23   16   19 1   
    24   17   18 1   
    25   17   33 1   
    26   18   19 2   
    27   18   34 1   
    28   19   20 1   
    29   20   21 2   
    30   20   35 1   
    31   21   22 1   
    32   21   26 1   
    33   22   23 1   
    34   23   24 2   
    35   23   25 1   
    36   24   37 1   
    37   25   26 1   
    38   25   36 1   
    39   26   27 2   
@<TRIPOS>SUBSTRUCTURE
     1 C94         1 TEMP              0 ****  ****    0 ROOT
