@<TRIPOS>MOLECULE
C94
   38    40     1     0     0
SMALL
bcc


@<TRIPOS>ATOM
      1 O4          0.0850    0.1530    0.3280 o         1 C94     -0.562800
      2 S2          1.4560    0.1830    0.1540 sy        1 C94      1.481200
      3 O3          2.3120   -0.1970    1.1620 o         1 C94     -0.562800
      4 N6          1.6680   -1.2950   -1.0380 n4        1 C94     -0.787500
      5 C16         1.9750    1.3490   -0.8210 ca        1 C94     -0.545500
      6 C15         3.3200    1.7190   -1.0920 ca        1 C94     -0.011300
      7 C24         4.5170    0.9020   -0.5550 c3        1 C94      0.672200
      8 F26         5.7080    1.1810   -1.1700 f         1 C94     -0.215633
      9 F27         4.7550    1.0660    0.7800 f         1 C94     -0.215633
     10 F25         4.3640   -0.4560   -0.7360 f         1 C94     -0.215633
     11 C14         3.6280    2.8330   -1.8460 ca        1 C94     -0.117000
     12 C13         2.6070    3.6490   -2.3970 ca        1 C94      0.052500
     13 C18         1.2660    3.2820   -2.1670 ca        1 C94     -0.154000
     14 C17         0.9730    2.1700   -1.4050 ca        1 C94      0.013000
     15 C4          2.9240    4.8040   -3.1610 cc        1 C94      0.197200
     16 O2          4.2900    5.0960   -3.3590 os        1 C94     -0.348800
     17 C3          2.1450    5.7820   -3.7920 cd        1 C94     -0.126300
     18 C2          3.0410    6.7080   -4.3990 cd        1 C94     -0.253300
     19 C1          4.3410    6.2630   -4.1180 cc        1 C94      0.384500
     20 C6          5.6030    6.8200   -4.4860 ce        1 C94     -0.186800
     21 C7          6.8320    6.3490   -4.1910 cd        1 C94     -0.082600
     22 S1          7.3080    4.9870   -3.3190 ss        1 C94     -0.022800
     23 C9          9.0570    5.3020   -3.5330 cc        1 C94      0.493800
     24 N3          9.9060    4.4930   -3.0200 n2        1 C94     -0.764100
     25 N2          9.2210    6.4840   -4.2930 n         1 C94     -0.539400
     26 C8          8.0340    7.1080   -4.6860 c         1 C94      0.700700
     27 O1          8.0010    8.1470   -5.3540 o         1 C94     -0.555500
     28 H6N1        0.7960   -1.8090   -1.1470 hn        1 C94      0.458800
     29 H6N2        2.3700   -1.9360   -0.6650 hn        1 C94      0.458800
     30 H17        -0.0930    1.9190   -1.2240 ha        1 C94      0.178000
     31 H14         4.6840    3.1120   -2.0350 ha        1 C94      0.198000
     32 H18         0.4500    3.8930   -2.5900 ha        1 C94      0.175000
     33 H3          1.0560    5.8340   -3.8170 ha        1 C94      0.179000
     34 H2          2.7700    7.5940   -4.9720 ha        1 C94      0.193000
     35 H6          5.5240    7.7530   -5.0860 ha        1 C94      0.191000
     36 H3N1       10.1090    6.8580   -4.5320 hn        1 C94      0.358500
     37 H3N2       10.8800    4.6720   -3.1410 hn        1 C94      0.425400
     38 H63         1.9840   -1.0050   -1.9580 hn        1 C94      0.458800
@<TRIPOS>BOND
     1    1    2 2   
     2    2    3 2   
     3    2    4 1   
     4    2    5 1   
     5    4   28 1   
     6    4   29 1   
     7    4   38 1   
     8    5    6 ar  
     9    5   14 ar  
    10    6    7 1   
    11    6   11 ar  
    12    7    8 1   
    13    7    9 1   
    14    7   10 1   
    15   11   12 ar  
    16   11   31 1   
    17   12   13 ar  
    18   12   15 1   
    19   13   14 ar  
    20   13   32 1   
    21   14   30 1   
    22   15   16 1   
    23   15   17 2   
    24   16   19 1   
    25   17   18 1   
    26   17   33 1   
    27   18   19 2   
    28   18   34 1   
    29   19   20 1   
    30   20   21 2   
    31   20   35 1   
    32   21   22 1   
    33   21   26 1   
    34   22   23 1   
    35   23   24 2   
    36   23   25 1   
    37   24   37 1   
    38   25   26 1   
    39   25   36 1   
    40   26   27 2   
@<TRIPOS>SUBSTRUCTURE
     1 C94         1 TEMP              0 ****  ****    0 ROOT
