@<TRIPOS>MOLECULE
C94
   38    40     1     0     0
SMALL
bcc


@<TRIPOS>ATOM
      1 O4          0.0830    0.1530    0.3250 o         1 C94     -0.562800
      2 S2          1.4540    0.1830    0.1530 sy        1 C94      1.481200
      3 O3          2.3090   -0.1960    1.1620 o         1 C94     -0.562800
      4 N6          1.6670   -1.2950   -1.0390 nz        1 C94     -0.787500
      5 C16         1.9740    1.3500   -0.8220 ca        1 C94     -0.545500
      6 C15         3.3190    1.7200   -1.0910 ca        1 C94     -0.011300
      7 C24         4.5160    0.9030   -0.5530 c3        1 C94      0.672200
      8 F26         5.7070    1.1820   -1.1670 f         1 C94     -0.215633
      9 F27         4.7520    1.0670    0.7830 f         1 C94     -0.215633
     10 F25         4.3620   -0.4550   -0.7350 f         1 C94     -0.215633
     11 C14         3.6270    2.8340   -1.8460 ca        1 C94     -0.117000
     12 C13         2.6070    3.6500   -2.3980 ca        1 C94      0.052500
     13 C18         1.2650    3.2820   -2.1690 ca        1 C94     -0.154000
     14 C17         0.9720    2.1700   -1.4070 ca        1 C94      0.013000
     15 C4          2.9250    4.8040   -3.1620 cc        1 C94      0.197200
     16 O2          4.2910    5.0960   -3.3590 os        1 C94     -0.348800
     17 C3          2.1460    5.7820   -3.7940 cd        1 C94     -0.126300
     18 C2          3.0430    6.7080   -4.4000 cd        1 C94     -0.253300
     19 C1          4.3420    6.2630   -4.1180 cc        1 C94      0.384500
     20 C6          5.6050    6.8190   -4.4850 ce        1 C94     -0.186800
     21 C7          6.8330    6.3480   -4.1900 cd        1 C94     -0.082600
     22 S1          7.3090    4.9860   -3.3180 ss        1 C94     -0.022800
     23 C9          9.0570    5.3000   -3.5310 cc        1 C94      0.493800
     24 N3          9.9060    4.4910   -3.0190 n2        1 C94     -0.764100
     25 N2          9.2220    6.4830   -4.2910 ns        1 C94     -0.539400
     26 C8          8.0360    7.1070   -4.6840 c         1 C94      0.700700
     27 O1          8.0030    8.1460   -5.3520 o         1 C94     -0.555500
     28 H6N1        0.7950   -1.8080   -1.1490 hn        1 C94      0.458800
     29 H6N2        2.3690   -1.9360   -0.6650 hn        1 C94      0.458800
     30 H17        -0.0940    1.9190   -1.2270 ha        1 C94      0.178000
     31 H14         4.6830    3.1120   -2.0340 ha        1 C94      0.198000
     32 H18         0.4500    3.8930   -2.5930 ha        1 C94      0.175000
     33 H3          1.0570    5.8340   -3.8190 ha        1 C94      0.179000
     34 H2          2.7720    7.5940   -4.9730 ha        1 C94      0.193000
     35 H6          5.5270    7.7530   -5.0850 ha        1 C94      0.191000
     36 H3N1       10.1110    6.8560   -4.5300 hn        1 C94      0.358500
     37 H3N2       10.8810    4.6700   -3.1390 hn        1 C94      0.425400
     38 H63         1.9840   -1.0050   -1.9590 hn        1 C94      0.458800
@<TRIPOS>BOND
     1    1    2 2   
     2    2    3 2   
     3    2    4 1   
     4    2    5 1   
     5    4   28 1   
     6    4   29 1   
     7    4   38 1   
     8    5    6 ar  
     9    5   14 ar  
    10    6    7 1   
    11    6   11 ar  
    12    7    8 1   
    13    7    9 1   
    14    7   10 1   
    15   11   12 ar  
    16   11   31 1   
    17   12   13 ar  
    18   12   15 1   
    19   13   14 ar  
    20   13   32 1   
    21   14   30 1   
    22   15   16 1   
    23   15   17 2   
    24   16   19 1   
    25   17   18 1   
    26   17   33 1   
    27   18   19 2   
    28   18   34 1   
    29   19   20 1   
    30   20   21 2   
    31   20   35 1   
    32   21   22 1   
    33   21   26 1   
    34   22   23 1   
    35   23   24 2   
    36   23   25 1   
    37   24   37 1   
    38   25   26 1   
    39   25   36 1   
    40   26   27 2   
@<TRIPOS>SUBSTRUCTURE
     1 C94         1 TEMP              0 ****  ****    0 ROOT
