@<TRIPOS>MOLECULE
C95
   31    33     1     0     0
SMALL
bcc


@<TRIPOS>ATOM
      1 O4          5.6950    2.4570    0.0020 o         1 C95     -0.820300
      2 O3          6.7960    0.5110    0.0020 o         1 C95     -0.820300
      3 C16         4.4100    0.4440    0.0010 ca        1 C95     -0.086600
      4 C15         3.1960    1.1390    0.0010 ca        1 C95     -0.122000
      5 C14         1.9860    0.4540    0.0000 ca        1 C95     -0.112000
      6 C13         1.9710   -0.9520    0.0000 ca        1 C95     -0.211500
      7 C18         3.1920   -1.6520    0.0000 ca        1 C95     -0.112000
      8 C17         4.3940   -0.9570    0.0010 ca        1 C95     -0.122000
      9 C4          0.7370   -1.6880   -0.0010 cc        1 C95      0.418200
     10 O2         -0.4580   -0.9660   -0.0000 os        1 C95     -0.347800
     11 C3          0.4580   -3.0590   -0.0010 cd        1 C95     -0.318300
     12 C2         -0.9620   -3.1980   -0.0010 cd        1 C95     -0.177300
     13 C1         -1.5020   -1.9110   -0.0010 cc        1 C95      0.200500
     14 C6         -2.8550   -1.4840   -0.0010 ce        1 C95     -0.069800
     15 C7         -3.3470   -0.2270   -0.0000 cd        1 C95     -0.181600
     16 S1         -2.5270    1.2660    0.0010 ss        1 C95     -0.003800
     17 C9         -4.0180    2.2220    0.0010 cc        1 C95      0.478800
     18 N3         -3.9760    3.5080    0.0020 n2        1 C95     -0.798100
     19 N2         -5.1370    1.3490    0.0000 n         1 C95     -0.553400
     20 C19         5.7360    1.1960    0.0010 c         1 C95      0.905200
     21 C8         -4.8200   -0.0160   -0.0000 c         1 C95      0.713700
     22 O1         -5.6990   -0.8920   -0.0010 o         1 C95     -0.618500
     23 H15         3.2270    2.2420    0.0010 ha        1 C95      0.160500
     24 H17         5.3610   -1.4860    0.0010 ha        1 C95      0.160500
     25 H14         1.0330    1.0040    0.0000 ha        1 C95      0.119500
     26 H18         3.1880   -2.7510   -0.0000 ha        1 C95      0.119500
     27 HA          1.1850   -3.8660   -0.0010 ha        1 C95      0.164000
     28 H2         -1.5180   -4.1320   -0.0020 ha        1 C95      0.153000
     29 H6         -3.5850   -2.3220   -0.0010 ha        1 C95      0.157000
     30 H3N1       -6.0740    1.6660    0.0010 hn        1 C95      0.332500
     31 H3N2       -4.8440    4.0000    0.0020 hn        1 C95      0.391400
@<TRIPOS>BOND
     1    1   20 1   
     2    2   20 1   
     3    3    4 ar  
     4    3    8 ar  
     5    3   20 1   
     6    4    5 ar  
     7    4   23 1   
     8    5    6 ar  
     9    5   25 1   
    10    6    7 ar  
    11    6    9 1   
    12    7    8 ar  
    13    7   26 1   
    14    8   24 1   
    15    9   10 1   
    16    9   11 2   
    17   10   13 1   
    18   11   12 1   
    19   11   27 1   
    20   12   13 2   
    21   12   28 1   
    22   13   14 1   
    23   14   15 2   
    24   14   29 1   
    25   15   16 1   
    26   15   21 1   
    27   16   17 1   
    28   17   18 2   
    29   17   19 1   
    30   18   31 1   
    31   19   21 1   
    32   19   30 1   
    33   21   22 2   
@<TRIPOS>SUBSTRUCTURE
     1 C95         1 TEMP              0 ****  ****    0 ROOT
