@<TRIPOS>MOLECULE
C95
   31    24     1     0     0
SMALL
bcc


@<TRIPOS>ATOM
      1 O4         -1.7880   -0.5740    6.7890 o         1 C95     -0.554000
      2 O3         -3.6830   -0.6320    5.8240 o         1 C95     -0.554000
      3 C16        -1.7620   -0.6390    4.3910 c1        1 C95     -0.065000
      4 C15        -1.3230   -1.8610    3.8510 c1        1 C95     -0.118000
      5 C14        -0.6010   -1.8760    2.6460 c1        1 C95     -0.118000
      6 C13        -0.3220   -0.6810    1.9880 c1        1 C95     -0.107000
      7 C18        -0.7620    0.5400    2.5290 c1        1 C95     -0.107000
      8 C17        -1.4820    0.5550    3.7320 c1        1 C95     -0.123000
      9 C4          0.4070   -0.6930    0.8130 c1        1 C95      0.003500
     10 O2         -0.1110   -0.7180   -0.4500 os        1 C95     -0.090000
     11 C3          1.7940   -0.7420    0.7090 c1        1 C95     -0.177000
     12 C2          2.1100   -0.7960   -0.6040 c1        1 C95     -0.177000
     13 C1          0.9280   -0.7810   -1.3310 c1        1 C95      0.003500
     14 C6          0.8140   -0.9150   -2.8120 c1        1 C95      0.064000
     15 C7          0.7630    0.2020   -3.5970 c1        1 C95     -0.417000
     16 S1          0.8160    1.7040   -3.0920 s         1 C95      0.392000
     17 C9          0.7400    2.6690   -4.4050 c2        1 C95     -0.023000
     18 N3          0.7110    4.0330   -4.3930 n1        1 C95     -0.277000
     19 N2          0.6150    1.7710   -5.6420 n         1 C95     -0.394000
     20 C19        -2.4580   -0.6120    5.7590 c2        1 C95      0.354000
     21 C8          0.6470    0.2210   -5.1510 c2        1 C95      0.360000
     22 O1          0.6740   -0.7610   -5.8800 o         1 C95     -0.329000
     23 H15        -1.5270   -2.7320    4.3320 ha        1 C95      0.136500
     24 H17        -1.7960    1.4260    4.1180 ha        1 C95      0.161000
     25 H14        -0.2850   -2.7570    2.2560 ha        1 C95      0.136500
     26 H18        -0.5670    1.3760    2.0690 ha        1 C95      0.125000
     27 HA          2.4280   -0.6340    1.4440 DU        1 C95      0.158000
     28 H2          3.0410   -0.8450   -0.9880 DU        1 C95      0.158000
     29 H6          0.7740   -1.8020   -3.2200 ha        1 C95      0.172000
     30 H3N1        0.5410    2.0520   -6.4920 hn        1 C95      0.247000
     31 H3N2        0.6630    4.5050   -5.1940 DU        1 C95      0.158000
@<TRIPOS>BOND
     1    1   20 1   
     2    2   20 1   
     3    3    8 1   
     4    3   20 1   
     5    4    5 1   
     6    4   23 1   
     7    5   25 1   
     8    6    7 1   
     9    7   26 1   
    10    8   24 1   
    11    9   10 1   
    12    9   11 1   
    13   10   13 1   
    14   11   12 1   
    15   12   13 1   
    16   14   15 1   
    17   14   29 1   
    18   15   21 1   
    19   16   17 1   
    20   17   18 1   
    21   17   19 1   
    22   19   21 1   
    23   19   30 1   
    24   21   22 1   
@<TRIPOS>SUBSTRUCTURE
     1 C95         1 TEMP              0 ****  ****    0 ROOT
