@<TRIPOS>MOLECULE
C96
   37    29     1     0     0
SMALL
bcc


@<TRIPOS>ATOM
      1 O4         -4.9340    3.3840    3.6380 o         1 C96     -0.935500
      2 S2         -3.5250    3.6560    3.5560 ss        1 C96      2.865000
      3 O3         -3.1240    3.4640    4.9220 o         1 C96     -0.935500
      4 N6         -3.2440    5.1970    3.0630 n2        1 C96     -0.953000
      5 C16        -2.7090    2.5080    2.4790 c1        1 C96     -0.820000
      6 C15        -1.4380    2.0520    2.7880 c1        1 C96     -0.018000
      7 C14        -0.8250    1.1060    1.9810 c2        1 C96     -0.130000
      8 C13        -1.4840    0.6160    0.8640 c1        1 C96      0.037000
      9 C18        -2.7560    1.0730    0.5550 c1        1 C96     -0.140000
     10 C17        -3.3680    2.0190    1.3620 c2        1 C96     -0.021000
     11 C4         -0.9040   -0.3870    0.1030 c1        1 C96     -0.007500
     12 O2          0.0990   -0.2220   -0.8170 os        1 C96     -0.094000
     13 C3         -1.2390   -1.7250    0.1340 c1        1 C96     -0.159000
     14 C2         -0.4440   -2.3800   -0.7650 c1        1 C96     -0.159000
     15 C1          0.3870   -1.4490   -1.3560 c1        1 C96     -0.007500
     16 C6          1.3950   -1.7250   -2.4500 c1        1 C96      0.071000
     17 C7          2.6680   -2.0330   -2.1320 c1        1 C96     -0.369000
     18 S1          3.2630   -2.1450   -0.6670 s         1 C96      0.437000
     19 C9          4.8340   -2.5380   -0.8060 c2        1 C96     -0.035000
     20 N3          5.6620   -2.7540    0.1820 n1        1 C96     -0.257000
     21 N2          5.1590   -2.6540   -2.2830 n         1 C96     -0.388000
     22 C8          3.8070   -2.3400   -3.1310 c2        1 C96      0.351000
     23 C20         0.9730   -1.6560   -3.9010 c3        1 C96     -0.194000
     24 O1          3.7090   -2.3470   -4.3420 o         1 C96     -0.320000
     25 H6N1       -2.6360    5.7150    3.5070 hn        1 C96      0.243500
     26 H6N2       -3.7090    5.5430    2.3560 hn        1 C96      0.243500
     27 H17        -4.2640    2.3400    1.1440 ha        1 C96      0.158000
     28 H15        -0.9740    2.3960    3.5750 DU        1 C96      0.164000
     29 H18        -3.2200    0.7280   -0.2320 ha        1 C96      0.143000
     30 H14         0.0710    0.7840    2.2000 ha        1 C96      0.160000
     31 H3         -1.9230   -2.1320    0.6980 DU        1 C96      0.164000
     32 H2         -0.4600   -3.3370   -0.9550 DU        1 C96      0.164000
     33 H201        0.0010   -1.5470   -3.9540 hc        1 C96      0.107333
     34 H202        1.4110   -0.8930   -4.3330 hc        1 C96      0.107333
     35 H203        1.2350   -2.4830   -4.3570 hc        1 C96      0.107333
     36 H3N1        5.9730   -2.8640   -2.6350 hn        1 C96      0.256000
     37 H3N2        6.5330   -2.9710    0.0100 DU        1 C96      0.164000
@<TRIPOS>BOND
     1    1    2 1   
     2    2    3 1   
     3    4   25 1   
     4    4   26 1   
     5    5    6 1   
     6    5   10 1   
     7    6    7 1   
     8    7    8 1   
     9    7   30 1   
    10    9   10 1   
    11    9   29 1   
    12   10   27 1   
    13   11   12 1   
    14   11   13 1   
    15   12   15 1   
    16   13   14 1   
    17   14   15 1   
    18   16   17 1   
    19   16   23 1   
    20   17   22 1   
    21   18   19 1   
    22   19   20 1   
    23   19   21 1   
    24   21   22 1   
    25   21   36 1   
    26   22   24 1   
    27   23   33 1   
    28   23   34 1   
    29   23   35 1   
@<TRIPOS>SUBSTRUCTURE
     1 C96         1 TEMP              0 ****  ****    0 ROOT
