@<TRIPOS>MOLECULE
C96
   37    39     1     0     0
SMALL
bcc


@<TRIPOS>ATOM
      1 O4          6.3090    0.3300    0.9150 o         1 C96     -0.656300
      2 S2          5.3480    1.1080    0.2350 sy        1 C96      1.526200
      3 O3          5.1170    2.4200    0.6960 o         1 C96     -0.656300
      4 N6          5.7150    1.1550   -1.3230 n3        1 C96     -1.026700
      5 C16         3.8770    0.2680    0.2570 ca        1 C96     -0.375500
      6 C15         2.6630    0.9460    0.1030 ca        1 C96     -0.019500
      7 C14         1.4510    0.2650    0.1360 ca        1 C96     -0.135000
      8 C13         1.4340   -1.1250    0.3320 ca        1 C96     -0.070500
      9 C18         2.6470   -1.8130    0.5000 ca        1 C96     -0.135000
     10 C17         3.8490   -1.1170    0.4620 ca        1 C96     -0.019500
     11 C4          0.1890   -1.8520    0.3690 cc        1 C96      0.312200
     12 O2         -0.9810   -1.1200    0.1290 os        1 C96     -0.352800
     13 C3         -0.1320   -3.1830    0.6050 cd        1 C96     -0.236300
     14 C2         -1.5610   -3.2940    0.5110 cd        1 C96     -0.212300
     15 C1         -2.0520   -2.0250    0.2200 cc        1 C96      0.279500
     16 C6         -3.3810   -1.5100    0.0060 ce        1 C96     -0.043000
     17 C7         -3.6300   -0.2170   -0.3250 cd        1 C96     -0.147600
     18 S1         -2.4930    1.0330   -0.5510 ss        1 C96     -0.027800
     19 C9         -3.7200    2.2540   -0.9430 cc        1 C96      0.483800
     20 N3         -3.3700    3.4580   -1.2210 n2        1 C96     -0.789100
     21 N2         -5.0020    1.6560   -0.8830 n         1 C96     -0.548400
     22 C8         -5.0120    0.2960   -0.5460 c         1 C96      0.712700
     23 C20        -4.4920   -2.4830    0.1680 c3        1 C96     -0.071900
     24 O1         -6.0720   -0.3410   -0.4620 o         1 C96     -0.595500
     25 H6N1        6.2530    0.4640   -1.7800 hn        1 C96      0.448300
     26 H6N2        5.4480    1.8920   -1.9260 hn        1 C96      0.448300
     27 H17         4.8000   -1.6590    0.6140 ha        1 C96      0.157500
     28 H15         2.6680    2.0430   -0.0270 ha        1 C96      0.157500
     29 H18         2.6430   -2.9010    0.6650 ha        1 C96      0.151500
     30 H14         0.5000    0.8100    0.0120 ha        1 C96      0.151500
     31 H3          0.5560   -3.9970    0.8240 ha        1 C96      0.169000
     32 H2         -2.1320   -4.2100    0.6450 ha        1 C96      0.170000
     33 H201       -5.1990   -2.1220    0.9590 hc        1 C96      0.068033
     34 H202       -5.0740   -2.5570   -0.7870 hc        1 C96      0.068033
     35 H203       -4.1260   -3.4990    0.4480 hc        1 C96      0.068033
     36 H3N1       -5.8420    2.1520   -1.0600 hn        1 C96      0.342500
     37 H3N2       -4.0850    4.1200   -1.4350 hn        1 C96      0.404400
@<TRIPOS>BOND
     1    1    2 2   
     2    2    3 2   
     3    2    4 1   
     4    2    5 1   
     5    4   25 1   
     6    4   26 1   
     7    5    6 ar  
     8    5   10 ar  
     9    6    7 ar  
    10    6   28 1   
    11    7    8 ar  
    12    7   30 1   
    13    8    9 ar  
    14    8   11 1   
    15    9   10 ar  
    16    9   29 1   
    17   10   27 1   
    18   11   12 1   
    19   11   13 2   
    20   12   15 1   
    21   13   14 1   
    22   13   31 1   
    23   14   15 2   
    24   14   32 1   
    25   15   16 1   
    26   16   17 2   
    27   16   23 1   
    28   17   18 1   
    29   17   22 1   
    30   18   19 1   
    31   19   20 2   
    32   19   21 1   
    33   20   37 1   
    34   21   22 1   
    35   21   36 1   
    36   22   24 2   
    37   23   33 1   
    38   23   34 1   
    39   23   35 1   
@<TRIPOS>SUBSTRUCTURE
     1 C96         1 TEMP              0 ****  ****    0 ROOT
