@<TRIPOS>MOLECULE
C96
   38    40     1     0     0
SMALL
bcc


@<TRIPOS>ATOM
      1 O4          0.1440    0.0330   -0.0720 o         1 C96     -0.573800
      2 S2          1.2380    0.7940    0.2810 sy        1 C96      1.505200
      3 O3          1.4900    1.1260    1.5950 o         1 C96     -0.573800
      4 N6          2.6310   -0.5450    0.0390 n4        1 C96     -0.782500
      5 C16         1.7440    1.8230   -0.8060 ca        1 C96     -0.604500
      6 C15         2.6520    2.8620   -0.4740 ca        1 C96      0.023000
      7 C14         3.0460    3.8030   -1.4010 ca        1 C96     -0.158500
      8 C13         2.5420    3.7610   -2.7220 ca        1 C96      0.052500
      9 C18         1.6300    2.7380   -3.0700 ca        1 C96     -0.158500
     10 C17         1.2460    1.8010   -2.1350 ca        1 C96      0.023000
     11 C4          2.9370    4.7340   -3.6860 cc        1 C96      0.209200
     12 O2          3.8740    5.6970   -3.2640 os        1 C96     -0.351800
     13 C3          2.5910    4.9790   -5.0170 cd        1 C96     -0.141300
     14 C2          3.3300    6.1260   -5.4410 cd        1 C96     -0.245300
     15 C1          4.1040    6.5430   -4.3520 cc        1 C96      0.364500
     16 C6          5.0410    7.6240   -4.1680 ce        1 C96     -0.087000
     17 C7          5.7210    7.8100   -3.0080 cd        1 C96     -0.107600
     18 S1          5.6330    6.8750   -1.5930 ss        1 C96     -0.050800
     19 C9          6.8300    7.8590   -0.7080 cc        1 C96      0.495800
     20 N3          7.1430    7.5420    0.4930 n2        1 C96     -0.780100
     21 N2          7.2690    8.9070   -1.5490 n         1 C96     -0.541400
     22 C8          6.6940    8.9330   -2.8260 c         1 C96      0.707700
     23 C20         5.2270    8.5350   -5.3270 c3        1 C96     -0.071900
     24 O1          6.9900    9.7960   -3.6610 o         1 C96     -0.564500
     25 H6N1        3.3000   -0.2760   -0.6730 hn        1 C96      0.450133
     26 H6N2        2.2190   -1.4340   -0.2330 hn        1 C96      0.450133
     27 H17         0.5150    1.0180   -2.4160 ha        1 C96      0.166500
     28 H15         3.0340    2.9260    0.5630 ha        1 C96      0.166500
     29 H18         1.2210    2.7000   -4.0930 ha        1 C96      0.179000
     30 H14         3.7520    4.6060   -1.1200 ha        1 C96      0.179000
     31 H3          1.8890    4.4110   -5.6270 ha        1 C96      0.178000
     32 H2          3.2880    6.5800   -6.4300 ha        1 C96      0.190000
     33 H201        4.9770    9.5870   -5.0270 hc        1 C96      0.075033
     34 H202        4.5910    8.2480   -6.1970 hc        1 C96      0.075033
     35 H203        6.3030    8.5310   -5.6460 hc        1 C96      0.075033
     36 H3N1        7.9330    9.5890   -1.2670 hn        1 C96      0.355500
     37 H3N2        7.8130    8.1010    0.9780 hn        1 C96      0.420400
     38 H63         3.1350   -0.6870    0.9100 hn        1 C96      0.450133
@<TRIPOS>BOND
     1    1    2 2   
     2    2    3 2   
     3    2    4 1   
     4    2    5 1   
     5    4   25 1   
     6    4   26 1   
     7    4   38 1   
     8    5    6 ar  
     9    5   10 ar  
    10    6    7 ar  
    11    6   28 1   
    12    7    8 ar  
    13    7   30 1   
    14    8    9 ar  
    15    8   11 1   
    16    9   10 ar  
    17    9   29 1   
    18   10   27 1   
    19   11   12 1   
    20   11   13 2   
    21   12   15 1   
    22   13   14 1   
    23   13   31 1   
    24   14   15 2   
    25   14   32 1   
    26   15   16 1   
    27   16   17 2   
    28   16   23 1   
    29   17   18 1   
    30   17   22 1   
    31   18   19 1   
    32   19   20 2   
    33   19   21 1   
    34   20   37 1   
    35   21   22 1   
    36   21   36 1   
    37   22   24 2   
    38   23   33 1   
    39   23   34 1   
    40   23   35 1   
@<TRIPOS>SUBSTRUCTURE
     1 C96         1 TEMP              0 ****  ****    0 ROOT
