@<TRIPOS>MOLECULE
C96
   38    40     1     0     0
SMALL
bcc


@<TRIPOS>ATOM
      1 O4          0.1340    0.0510   -0.0510 o         1 C96     -0.573800
      2 S2          1.2470    0.7920    0.2860 sy        1 C96      1.505200
      3 O3          1.5360    1.1000    1.5980 o         1 C96     -0.573800
      4 N6          2.6140   -0.5630   -0.0110 nz        1 C96     -0.782500
      5 C16         1.7400    1.8290   -0.7990 ca        1 C96     -0.604500
      6 C15         2.6710    2.8510   -0.4740 ca        1 C96      0.023000
      7 C14         3.0550    3.8000   -1.3970 ca        1 C96     -0.158500
      8 C13         2.5180    3.7850   -2.7050 ca        1 C96      0.052500
      9 C18         1.5830    2.7800   -3.0450 ca        1 C96     -0.158500
     10 C17         1.2090    1.8340   -2.1140 ca        1 C96      0.023000
     11 C4          2.9030    4.7660   -3.6640 cc        1 C96      0.209200
     12 O2          3.8640    5.7100   -3.2520 os        1 C96     -0.351800
     13 C3          2.5280    5.0350   -4.9830 cd        1 C96     -0.141300
     14 C2          3.2720    6.1790   -5.4080 cd        1 C96     -0.245300
     15 C1          4.0780    6.5680   -4.3330 cc        1 C96      0.364500
     16 C6          5.0350    7.6340   -4.1570 ce        1 C96     -0.087000
     17 C7          5.7460    7.7930   -3.0110 cd        1 C96     -0.107600
     18 S1          5.6800    6.8390   -1.6080 ss        1 C96     -0.050800
     19 C9          6.9120    7.7920   -0.7400 cc        1 C96      0.495800
     20 N3          7.2510    7.4530    0.4490 n2        1 C96     -0.780100
     21 N2          7.3450    8.8470   -1.5760 ns        1 C96     -0.541400
     22 C8          6.7390    8.9000   -2.8370 c         1 C96      0.707700
     23 C20         5.2050    8.5600   -5.3060 c3        1 C96     -0.071900
     24 O1          7.0260    9.7710   -3.6670 o         1 C96     -0.564500
     25 H6N1        3.2690   -0.2920   -0.7360 hn        1 C96      0.450133
     26 H6N2        2.1830   -1.4420   -0.2850 hn        1 C96      0.450133
     27 H17         0.4610    1.0660   -2.3890 ha        1 C96      0.166500
     28 H15         3.0790    2.8940    0.5540 ha        1 C96      0.166500
     29 H18         1.1490    2.7620   -4.0580 ha        1 C96      0.179000
     30 H14         3.7790    4.5890   -1.1220 ha        1 C96      0.179000
     31 H3          1.8030    4.4870   -5.5830 ha        1 C96      0.178000
     32 H2          3.2120    6.6480   -6.3890 ha        1 C96      0.190000
     33 H201        4.9770    9.6100   -4.9850 hc        1 C96      0.075033
     34 H202        4.5430    8.2950   -6.1640 hc        1 C96      0.075033
     35 H203        6.2720    8.5460   -5.6520 hc        1 C96      0.075033
     36 H3N1        8.0250    9.5150   -1.3000 hn        1 C96      0.355500
     37 H3N2        7.9390    7.9960    0.9250 hn        1 C96      0.420400
     38 H63         3.1380   -0.7250    0.8450 hn        1 C96      0.450133
@<TRIPOS>BOND
     1    1    2 2   
     2    2    3 2   
     3    2    4 1   
     4    2    5 1   
     5    4   25 1   
     6    4   26 1   
     7    4   38 1   
     8    5    6 ar  
     9    5   10 ar  
    10    6    7 ar  
    11    6   28 1   
    12    7    8 ar  
    13    7   30 1   
    14    8    9 ar  
    15    8   11 1   
    16    9   10 ar  
    17    9   29 1   
    18   10   27 1   
    19   11   12 1   
    20   11   13 2   
    21   12   15 1   
    22   13   14 1   
    23   13   31 1   
    24   14   15 2   
    25   14   32 1   
    26   15   16 1   
    27   16   17 2   
    28   16   23 1   
    29   17   18 1   
    30   17   22 1   
    31   18   19 1   
    32   19   20 2   
    33   19   21 1   
    34   20   37 1   
    35   21   22 1   
    36   21   36 1   
    37   22   24 2   
    38   23   33 1   
    39   23   34 1   
    40   23   35 1   
@<TRIPOS>SUBSTRUCTURE
     1 C96         1 TEMP              0 ****  ****    0 ROOT
