@<TRIPOS>MOLECULE
C99
   29    29     1     0     0
SMALL
bcc


@<TRIPOS>ATOM
      1 N1         -1.9670   -0.1390    1.8520 n3        1 C99     -0.911800
      2 CA1        -1.5660   -0.8620    0.6710 c3        1 C99      0.157500
      3 CB1        -2.7570   -1.2160   -0.2540 c3        1 C99      0.143100
      4 CG1        -3.6040   -2.3100    0.3700 c3        1 C99     -0.123100
      5 OG1        -3.5550   -0.0930   -0.5940 oh        1 C99     -0.607800
      6 C1         -0.4380   -0.1390   -0.1930 c3        1 C99      0.409600
      7 O1         -0.1640   -1.0580   -1.2310 oh        1 C99     -0.644800
      8 N2         -0.9390    1.1510   -0.7350 n         1 C99     -0.604900
      9 N3          0.7330    0.2270    0.6760 n         1 C99     -0.451800
     10 C2          1.0120    1.5980    0.5060 c         1 C99      0.627500
     11 O2          1.8900    2.2560    1.0660 o         1 C99     -0.563500
     12 CA2        -0.0890    2.1930   -0.4120 c         1 C99      0.619500
     13 CA3         1.7900   -0.7330    0.8770 c3        1 C99     -0.060000
     14 C3          2.7950   -0.9880   -0.2820 c         1 C99      0.905600
     15 O3          2.5450   -0.5160   -1.4310 o         1 C99     -0.825800
     16 O4         -0.2180    3.3740   -0.7560 o         1 C99     -0.608500
     17 OXT         3.8040   -1.6790    0.0100 o         1 C99     -0.825800
     18 HN11       -1.2060   -0.0800    2.5010 hn        1 C99      0.358800
     19 HN12       -2.2640    0.7890    1.6180 hn        1 C99      0.358800
     20 HA1        -1.1040   -1.8410    0.9970 h1        1 C99      0.082700
     21 HB1        -2.3430   -1.5590   -1.2470 h1        1 C99      0.102700
     22 HG11       -3.9960   -1.9910    1.3650 hc        1 C99      0.040367
     23 HG12       -4.4690   -2.5420   -0.2970 hc        1 C99      0.040367
     24 HG13       -2.9930   -3.2340    0.5050 hc        1 C99      0.040367
     25 HOG1       -4.0070    0.2000    0.2050 ho        1 C99      0.398000
     26 HO1         0.6890   -0.8470   -1.6660 ho        1 C99      0.485000
     27 HN2        -1.6360    1.1550   -1.4340 hn        1 C99      0.344500
     28 HA31        2.3830   -0.3790    1.7660 h1        1 C99      0.057200
     29 HA32        1.3040   -1.7170    1.1240 h1        1 C99      0.057200
@<TRIPOS>BOND
     1    1    2 1   
     2    1   18 1   
     3    1   19 1   
     4    2    3 1   
     5    2    6 1   
     6    2   20 1   
     7    3    4 1   
     8    3    5 1   
     9    3   21 1   
    10    4   22 1   
    11    4   23 1   
    12    4   24 1   
    13    5   25 1   
    14    6    7 1   
    15    6    8 1   
    16    6    9 1   
    17    7   26 1   
    18    8   12 1   
    19    8   27 1   
    20    9   10 1   
    21    9   13 1   
    22   10   11 2   
    23   10   12 1   
    24   12   16 2   
    25   13   14 1   
    26   13   28 1   
    27   13   29 1   
    28   14   15 1   
    29   14   17 1   
@<TRIPOS>SUBSTRUCTURE
     1 C99         1 TEMP              0 ****  ****    0 ROOT
