@<TRIPOS>MOLECULE
C99
   29    29     1     0     0
SMALL
bcc


@<TRIPOS>ATOM
      1 N1         -1.7990    0.7290    0.4280 n3        1 C99     -0.889800
      2 CA1        -0.3880    0.5600    0.6530 c3        1 C99      0.138500
      3 CB1        -0.1240    0.3890    2.1630 c3        1 C99      0.111100
      4 CG1        -0.0150    1.7300    2.8070 c3        1 C99     -0.100100
      5 OG1        -1.1790   -0.3170    2.7390 oh        1 C99     -0.626800
      6 C1          0.0860   -0.6450   -0.0700 c3        1 C99      0.466600
      7 O1          1.2410   -1.1550    0.5610 oh        1 C99     -0.658800
      8 N2         -0.9460   -1.6480   -0.0720 n         1 C99     -0.598900
      9 N3          0.3930   -0.3040   -1.4550 n         1 C99     -0.441800
     10 C2         -0.4510   -1.0520   -2.2780 c         1 C99      0.643500
     11 O2         -0.4870   -1.0090   -3.4830 o         1 C99     -0.577500
     12 CA2        -1.3000   -1.9060   -1.4060 c         1 C99      0.629500
     13 CA3         1.4670    0.5550   -1.8990 c3        1 C99     -0.047000
     14 C3          2.0210    0.0380   -3.2360 c         1 C99      0.904600
     15 O3          1.7770    0.6660   -4.3050 o         1 C99     -0.828300
     16 O4         -2.0990   -2.7200   -1.7780 o         1 C99     -0.611500
     17 OXT         2.7770   -0.9660   -3.2570 o         1 C99     -0.828300
     18 HN11       -2.2090    0.9580    1.2140 hn        1 C99      0.345800
     19 HN12       -1.9330    1.3900   -0.1920 hn        1 C99      0.345800
     20 HA1         0.0970    1.3570    0.3220 h1        1 C99      0.081700
     21 HB1         0.6980   -0.0970    2.2940 h1        1 C99      0.068700
     22 HG11        0.6540    2.2560    2.3470 hc        1 C99      0.038033
     23 HG12        0.2450    1.6200    3.7520 hc        1 C99      0.038033
     24 HG13       -0.8630    2.1760    2.7590 hc        1 C99      0.038033
     25 HOG1       -0.9570   -0.5590    3.5760 ho        1 C99      0.427000
     26 HO1         1.3010   -2.0460    0.4050 ho        1 C99      0.494000
     27 HN2        -1.3120   -2.0370    0.6600 hn        1 C99      0.326500
     28 HA31        2.1840    0.5560   -1.2270 h1        1 C99      0.056700
     29 HA32        1.1230    1.4790   -2.0190 h1        1 C99      0.056700
@<TRIPOS>BOND
     1    1    2 1   
     2    1   18 1   
     3    1   19 1   
     4    2    3 1   
     5    2    6 1   
     6    2   20 1   
     7    3    4 1   
     8    3    5 1   
     9    3   21 1   
    10    4   22 1   
    11    4   23 1   
    12    4   24 1   
    13    5   25 1   
    14    6    7 1   
    15    6    8 1   
    16    6    9 1   
    17    7   26 1   
    18    8   12 1   
    19    8   27 1   
    20    9   10 1   
    21    9   13 1   
    22   10   11 2   
    23   10   12 1   
    24   12   16 2   
    25   13   14 1   
    26   13   28 1   
    27   13   29 1   
    28   14   15 1   
    29   14   17 1   
@<TRIPOS>SUBSTRUCTURE
     1 C99         1 TEMP              0 ****  ****    0 ROOT
