@<TRIPOS>MOLECULE
C9A
   70    74     1     0     0
SMALL
bcc


@<TRIPOS>ATOM
      1 C1          0.0110    0.4220    0.4110 c3        1 C9A      0.156100
      2 N2          1.4120    0.3760    0.0590 n3        1 C9A     -0.733600
      3 C3          2.1680   -0.5410    0.9000 c3        1 C9A      0.164800
      4 C4          3.6640   -0.5950    0.5260 c3        1 C9A      0.186800
      5 N5          4.2640    0.7270    0.4780 nh        1 C9A     -0.638000
      6 C6          3.5160    1.6590   -0.3550 c3        1 C9A      0.186800
      7 C7          2.0190    1.6980    0.0110 c3        1 C9A      0.164800
      8 C8          5.6700    0.7870    0.3760 ca        1 C9A      0.168600
      9 C9          6.3670    1.9870    0.7410 ca        1 C9A      0.072900
     10 F10         5.6940    3.1040    1.1130 f         1 C9A     -0.130900
     11 C11         7.7620    2.0200    0.7330 ca        1 C9A     -0.071000
     12 C12         8.5190    0.9010    0.3720 ca        1 C9A     -0.194600
     13 C13         9.9940    0.9980    0.4130 c         1 C9A      0.607900
     14 O14        10.5670    2.0500    0.7270 o         1 C9A     -0.537100
     15 C15        10.6850   -0.2390    0.0560 cc        1 C9A     -0.328400
     16 C16         9.9830   -1.3560   -0.3280 cd        1 C9A      0.179000
     17 N17         8.6140   -1.4080   -0.4080 na        1 C9A     -0.511800
     18 C18         7.9770   -2.6250   -0.8740 c3        1 C9A      0.245100
     19 C19         7.4500   -3.5260    0.2080 ca        1 C9A     -0.058300
     20 C20         8.2810   -3.9590    1.2460 ca        1 C9A     -0.142500
     21 C21         7.7890   -4.8330    2.2120 ca        1 C9A     -0.015500
     22 C22         6.4660   -5.2900    2.1630 ca        1 C9A     -0.370500
     23 C23         5.6480   -4.8590    1.1120 ca        1 C9A     -0.015500
     24 C24         6.1280   -3.9810    0.1440 ca        1 C9A     -0.142500
     25 S25         5.8840   -6.3690    3.3160 sy        1 C9A      1.396300
     26 C26         5.4320   -5.2770    4.5260 c3        1 C9A     -0.362300
     27 O27         4.7390   -7.0090    2.8250 o         1 C9A     -0.652800
     28 O28         6.9310   -7.1690    3.7900 o         1 C9A     -0.652800
     29 C29         7.8540   -0.2890   -0.0080 ca        1 C9A      0.185600
     30 C30         6.4420   -0.3280    0.0080 ca        1 C9A     -0.223000
     31 C31        12.1440   -0.3430    0.0860 c         1 C9A      0.668300
     32 O32        12.8230   -1.3420   -0.1940 o         1 C9A     -0.580000
     33 O33        12.7880    0.7960    0.4680 os        1 C9A     -0.395900
     34 C34        14.2260    0.7310    0.5040 c3        1 C9A      0.184700
     35 C35        14.7330    2.0670    0.9340 ca        1 C9A     -0.095300
     36 C36        13.8740    3.1360    1.2040 ca        1 C9A     -0.108000
     37 C37        14.3930    4.3680    1.6010 ca        1 C9A     -0.127500
     38 C38        15.7750    4.5270    1.7280 ca        1 C9A      0.017400
     39 Cl39       16.4130    6.0290    2.2120 cl        1 C9A     -0.101400
     40 C40        16.6420    3.4620    1.4600 ca        1 C9A     -0.127500
     41 C41        16.1180    2.2350    1.0640 ca        1 C9A     -0.108000
     42 H1         -0.5230    1.0770   -0.3250 h1        1 C9A      0.035700
     43 H1A        -0.4110   -0.6150    0.3450 h1        1 C9A      0.035700
     44 H1B        -0.1770    0.8200    1.4460 h1        1 C9A      0.035700
     45 H3          1.7440   -1.5730    0.7540 h1        1 C9A      0.043450
     46 H3A         2.0790   -0.2790    1.9950 h1        1 C9A      0.043450
     47 H4          3.7650   -1.1320   -0.4630 h1        1 C9A      0.047700
     48 H4A         4.1950   -1.1990    1.3140 h1        1 C9A      0.047700
     49 H6          3.9330    2.6950   -0.2080 h1        1 C9A      0.047700
     50 H6A         3.6180    1.3870   -1.4460 h1        1 C9A      0.047700
     51 H7          1.4920    2.2900   -0.7890 h1        1 C9A      0.043450
     52 H7A         1.9000    2.2500    0.9890 h1        1 C9A      0.043450
     53 H11         8.2900    2.9460    1.0270 ha        1 C9A      0.181000
     54 H16        10.5310   -2.2830   -0.6100 h4        1 C9A      0.181000
     55 H18         7.1430   -2.3380   -1.5790 h1        1 C9A      0.080700
     56 H18A        8.7330   -3.2160   -1.4740 h1        1 C9A      0.080700
     57 H20         9.3250   -3.6130    1.3000 ha        1 C9A      0.145500
     58 H21         8.4550   -5.1880    3.0190 ha        1 C9A      0.161500
     59 H23         4.6110   -5.2340    1.0470 ha        1 C9A      0.161500
     60 H24         5.4680   -3.6540   -0.6740 ha        1 C9A      0.145500
     61 H26         5.0980   -5.8160    5.4500 h1        1 C9A      0.117033
     62 H26A        6.2630   -4.6020    4.8460 h1        1 C9A      0.117033
     63 H26B        4.5820   -4.6170    4.2270 h1        1 C9A      0.117033
     64 H30         5.9300   -1.2670   -0.2590 ha        1 C9A      0.145000
     65 H34        14.6010    0.4650   -0.5200 h1        1 C9A      0.062200
     66 H34A       14.5320   -0.0720    1.2280 h1        1 C9A      0.062200
     67 H36        12.7810    3.0010    1.1020 ha        1 C9A      0.158000
     68 H37        13.7130    5.2060    1.8130 ha        1 C9A      0.147000
     69 H40        17.7300    3.5910    1.5600 ha        1 C9A      0.147000
     70 H41        16.7950    1.3950    0.8520 ha        1 C9A      0.158000
@<TRIPOS>BOND
     1    1    2 1   
     2    1   42 1   
     3    1   43 1   
     4    1   44 1   
     5    2    3 1   
     6    2    7 1   
     7    3    4 1   
     8    3   45 1   
     9    3   46 1   
    10    4    5 1   
    11    4   47 1   
    12    4   48 1   
    13    5    6 1   
    14    5    8 1   
    15    6    7 1   
    16    6   49 1   
    17    6   50 1   
    18    7   51 1   
    19    7   52 1   
    20    8    9 ar  
    21    8   30 ar  
    22    9   10 1   
    23    9   11 ar  
    24   11   12 ar  
    25   11   53 1   
    26   12   13 1   
    27   12   29 ar  
    28   13   14 2   
    29   13   15 1   
    30   15   16 2   
    31   15   31 1   
    32   16   17 1   
    33   16   54 1   
    34   17   18 1   
    35   17   29 1   
    36   18   19 1   
    37   18   55 1   
    38   18   56 1   
    39   19   20 ar  
    40   19   24 ar  
    41   20   21 ar  
    42   20   57 1   
    43   21   22 ar  
    44   21   58 1   
    45   22   23 ar  
    46   22   25 1   
    47   23   24 ar  
    48   23   59 1   
    49   24   60 1   
    50   25   26 1   
    51   25   27 2   
    52   25   28 2   
    53   26   61 1   
    54   26   62 1   
    55   26   63 1   
    56   29   30 ar  
    57   30   64 1   
    58   31   32 2   
    59   31   33 1   
    60   33   34 1   
    61   34   35 1   
    62   34   65 1   
    63   34   66 1   
    64   35   36 ar  
    65   35   41 ar  
    66   36   37 ar  
    67   36   67 1   
    68   37   38 ar  
    69   37   68 1   
    70   38   39 1   
    71   38   40 ar  
    72   40   41 ar  
    73   40   69 1   
    74   41   70 1   
@<TRIPOS>SUBSTRUCTURE
     1 C9A         1 TEMP              0 ****  ****    0 ROOT
