@<TRIPOS>MOLECULE
C9A
   70    74     1     0     0
SMALL
bcc


@<TRIPOS>ATOM
      1 C1          0.0110    0.4190    0.4100 c3        1 C9A      0.156100
      2 N2          1.4120    0.3720    0.0590 n3        1 C9A     -0.733600
      3 C3          2.1680   -0.5420    0.9020 c3        1 C9A      0.164800
      4 C4          3.6640   -0.5980    0.5280 c3        1 C9A      0.186800
      5 N5          4.2640    0.7250    0.4760 nh        1 C9A     -0.638000
      6 C6          3.5170    1.6550   -0.3590 c3        1 C9A      0.186800
      7 C7          2.0190    1.6950    0.0060 c3        1 C9A      0.164800
      8 C8          5.6700    0.7840    0.3740 ca        1 C9A      0.168600
      9 C9          6.3670    1.9860    0.7360 ca        1 C9A      0.072900
     10 F10         5.6940    3.1030    1.1040 f         1 C9A     -0.130900
     11 C11         7.7620    2.0190    0.7280 ca        1 C9A     -0.071000
     12 C12         8.5190    0.8990    0.3700 ca        1 C9A     -0.194600
     13 C13         9.9940    0.9960    0.4100 c         1 C9A      0.607900
     14 O14        10.5670    2.0490    0.7210 o         1 C9A     -0.537100
     15 C15        10.6850   -0.2420    0.0580 cc        1 C9A     -0.328400
     16 C16         9.9830   -1.3600   -0.3230 cd        1 C9A      0.179000
     17 N17         8.6140   -1.4130   -0.4030 na        1 C9A     -0.511800
     18 C18         7.9770   -2.6310   -0.8640 c3        1 C9A      0.245100
     19 C19         7.4500   -3.5290    0.2200 ca        1 C9A     -0.058300
     20 C20         8.2800   -3.9580    1.2600 ca        1 C9A     -0.142500
     21 C21         7.7880   -4.8300    2.2280 ca        1 C9A     -0.015500
     22 C22         6.4660   -5.2870    2.1800 ca        1 C9A     -0.370500
     23 C23         5.6480   -4.8590    1.1280 ca        1 C9A     -0.015500
     24 C24         6.1280   -3.9840    0.1570 ca        1 C9A     -0.142500
     25 S25         5.8830   -6.3620    3.3370 sy        1 C9A      1.396300
     26 C26         5.4310   -5.2660    4.5430 c3        1 C9A     -0.362300
     27 O27         4.7380   -7.0040    2.8470 o         1 C9A     -0.652800
     28 O28         6.9300   -7.1610    3.8130 o         1 C9A     -0.652800
     29 C29         7.8540   -0.2930   -0.0070 ca        1 C9A      0.185600
     30 C30         6.4430   -0.3320    0.0100 ca        1 C9A     -0.223000
     31 C31        12.1450   -0.3460    0.0870 c         1 C9A      0.668300
     32 O32        12.8230   -1.3460   -0.1880 o         1 C9A     -0.580000
     33 O33        12.7880    0.7950    0.4630 os        1 C9A     -0.395900
     34 C34        14.2260    0.7310    0.4990 c3        1 C9A      0.184700
     35 C35        14.7340    2.0690    0.9200 ca        1 C9A     -0.095300
     36 C36        13.8740    3.1390    1.1870 ca        1 C9A     -0.108000
     37 C37        14.3930    4.3730    1.5760 ca        1 C9A     -0.127500
     38 C38        15.7760    4.5340    1.6980 ca        1 C9A      0.017400
     39 CL39       16.4130    6.0390    2.1720 cl        1 C9A     -0.101400
     40 C40        16.6430    3.4690    1.4330 ca        1 C9A     -0.127500
     41 C41        16.1180    2.2400    1.0440 ca        1 C9A     -0.108000
     42 H1         -0.1770    0.8200    1.4440 h1        1 C9A      0.035700
     43 H1A        -0.5230    1.0720   -0.3290 h1        1 C9A      0.035700
     44 H1B        -0.4110   -0.6180    0.3470 h1        1 C9A      0.035700
     45 H3          2.0790   -0.2770    1.9960 h1        1 C9A      0.043450
     46 H3A         1.7440   -1.5750    0.7590 h1        1 C9A      0.043450
     47 H4          3.7650   -1.1370   -0.4590 h1        1 C9A      0.047700
     48 H4A         4.1950   -1.1980    1.3190 h1        1 C9A      0.047700
     49 H6          3.9330    2.6900   -0.2160 h1        1 C9A      0.047700
     50 H6A         3.6180    1.3790   -1.4490 h1        1 C9A      0.047700
     51 H7          1.4920    2.2840   -0.7960 h1        1 C9A      0.043450
     52 H7A         1.9000    2.2500    0.9820 h1        1 C9A      0.043450
     53 H11         8.2900    2.9450    1.0180 ha        1 C9A      0.181000
     54 H16        10.5310   -2.2880   -0.6020 h4        1 C9A      0.181000
     55 H18         8.7330   -3.2240   -1.4630 h1        1 C9A      0.080700
     56 H18A        7.1430   -2.3470   -1.5710 h1        1 C9A      0.080700
     57 H20         9.3250   -3.6120    1.3130 ha        1 C9A      0.145500
     58 H21         8.4540   -5.1820    3.0370 ha        1 C9A      0.161500
     59 H23         4.6100   -5.2350    1.0640 ha        1 C9A      0.161500
     60 H24         5.4680   -3.6600   -0.6620 ha        1 C9A      0.145500
     61 H26         5.0960   -5.8020    5.4680 h1        1 C9A      0.117033
     62 H26A        6.2620   -4.5900    4.8620 h1        1 C9A      0.117033
     63 H26B        4.5810   -4.6070    4.2420 h1        1 C9A      0.117033
     64 H30         5.9300   -1.2720   -0.2540 ha        1 C9A      0.145000
     65 H34        14.5320   -0.0680    1.2270 h1        1 C9A      0.062200
     66 H34A       14.6010    0.4580   -0.5240 h1        1 C9A      0.062200
     67 H36        12.7810    3.0020    1.0880 ha        1 C9A      0.158000
     68 H37        13.7130    5.2120    1.7850 ha        1 C9A      0.147000
     69 H40        17.7310    3.5990    1.5290 ha        1 C9A      0.147000
     70 H41        16.7960    1.3990    0.8350 ha        1 C9A      0.158000
@<TRIPOS>BOND
     1    1    2 1   
     2    1   42 1   
     3    1   43 1   
     4    1   44 1   
     5    2    3 1   
     6    2    7 1   
     7    3    4 1   
     8    3   45 1   
     9    3   46 1   
    10    4    5 1   
    11    4   47 1   
    12    4   48 1   
    13    5    6 1   
    14    5    8 1   
    15    6    7 1   
    16    6   49 1   
    17    6   50 1   
    18    7   51 1   
    19    7   52 1   
    20    8    9 ar  
    21    8   30 ar  
    22    9   10 1   
    23    9   11 ar  
    24   11   12 ar  
    25   11   53 1   
    26   12   13 1   
    27   12   29 ar  
    28   13   14 2   
    29   13   15 1   
    30   15   16 2   
    31   15   31 1   
    32   16   17 1   
    33   16   54 1   
    34   17   18 1   
    35   17   29 1   
    36   18   19 1   
    37   18   55 1   
    38   18   56 1   
    39   19   20 ar  
    40   19   24 ar  
    41   20   21 ar  
    42   20   57 1   
    43   21   22 ar  
    44   21   58 1   
    45   22   23 ar  
    46   22   25 1   
    47   23   24 ar  
    48   23   59 1   
    49   24   60 1   
    50   25   26 1   
    51   25   27 2   
    52   25   28 2   
    53   26   61 1   
    54   26   62 1   
    55   26   63 1   
    56   29   30 ar  
    57   30   64 1   
    58   31   32 2   
    59   31   33 1   
    60   33   34 1   
    61   34   35 1   
    62   34   65 1   
    63   34   66 1   
    64   35   36 ar  
    65   35   41 ar  
    66   36   37 ar  
    67   36   67 1   
    68   37   38 ar  
    69   37   68 1   
    70   38   39 1   
    71   38   40 ar  
    72   40   41 ar  
    73   40   69 1   
    74   41   70 1   
@<TRIPOS>SUBSTRUCTURE
     1 C9A         1 TEMP              0 ****  ****    0 ROOT
