@<TRIPOS>MOLECULE
C9A
   70    74     1     0     0
SMALL
bcc


@<TRIPOS>ATOM
      1 C1          7.1110    4.8370   -0.5640 c3        1 C9A      0.156100
      2 N2          5.9100    4.2280   -0.0380 n3        1 C9A     -0.733600
      3 C3          5.6760    2.8980   -0.5790 c3        1 C9A      0.164800
      4 C4          4.3970    2.2430   -0.0170 c3        1 C9A      0.186800
      5 N5          3.2360    3.1050   -0.1570 nh        1 C9A     -0.638000
      6 C6          3.4550    4.4440    0.3740 c3        1 C9A      0.186800
      7 C7          4.7430    5.0880   -0.1760 c3        1 C9A      0.164800
      8 C8          1.9760    2.5270    0.1070 ca        1 C9A      0.168600
      9 C9          0.7820    3.1420   -0.3980 ca        1 C9A      0.072900
     10 F10         0.8290    4.3220   -1.0650 f         1 C9A     -0.130900
     11 C11        -0.4570    2.5240   -0.2220 ca        1 C9A     -0.071000
     12 C12        -0.5760    1.3010    0.4450 ca        1 C9A     -0.194600
     13 C13        -1.9160    0.6890    0.5720 c         1 C9A      0.607900
     14 O14        -2.9300    1.2480    0.1310 o         1 C9A     -0.537100
     15 C15        -1.9220   -0.6050    1.2500 cc        1 C9A     -0.328400
     16 C16        -0.7630   -1.1430    1.7570 cd        1 C9A      0.179000
     17 N17         0.4630   -0.5330    1.6730 na        1 C9A     -0.511800
     18 C18         1.6140   -1.1670    2.2860 c3        1 C9A      0.245100
     19 C19         2.4940   -1.9440    1.3470 ca        1 C9A     -0.058300
     20 C20         1.9590   -2.9420    0.5270 ca        1 C9A     -0.142500
     21 C21         2.7970   -3.6850   -0.3000 ca        1 C9A     -0.015500
     22 C22         4.1760   -3.4490   -0.3280 ca        1 C9A     -0.370500
     23 C23         4.7010   -2.4550    0.5070 ca        1 C9A     -0.015500
     24 C24         3.8720   -1.7030    1.3350 ca        1 C9A     -0.142500
     25 S25         5.1890   -4.3690   -1.3080 sy        1 C9A      1.396300
     26 C26         5.0430   -3.5090   -2.7560 c3        1 C9A     -0.362300
     27 O27         6.5080   -4.2690   -0.8460 o         1 C9A     -0.652800
     28 O28         4.6490   -5.6500   -1.4800 o         1 C9A     -0.652800
     29 C29         0.5850    0.6830    0.9670 ca        1 C9A      0.185600
     30 C30         1.8410    1.3010    0.7820 ca        1 C9A     -0.223000
     31 C31        -3.1510   -1.3790    1.4260 c         1 C9A      0.668300
     32 O32        -3.2600   -2.4830    1.9790 o         1 C9A     -0.580000
     33 O33        -4.2690   -0.7930    0.9120 os        1 C9A     -0.395900
     34 C34        -5.5000   -1.5250    1.0710 c3        1 C9A      0.184700
     35 C35        -6.5940   -0.7190    0.4570 ca        1 C9A     -0.095300
     36 C36        -6.3590    0.5310   -0.1260 ca        1 C9A     -0.108000
     37 C37        -7.4130    1.2500   -0.6870 ca        1 C9A     -0.127500
     38 C38        -8.7050    0.7170   -0.6630 ca        1 C9A      0.017400
     39 CL39       -9.9940    1.5920   -1.3470 cl        1 C9A     -0.101400
     40 C40        -8.9480   -0.5330   -0.0830 ca        1 C9A     -0.127500
     41 C41        -7.8910   -1.2460    0.4750 ca        1 C9A     -0.108000
     42 H1          7.2750    5.8170   -0.0450 h1        1 C9A      0.035700
     43 H1A         7.9810    4.1630   -0.3480 h1        1 C9A      0.035700
     44 H1B         7.0690    5.0210   -1.6730 h1        1 C9A      0.035700
     45 H3          5.6120    2.9070   -1.7060 h1        1 C9A      0.043450
     46 H3A         6.5460    2.2470   -0.2860 h1        1 C9A      0.043450
     47 H4          4.2100    1.2970   -0.5970 h1        1 C9A      0.047700
     48 H4A         4.5810    1.9690    1.0630 h1        1 C9A      0.047700
     49 H6          2.5900    5.1000    0.0790 h1        1 C9A      0.047700
     50 H6A         3.5130    4.4190    1.5020 h1        1 C9A      0.047700
     51 H7          4.9330    6.0250    0.4180 h1        1 C9A      0.043450
     52 H7A         4.5670    5.3860   -1.2510 h1        1 C9A      0.043450
     53 H11        -1.3690    3.0000   -0.6240 ha        1 C9A      0.181000
     54 H16        -0.7930   -2.1230    2.2830 h4        1 C9A      0.181000
     55 H18         2.2180   -0.3690    2.8110 h1        1 C9A      0.080700
     56 H18A        1.2450   -1.8830    3.0810 h1        1 C9A      0.080700
     57 H20         0.8760   -3.1450    0.5350 ha        1 C9A      0.145500
     58 H21         2.3720   -4.4860   -0.9330 ha        1 C9A      0.161500
     59 H23         5.7930   -2.2790    0.5150 ha        1 C9A      0.161500
     60 H24         4.3060   -0.9260    1.9830 ha        1 C9A      0.145500
     61 H26         5.4750   -2.4800   -2.7020 h1        1 C9A      0.117033
     62 H26A        5.5820   -4.0290   -3.5900 h1        1 C9A      0.117033
     63 H26B        3.9850   -3.3920   -3.0980 h1        1 C9A      0.117033
     64 H30         2.7460    0.8000    1.1630 ha        1 C9A      0.145000
     65 H34        -5.3940   -2.5210    0.5610 h1        1 C9A      0.062200
     66 H34A       -5.6820   -1.6900    2.1670 h1        1 C9A      0.062200
     67 H36        -5.3340    0.9460   -0.1400 ha        1 C9A      0.158000
     68 H37        -7.2240    2.2330   -1.1440 ha        1 C9A      0.147000
     69 H40        -9.9660   -0.9500   -0.0670 ha        1 C9A      0.147000
     70 H41        -8.0780   -2.2290    0.9330 ha        1 C9A      0.158000
@<TRIPOS>BOND
     1    1    2 1   
     2    1   42 1   
     3    1   43 1   
     4    1   44 1   
     5    2    3 1   
     6    2    7 1   
     7    3    4 1   
     8    3   45 1   
     9    3   46 1   
    10    4    5 1   
    11    4   47 1   
    12    4   48 1   
    13    5    6 1   
    14    5    8 1   
    15    6    7 1   
    16    6   49 1   
    17    6   50 1   
    18    7   51 1   
    19    7   52 1   
    20    8    9 ar  
    21    8   30 ar  
    22    9   10 1   
    23    9   11 ar  
    24   11   12 ar  
    25   11   53 1   
    26   12   13 1   
    27   12   29 ar  
    28   13   14 2   
    29   13   15 1   
    30   15   16 2   
    31   15   31 1   
    32   16   17 1   
    33   16   54 1   
    34   17   18 1   
    35   17   29 1   
    36   18   19 1   
    37   18   55 1   
    38   18   56 1   
    39   19   20 ar  
    40   19   24 ar  
    41   20   21 ar  
    42   20   57 1   
    43   21   22 ar  
    44   21   58 1   
    45   22   23 ar  
    46   22   25 1   
    47   23   24 ar  
    48   23   59 1   
    49   24   60 1   
    50   25   26 1   
    51   25   27 2   
    52   25   28 2   
    53   26   61 1   
    54   26   62 1   
    55   26   63 1   
    56   29   30 ar  
    57   30   64 1   
    58   31   32 2   
    59   31   33 1   
    60   33   34 1   
    61   34   35 1   
    62   34   65 1   
    63   34   66 1   
    64   35   36 ar  
    65   35   41 ar  
    66   36   37 ar  
    67   36   67 1   
    68   37   38 ar  
    69   37   68 1   
    70   38   39 1   
    71   38   40 ar  
    72   40   41 ar  
    73   40   69 1   
    74   41   70 1   
@<TRIPOS>SUBSTRUCTURE
     1 C9A         1 TEMP              0 ****  ****    0 ROOT
