@<TRIPOS>MOLECULE
C9A
   70    74     1     0     0
SMALL
bcc


@<TRIPOS>ATOM
      1 C1          0.0140    0.4510    0.4180 c3        1 C9A      0.156100
      2 N2          1.4140    0.3980    0.0650 n3        1 C9A     -0.733600
      3 C3          2.1680   -0.5180    0.9080 c3        1 C9A      0.164800
      4 C4          3.6630   -0.5800    0.5310 c3        1 C9A      0.186800
      5 N5          4.2680    0.7400    0.4760 nh        1 C9A     -0.638000
      6 C6          3.5220    1.6720   -0.3590 c3        1 C9A      0.186800
      7 C7          2.0260    1.7180    0.0090 c3        1 C9A      0.164800
      8 C8          5.6740    0.7940    0.3710 ca        1 C9A      0.168600
      9 C9          6.3770    1.9930    0.7300 ca        1 C9A      0.072900
     10 F10         5.7090    3.1140    1.0990 f         1 C9A     -0.130900
     11 C11         7.7720    2.0200    0.7200 ca        1 C9A     -0.071000
     12 C12         8.5230    0.8970    0.3620 ca        1 C9A     -0.194600
     13 C13         9.9980    0.9880    0.3990 c         1 C9A      0.607900
     14 O14        10.5760    2.0400    0.7070 o         1 C9A     -0.537100
     15 C15        10.6840   -0.2540    0.0470 cc        1 C9A     -0.328400
     16 C16         9.9770   -1.3690   -0.3320 cd        1 C9A      0.179000
     17 N17         8.6080   -1.4160   -0.4090 na        1 C9A     -0.511800
     18 C18         7.9650   -2.6320   -0.8680 c3        1 C9A      0.245100
     19 C19         7.4370   -3.5270    0.2180 ca        1 C9A     -0.058300
     20 C20         8.2680   -3.9590    1.2560 ca        1 C9A     -0.142500
     21 C21         7.7760   -4.8270    2.2270 ca        1 C9A     -0.015500
     22 C22         6.4510   -5.2790    2.1830 ca        1 C9A     -0.370500
     23 C23         5.6320   -4.8480    1.1320 ca        1 C9A     -0.015500
     24 C24         6.1140   -3.9770    0.1590 ca        1 C9A     -0.142500
     25 S25         5.8670   -6.3500    3.3420 sy        1 C9A      1.396300
     26 C26         5.4230   -5.2520    4.5480 c3        1 C9A     -0.362300
     27 O27         4.7180   -6.9880    2.8560 o         1 C9A     -0.652800
     28 O28         6.9120   -7.1530    3.8160 o         1 C9A     -0.652800
     29 C29         7.8530   -0.2920   -0.0130 ca        1 C9A      0.185600
     30 C30         6.4410   -0.3260    0.0070 ca        1 C9A     -0.223000
     31 C31        12.1430   -0.3630    0.0750 c         1 C9A      0.668300
     32 O32        12.8170   -1.3660   -0.2040 o         1 C9A     -0.580000
     33 O33        12.7920    0.7730    0.4550 os        1 C9A     -0.395900
     34 C34        14.2300    0.7030    0.4890 c3        1 C9A      0.184700
     35 C35        14.7430    2.0370    0.9180 ca        1 C9A     -0.095300
     36 C36        13.8880    3.1110    1.1840 ca        1 C9A     -0.108000
     37 C37        14.4120    4.3410    1.5800 ca        1 C9A     -0.127500
     38 C38        15.7960    4.4940    1.7090 ca        1 C9A      0.017400
     39 CL39       16.4390    5.9930    2.1920 cl        1 C9A     -0.101400
     40 C40        16.6580    3.4240    1.4450 ca        1 C9A     -0.127500
     41 C41        16.1280    2.1990    1.0500 ca        1 C9A     -0.108000
     42 H1         -0.1710    0.8540    1.4520 h1        1 C9A      0.035700
     43 H1A        -0.5190    1.1060   -0.3200 h1        1 C9A      0.035700
     44 H1B        -0.4130   -0.5840    0.3570 h1        1 C9A      0.035700
     45 H3          2.0820   -0.2510    2.0010 h1        1 C9A      0.043450
     46 H3A         1.7400   -1.5490    0.7670 h1        1 C9A      0.043450
     47 H4          4.1930   -1.1820    1.3210 h1        1 C9A      0.047700
     48 H4A         3.7600   -1.1210   -0.4560 h1        1 C9A      0.047700
     49 H6          3.9430    2.7060   -0.2170 h1        1 C9A      0.047700
     50 H6A         3.6210    1.3950   -1.4490 h1        1 C9A      0.047700
     51 H7          1.4990    2.3080   -0.7920 h1        1 C9A      0.043450
     52 H7A         1.9110    2.2750    0.9850 h1        1 C9A      0.043450
     53 H11         8.3040    2.9450    1.0080 ha        1 C9A      0.181000
     54 H16        10.5210   -2.2990   -0.6110 h4        1 C9A      0.181000
     55 H18         8.7170   -3.2280   -1.4680 h1        1 C9A      0.080700
     56 H18A        7.1300   -2.3450   -1.5730 h1        1 C9A      0.080700
     57 H20         9.3140   -3.6170    1.3070 ha        1 C9A      0.145500
     58 H21         8.4420   -5.1810    3.0340 ha        1 C9A      0.161500
     59 H23         4.5930   -5.2200    1.0710 ha        1 C9A      0.161500
     60 H24         5.4520   -3.6510   -0.6580 ha        1 C9A      0.145500
     61 H26         6.2580   -4.5790    4.8640 h1        1 C9A      0.117033
     62 H26A        5.0890   -5.7850    5.4750 h1        1 C9A      0.117033
     63 H26B        4.5750   -4.5890    4.2490 h1        1 C9A      0.117033
     64 H30         5.9240   -1.2640   -0.2560 ha        1 C9A      0.145000
     65 H34        14.6020    0.4350   -0.5360 h1        1 C9A      0.062200
     66 H34A       14.5330   -0.1010    1.2120 h1        1 C9A      0.062200
     67 H36        12.7950    2.9820    1.0790 ha        1 C9A      0.158000
     68 H37        13.7360    5.1840    1.7880 ha        1 C9A      0.147000
     69 H40        17.7460    3.5470    1.5480 ha        1 C9A      0.147000
     70 H41        16.8020    1.3540    0.8420 ha        1 C9A      0.158000
@<TRIPOS>BOND
     1    1    2 1   
     2    1   42 1   
     3    1   43 1   
     4    1   44 1   
     5    2    3 1   
     6    2    7 1   
     7    3    4 1   
     8    3   45 1   
     9    3   46 1   
    10    4    5 1   
    11    4   47 1   
    12    4   48 1   
    13    5    6 1   
    14    5    8 1   
    15    6    7 1   
    16    6   49 1   
    17    6   50 1   
    18    7   51 1   
    19    7   52 1   
    20    8    9 ar  
    21    8   30 ar  
    22    9   10 1   
    23    9   11 ar  
    24   11   12 ar  
    25   11   53 1   
    26   12   13 1   
    27   12   29 ar  
    28   13   14 2   
    29   13   15 1   
    30   15   16 2   
    31   15   31 1   
    32   16   17 1   
    33   16   54 1   
    34   17   18 1   
    35   17   29 1   
    36   18   19 1   
    37   18   55 1   
    38   18   56 1   
    39   19   20 ar  
    40   19   24 ar  
    41   20   21 ar  
    42   20   57 1   
    43   21   22 ar  
    44   21   58 1   
    45   22   23 ar  
    46   22   25 1   
    47   23   24 ar  
    48   23   59 1   
    49   24   60 1   
    50   25   26 1   
    51   25   27 2   
    52   25   28 2   
    53   26   61 1   
    54   26   62 1   
    55   26   63 1   
    56   29   30 ar  
    57   30   64 1   
    58   31   32 2   
    59   31   33 1   
    60   33   34 1   
    61   34   35 1   
    62   34   65 1   
    63   34   66 1   
    64   35   36 ar  
    65   35   41 ar  
    66   36   37 ar  
    67   36   67 1   
    68   37   38 ar  
    69   37   68 1   
    70   38   39 1   
    71   38   40 ar  
    72   40   41 ar  
    73   40   69 1   
    74   41   70 1   
@<TRIPOS>SUBSTRUCTURE
     1 C9A         1 TEMP              0 ****  ****    0 ROOT
