@<TRIPOS>MOLECULE
C9A
   70    67     1     0     0
SMALL
bcc


@<TRIPOS>ATOM
      1 C1         -8.5810    3.0210    0.2790 c3        1 C9A     -0.118000
      2 N2         -7.1220    3.0280    0.5080 n3        1 C9A     -0.258000
      3 C3         -6.4510    2.7140   -0.7080 c3        1 C9A     -0.067000
      4 C4         -4.9450    2.5520   -0.5170 c3        1 C9A     -0.068000
      5 N5         -4.6260    1.6470    0.5340 n3        1 C9A     -0.232000
      6 C6         -5.2970    1.9620    1.7520 c3        1 C9A     -0.068000
      7 C7         -6.8020    2.1230    1.5610 c3        1 C9A     -0.067000
      8 C8         -3.1750    1.6460    0.7580 c2        1 C9A      0.033000
      9 C9         -2.5520    2.6290    1.5410 c2        1 C9A      0.036000
     10 F10        -2.9600    3.7890    2.0410 f         1 C9A     -0.097000
     11 C11        -1.1570    2.5930    1.7410 c1        1 C9A     -0.086000
     12 C12        -0.3890    1.5700    1.1570 c1        1 C9A     -0.147000
     13 C13         1.1250    1.6010    1.2740 c2        1 C9A      0.323000
     14 O14         1.6690    2.4820    1.9200 o         1 C9A     -0.287000
     15 C15         1.9240    0.5620    0.6390 c2        1 C9A     -0.296000
     16 C16         1.2530   -0.5210   -0.1240 c1        1 C9A      0.103000
     17 N17        -0.1920   -0.5410   -0.2330 n2        1 C9A     -0.190000
     18 C18        -0.8440   -1.5770   -1.0160 c3        1 C9A      0.004000
     19 C19        -0.1370   -2.9320   -0.7700 c2        1 C9A     -0.060000
     20 C20        -0.5730   -4.0710   -1.4300 c2        1 C9A     -0.136000
     21 C21         0.1220   -5.2710   -1.2830 c1        1 C9A     -0.020000
     22 C22         1.2490   -5.3260   -0.4750 c1        1 C9A     -0.805000
     23 C23         1.6840   -4.1880    0.1850 c1        1 C9A     -0.019000
     24 C24         0.9900   -2.9880    0.0380 c1        1 C9A     -0.135000
     25 S25         2.1870   -6.8600   -0.3420 s4        1 C9A      2.075800
     26 C26         1.4770   -7.9180    0.9280 c2        1 C9A     -0.940000
     27 O27         2.2580   -7.5420   -1.6140 o         1 C9A     -0.537400
     28 O28         3.5840   -6.5990   -0.0850 o         1 C9A     -0.537400
     29 C29        -1.0140    0.5810    0.3710 c2        1 C9A      0.071000
     30 C30        -2.4070    0.6190    0.1710 c2        1 C9A     -0.148000
     31 C31         3.4330    0.5020    0.8850 c2        1 C9A      0.372000
     32 O32         3.8850   -0.2880    1.6830 o         1 C9A     -0.394000
     33 O33         4.3100    1.3610    0.1590 os        1 C9A     -0.228000
     34 C34         5.7070    1.0680    0.3530 c3        1 C9A      0.023000
     35 C35         6.5430    1.9240   -0.5960 c2        1 C9A     -0.114000
     36 C36         6.7920    1.4850   -1.8900 c2        1 C9A     -0.099000
     37 C37         7.5760    2.2500   -2.7420 c1        1 C9A     -0.133000
     38 C38         8.1100    3.4520   -2.3030 c1        1 C9A     -0.053000
     39 CL39        9.0770    4.4180   -3.3760 cl        1 C9A     -0.021000
     40 C40         7.8610    3.8890   -1.0120 c1        1 C9A     -0.134000
     41 C41         7.0760    3.1240   -0.1580 c1        1 C9A     -0.097000
     42 H1         -8.8080    3.6800   -0.4190 h1        1 C9A      0.073000
     43 H1A        -9.0440    3.2540    1.1110 h1        1 C9A      0.073000
     44 H1B        -8.8640    2.1200   -0.0140 h1        1 C9A      0.073000
     45 H3         -6.6130    3.4300   -1.3510 h1        1 C9A      0.078250
     46 H3A        -6.8160    1.8810   -1.0640 h1        1 C9A      0.078250
     47 H4         -4.5530    3.4350   -0.3100 h1        1 C9A      0.088500
     48 H4A        -4.5580    2.2230   -1.3430 h1        1 C9A      0.088500
     49 H6         -4.9290    2.8040    2.1100 h1        1 C9A      0.088500
     50 H6A        -5.1330    1.2430    2.4000 h1        1 C9A      0.088500
     51 H7         -7.1950    2.4550    2.3950 h1        1 C9A      0.078250
     52 H7A        -7.1870    1.2550    1.3560 h1        1 C9A      0.078250
     53 H11        -0.7230    3.2800    2.2880 ha        1 C9A      0.183000
     54 H16         1.7850   -1.2200   -0.5520 ha        1 C9A      0.191000
     55 H18        -1.7840   -1.6460   -0.7480 h1        1 C9A      0.110000
     56 H18A       -0.7910   -1.3490   -1.9720 h1        1 C9A      0.110000
     57 H20        -1.3670   -4.0320   -2.0000 ha        1 C9A      0.150000
     58 H21        -0.1820   -6.0640   -1.7430 ha        1 C9A      0.163000
     59 H23         2.4720   -4.2260    0.7510 ha        1 C9A      0.164000
     60 H24         1.2940   -2.1920    0.5000 ha        1 C9A      0.150000
     61 H26         0.5320   -8.0990    0.7150 ha        1 C9A      0.155000
     62 H26A        1.5370   -7.4670    1.8030 ha        1 C9A      0.155000
     63 H26B        1.9750   -8.7700    0.9620 ha        1 C9A      0.155000
     64 H30        -2.8510   -0.1070   -0.3190 ha        1 C9A      0.155000
     65 H34         5.8700    0.1250    0.1680 h1        1 C9A      0.114000
     66 H34A        5.9600    1.2700    1.2860 h1        1 C9A      0.114000
     67 H36         6.4160    0.6380   -2.2000 ha        1 C9A      0.160000
     68 H37         7.7530    1.9400   -3.6560 ha        1 C9A      0.148000
     69 H40         8.2380    4.7370   -0.7020 ha        1 C9A      0.146000
     70 H41         6.9020    3.4310    0.7450 ha        1 C9A      0.142000
@<TRIPOS>BOND
     1    1    2 1   
     2    1   42 1   
     3    1   43 1   
     4    1   44 1   
     5    2    3 1   
     6    2    7 1   
     7    3    4 1   
     8    3   45 1   
     9    3   46 1   
    10    4    5 1   
    11    4   47 1   
    12    4   48 1   
    13    5    6 1   
    14    5    8 1   
    15    6    7 1   
    16    6   49 1   
    17    6   50 1   
    18    7   51 1   
    19    7   52 1   
    20    8    9 1   
    21    8   30 1   
    22    9   10 1   
    23    9   11 1   
    24   11   53 1   
    25   12   13 1   
    26   12   29 1   
    27   13   14 1   
    28   13   15 1   
    29   15   16 1   
    30   15   31 1   
    31   16   54 1   
    32   17   18 1   
    33   17   29 1   
    34   18   19 1   
    35   18   55 1   
    36   18   56 1   
    37   19   20 1   
    38   19   24 1   
    39   20   21 1   
    40   20   57 1   
    41   21   58 1   
    42   22   23 1   
    43   22   25 1   
    44   23   59 1   
    45   24   60 1   
    46   25   27 1   
    47   25   28 1   
    48   26   61 1   
    49   26   62 1   
    50   26   63 1   
    51   29   30 1   
    52   30   64 1   
    53   31   32 1   
    54   31   33 1   
    55   33   34 1   
    56   34   35 1   
    57   34   65 1   
    58   34   66 1   
    59   35   36 1   
    60   35   41 1   
    61   36   37 1   
    62   36   67 1   
    63   37   68 1   
    64   38   39 1   
    65   38   40 1   
    66   40   69 1   
    67   41   70 1   
@<TRIPOS>SUBSTRUCTURE
     1 C9A         1 TEMP              0 ****  ****    0 ROOT
