@<TRIPOS>MOLECULE
C9H
   24    24     1     0     0
SMALL
bcc


@<TRIPOS>ATOM
      1 CAA         0.0640    0.0000   -0.1540 c3        1 C9H     -0.093100
      2 CAB         6.1210   -0.0020    6.8210 cc        1 C9H      0.512900
      3 CAC         1.5650   -0.0000   -0.0210 c3        1 C9H     -0.080400
      4 CAD         1.9900   -0.0000    1.4320 c3        1 C9H     -0.075400
      5 CAE         3.5000   -0.0010    1.5580 c3        1 C9H     -0.078400
      6 CAF         3.9130   -0.0010    3.0090 c3        1 C9H     -0.015300
      7 NAG         7.4350   -0.0030    6.4510 nd        1 C9H     -0.523800
      8 NAH         7.4120   -0.0030    5.1170 na        1 C9H     -0.143400
      9 NAI         5.2490   -0.0020    5.7230 nc        1 C9H     -0.702000
     10 SAJ         5.6870   -0.0020    3.0040 ss        1 C9H     -0.234400
     11 CAK         6.0820   -0.0020    4.6440 cd        1 C9H      0.476800
     12 HAA        -0.3760   -0.9050    0.3310 hc        1 C9H      0.035033
     13 HAAA       -0.3760    0.9050    0.3310 hc        1 C9H      0.035033
     14 HAAB       -0.2290    0.0000   -1.2320 hc        1 C9H      0.035033
     15 HAC         1.9890    0.9020   -0.5350 hc        1 C9H      0.040700
     16 HACA        1.9890   -0.9030   -0.5350 hc        1 C9H      0.040700
     17 HAD         1.5690   -0.9030    1.9480 hc        1 C9H      0.045700
     18 HADA        1.5700    0.9030    1.9480 hc        1 C9H      0.045700
     19 HAE         3.9180   -0.9060    1.0410 hc        1 C9H      0.054700
     20 HAEA        3.9190    0.9040    1.0410 hc        1 C9H      0.054700
     21 HAF         3.5200   -0.9020    3.5390 h1        1 C9H      0.085700
     22 HAFA        3.5210    0.9010    3.5390 h1        1 C9H      0.085700
     23 HNAH        8.2490   -0.0030    4.5840 hn        1 C9H      0.331700
     24 HAB         5.7710   -0.0020    7.8580 h5        1 C9H      0.071100
@<TRIPOS>BOND
     1    1    3 1   
     2    1   12 1   
     3    1   13 1   
     4    1   14 1   
     5    2    7 2   
     6    2    9 1   
     7    2   24 1   
     8    3    4 1   
     9    3   15 1   
    10    3   16 1   
    11    4    5 1   
    12    4   17 1   
    13    4   18 1   
    14    5    6 1   
    15    5   19 1   
    16    5   20 1   
    17    6   10 1   
    18    6   21 1   
    19    6   22 1   
    20    7    8 1   
    21    8   11 1   
    22    8   23 1   
    23    9   11 2   
    24   10   11 1   
@<TRIPOS>SUBSTRUCTURE
     1 C9H         1 TEMP              0 ****  ****    0 ROOT
