@<TRIPOS>MOLECULE
C9H
   24    24     1     0     0
SMALL
bcc


@<TRIPOS>ATOM
      1 CAA         0.0680    0.0010   -0.1600 c3        1 C9H     -0.093100
      2 CAB         6.1140   -0.0040    6.8250 cc        1 C9H      0.512900
      3 CAC         1.5690    0.0010   -0.0240 c3        1 C9H     -0.080400
      4 CAD         1.9920    0.0010    1.4300 c3        1 C9H     -0.075400
      5 CAE         3.5020    0.0010    1.5580 c3        1 C9H     -0.078400
      6 CAF         3.9120   -0.0000    3.0090 c3        1 C9H     -0.015300
      7 NAG         7.4280   -0.0060    6.4580 nd        1 C9H     -0.523800
      8 NAH         7.4080   -0.0050    5.1240 na        1 C9H     -0.143400
      9 NAI         5.2440   -0.0020    5.7260 nc        1 C9H     -0.702000
     10 SAJ         5.6860   -0.0020    3.0080 ss        1 C9H     -0.234400
     11 CAK         6.0780   -0.0030    4.6490 cd        1 C9H      0.476800
     12 HAA        -0.3720   -0.9040    0.3240 hc        1 C9H      0.035033
     13 HAAA       -0.3720    0.9060    0.3250 hc        1 C9H      0.035033
     14 HAAB       -0.2230    0.0010   -1.2380 hc        1 C9H      0.035033
     15 HAC         1.9940    0.9040   -0.5370 hc        1 C9H      0.040700
     16 HACA        1.9940   -0.9010   -0.5380 hc        1 C9H      0.040700
     17 HAD         1.5710   -0.9030    1.9450 hc        1 C9H      0.045700
     18 HADA        1.5710    0.9040    1.9450 hc        1 C9H      0.045700
     19 HAE         3.9210   -0.9040    1.0420 hc        1 C9H      0.054700
     20 HAEA        3.9210    0.9060    1.0420 hc        1 C9H      0.054700
     21 HAF         3.5180   -0.9010    3.5390 h1        1 C9H      0.085700
     22 HAFA        3.5200    0.9010    3.5390 h1        1 C9H      0.085700
     23 HNAH        8.2460   -0.0060    4.5920 hn        1 C9H      0.331700
     24 HAB         5.7620   -0.0040    7.8610 h5        1 C9H      0.071100
@<TRIPOS>BOND
     1    1    3 1   
     2    1   12 1   
     3    1   13 1   
     4    1   14 1   
     5    2    7 2   
     6    2    9 1   
     7    2   24 1   
     8    3    4 1   
     9    3   15 1   
    10    3   16 1   
    11    4    5 1   
    12    4   17 1   
    13    4   18 1   
    14    5    6 1   
    15    5   19 1   
    16    5   20 1   
    17    6   10 1   
    18    6   21 1   
    19    6   22 1   
    20    7    8 1   
    21    8   11 1   
    22    8   23 1   
    23    9   11 2   
    24   10   11 1   
@<TRIPOS>SUBSTRUCTURE
     1 C9H         1 TEMP              0 ****  ****    0 ROOT
