@<TRIPOS>MOLECULE
C9H
   24    22     1     0     0
SMALL
bcc


@<TRIPOS>ATOM
      1 CAA        -3.9200   -0.9150   -1.8450 c3        1 C9H     -0.093100
      2 CAB         4.7730    0.9450    2.5010 c1        1 C9H      0.290800
      3 CAC        -2.4090   -0.9850   -1.8830 c3        1 C9H     -0.080400
      4 CAD        -1.8490   -0.5340   -0.5530 c3        1 C9H     -0.075400
      5 CAE        -0.3480   -0.7210   -0.5480 c3        1 C9H     -0.078400
      6 CAF         0.2580    0.0910    0.5760 c3        1 C9H     -0.015300
      7 NAG         4.5210    2.2160    2.1570 ne        1 C9H     -0.311400
      8 NAH         3.3310    2.2490    1.5330 ne        1 C9H     -0.462700
      9 NAI         3.7410    0.1920    2.0900 nf        1 C9H     -0.615700
     10 SAJ         1.9600   -0.3590    0.7790 ss        1 C9H     -0.131300
     11 CAK         2.8500    0.9990    1.4920 cf        1 C9H      0.529200
     12 HAA        -4.2790   -1.1230   -2.7330 hc        1 C9H      0.035033
     13 HAAA       -4.1980   -0.0120   -1.5830 hc        1 C9H      0.035033
     14 HAAB       -4.2610   -1.5630   -1.1940 hc        1 C9H      0.035033
     15 HAB         5.5680    0.6240    2.9670 DU        1 C9H      0.245000
     16 HAC        -2.0730   -0.4020   -2.5930 hc        1 C9H      0.040700
     17 HACA       -2.1300   -1.9060   -2.0590 hc        1 C9H      0.040700
     18 HAD        -2.0610    0.4110   -0.4130 hc        1 C9H      0.045700
     19 HADA       -2.2460   -1.0670    0.1660 hc        1 C9H      0.045700
     20 HAE        -0.1380   -1.6670   -0.4160 hc        1 C9H      0.054700
     21 HAEA        0.0210   -0.4210   -1.4020 hc        1 C9H      0.054700
     22 HAF        -0.2280   -0.0870    1.4060 h1        1 C9H      0.085700
     23 HAFA        0.1960    1.0430    0.3600 h1        1 C9H      0.085700
     24 HNAH        2.9220    2.9920    1.1970 DU        1 C9H      0.245000
@<TRIPOS>BOND
     1    1    3 1   
     2    1   12 1   
     3    1   13 1   
     4    1   14 1   
     5    2    7 2   
     6    2    9 2   
     7    3    4 1   
     8    3   16 1   
     9    3   17 1   
    10    4    5 1   
    11    4   18 1   
    12    4   19 1   
    13    5    6 1   
    14    5   20 1   
    15    5   21 1   
    16    6   10 1   
    17    6   22 1   
    18    6   23 1   
    19    7    8 1   
    20    8   11 2   
    21    9   11 1   
    22   10   11 1   
@<TRIPOS>SUBSTRUCTURE
     1 C9H         1 TEMP              0 ****  ****    0 ROOT
