@<TRIPOS>MOLECULE
C9H
   24    24     1     0     0
SMALL
bcc


@<TRIPOS>ATOM
      1 CAA         5.6330   -0.7280    0.0000 c3        1 C9H     -0.093100
      2 CAB        -3.5810   -1.3940    0.0020 cc        1 C9H      0.512900
      3 CAC         4.4750    0.2370   -0.0000 c3        1 C9H     -0.080400
      4 CAD         3.1480   -0.4920    0.0000 c3        1 C9H     -0.075400
      5 CAE         1.9890    0.4840   -0.0000 c3        1 C9H     -0.078400
      6 CAF         0.6730   -0.2520    0.0000 c3        1 C9H     -0.015300
      7 NAG        -4.2510   -0.2050    0.0010 nd        1 C9H     -0.523800
      8 NAH        -3.2940    0.7240   -0.0000 na        1 C9H     -0.143400
      9 NAI        -2.1890   -1.2320    0.0020 nc        1 C9H     -0.702000
     10 SAJ        -0.5800    1.0040   -0.0010 ss        1 C9H     -0.234400
     11 CAK        -2.0180    0.1200    0.0000 cd        1 C9H      0.476800
     12 HAA         5.6020   -1.3810    0.9060 hc        1 C9H      0.035033
     13 HAAA        5.6010   -1.3830   -0.9040 hc        1 C9H      0.035033
     14 HAAB        6.6010   -0.1710   -0.0000 hc        1 C9H      0.035033
     15 HAC         4.5370    0.9010    0.9020 hc        1 C9H      0.040700
     16 HACA        4.5370    0.9000   -0.9040 hc        1 C9H      0.040700
     17 HAD         3.0820   -1.1550   -0.9020 hc        1 C9H      0.045700
     18 HADA        3.0820   -1.1540    0.9040 hc        1 C9H      0.045700
     19 HAE         2.0580    1.1460    0.9040 hc        1 C9H      0.054700
     20 HAEA        2.0580    1.1450   -0.9060 hc        1 C9H      0.054700
     21 HAF         0.5770   -0.9050   -0.9000 h1        1 C9H      0.085700
     22 HAFA        0.5770   -0.9040    0.9020 h1        1 C9H      0.085700
     23 HNAH       -3.5110    1.6930   -0.0010 hn        1 C9H      0.331700
     24 HAB        -4.0650   -2.3750    0.0030 h5        1 C9H      0.071100
@<TRIPOS>BOND
     1    1    3 1   
     2    1   12 1   
     3    1   13 1   
     4    1   14 1   
     5    2    7 2   
     6    2    9 1   
     7    2   24 1   
     8    3    4 1   
     9    3   15 1   
    10    3   16 1   
    11    4    5 1   
    12    4   17 1   
    13    4   18 1   
    14    5    6 1   
    15    5   19 1   
    16    5   20 1   
    17    6   10 1   
    18    6   21 1   
    19    6   22 1   
    20    7    8 1   
    21    8   11 1   
    22    8   23 1   
    23    9   11 2   
    24   10   11 1   
@<TRIPOS>SUBSTRUCTURE
     1 C9H         1 TEMP              0 ****  ****    0 ROOT
