@<TRIPOS>MOLECULE
C9M
   28    28     1     0     0
SMALL
bcc


@<TRIPOS>ATOM
      1 C2          2.5810   -1.1190   -0.0930 ca        1 C9M      0.115100
      2 O12         3.8200   -1.7000   -0.2170 oh        1 C9M     -0.494100
      3 C3          1.4730   -1.9700   -0.0280 ca        1 C9M     -0.138000
      4 C4          0.1950   -1.4310    0.0990 ca        1 C9M     -0.113000
      5 C5         -0.0020   -0.0460    0.1640 ca        1 C9M     -0.056800
      6 C7         -1.3260    0.5370    0.3000 ce        1 C9M     -0.117200
      7 C8         -2.4730   -0.0900    0.0080 c2        1 C9M     -0.154200
      8 C9         -3.7950    0.5710    0.1740 c3        1 C9M      0.156600
      9 O10        -4.7930   -0.3800   -0.2030 os        1 C9M     -0.420600
     10 C11        -6.1050    0.1410   -0.0870 c3        1 C9M      0.116700
     11 C6          1.1100    0.8120    0.1070 ca        1 C9M     -0.153000
     12 C1          2.3910    0.2820   -0.0230 ca        1 C9M      0.041100
     13 O13         3.5590    1.0280   -0.0820 os        1 C9M     -0.349900
     14 C14         3.3930    2.4390   -0.1530 c3        1 C9M      0.121700
     15 H1          4.4810   -0.9930   -0.2650 ho        1 C9M      0.436000
     16 H2          1.6280   -3.0570   -0.0780 ha        1 C9M      0.153000
     17 H3         -0.6680   -2.1110    0.1560 ha        1 C9M      0.140000
     18 H4         -1.3410    1.5800    0.6660 ha        1 C9M      0.120000
     19 H5         -2.5090   -1.1230   -0.3740 ha        1 C9M      0.147000
     20 H6         -3.9610    0.8810    1.2420 h1        1 C9M      0.036700
     21 H7         -3.8770    1.4790   -0.4850 h1        1 C9M      0.036700
     22 H8         -6.3240    0.4290    0.9710 h1        1 C9M      0.033700
     23 H9         -6.2400    1.0260   -0.7570 h1        1 C9M      0.033700
     24 H10        -6.7690   -0.7000   -0.4100 h1        1 C9M      0.033700
     25 H11         0.9580    1.8990    0.1630 ha        1 C9M      0.138000
     26 H12         4.4410    2.8180   -0.2610 h1        1 C9M      0.045367
     27 H13         2.7760    2.7210   -1.0410 h1        1 C9M      0.045367
     28 H14         2.9290    2.8250    0.7860 h1        1 C9M      0.045367
@<TRIPOS>BOND
     1    1    2 1   
     2    1    3 ar  
     3    1   12 ar  
     4    2   15 1   
     5    3    4 ar  
     6    3   16 1   
     7    4    5 ar  
     8    4   17 1   
     9    5    6 1   
    10    5   11 ar  
    11    6    7 2   
    12    6   18 1   
    13    7    8 1   
    14    7   19 1   
    15    8    9 1   
    16    8   20 1   
    17    8   21 1   
    18    9   10 1   
    19   10   22 1   
    20   10   23 1   
    21   10   24 1   
    22   11   12 ar  
    23   11   25 1   
    24   12   13 1   
    25   13   14 1   
    26   14   26 1   
    27   14   27 1   
    28   14   28 1   
@<TRIPOS>SUBSTRUCTURE
     1 C9M         1 TEMP              0 ****  ****    0 ROOT
