@<TRIPOS>MOLECULE
C9M
   28    23     1     0     0
SMALL
bcc


@<TRIPOS>ATOM
      1 C2         -0.7390    1.3200   -2.2640 c1        1 C9M      0.040000
      2 O12        -1.4660    1.4010   -3.4860 o         1 C9M     -0.249000
      3 C3          0.6530    1.3090   -2.2870 c1        1 C9M     -0.152000
      4 C4          1.3740    1.2470   -1.0880 c1        1 C9M     -0.096000
      5 C5          0.7000    1.1960    0.1290 c1        1 C9M     -0.060000
      6 C7          1.4800    1.3500    1.4510 c2        1 C9M     -0.129000
      7 C8          1.9510    0.2650    2.0800 c1        1 C9M     -0.146000
      8 C9          1.7150   -1.1420    1.4760 c2        1 C9M     -0.001000
      9 O10         1.6620   -2.1040    2.5230 os        1 C9M     -0.278000
     10 C11         1.0880   -3.3750    2.1340 c3        1 C9M     -0.073000
     11 C6         -0.6950    1.2070    0.1510 c1        1 C9M     -0.152000
     12 C1         -1.4160    1.2690   -1.0500 c1        1 C9M      0.040000
     13 O13        -2.8770    1.3810   -1.0210 o         1 C9M     -0.213000
     14 C14        -3.5680    0.1200   -1.0650 c3        1 C9M     -0.075000
     15 H1         -1.2050    2.1610   -3.9500 ho        1 C9M      0.219000
     16 H2          1.1040    1.3430   -3.1000 ha        1 C9M      0.143000
     17 H3          2.3380    1.2390   -1.1070 ha        1 C9M      0.138000
     18 H4          1.6340    2.2720    1.8450 ha        1 C9M      0.129000
     19 H5          2.4510    0.3620    2.9300 ha        1 C9M      0.143000
     20 H6          0.8560   -1.1480    0.9740 h4        1 C9M      0.080000
     21 H7          2.4910   -1.3750    0.8350 h4        1 C9M      0.080000
     22 H8          0.1010   -3.2550    1.9320 h1        1 C9M      0.072333
     23 H9          1.5450   -3.7110    1.3380 h1        1 C9M      0.072333
     24 H10         1.1940   -4.0140    2.8630 h1        1 C9M      0.072333
     25 H11        -1.1630    1.1720    0.9930 ha        1 C9M      0.143000
     26 H12        -3.9870   -0.0010   -1.9710 h1        1 C9M      0.084000
     27 H13        -2.9410   -0.6010   -0.8990 h1        1 C9M      0.084000
     28 H14        -4.2790    0.1090   -0.3660 h1        1 C9M      0.084000
@<TRIPOS>BOND
     1    1    3 1   
     2    1   12 1   
     3    2   15 1   
     4    3   16 1   
     5    4    5 1   
     6    4   17 1   
     7    5    6 1   
     8    6    7 1   
     9    6   18 1   
    10    7   19 1   
    11    8    9 1   
    12    8   20 1   
    13    8   21 1   
    14    9   10 1   
    15   10   22 1   
    16   10   23 1   
    17   10   24 1   
    18   11   12 1   
    19   11   25 1   
    20   13   14 1   
    21   14   26 1   
    22   14   27 1   
    23   14   28 1   
@<TRIPOS>SUBSTRUCTURE
     1 C9M         1 TEMP              0 ****  ****    0 ROOT
