@<TRIPOS>MOLECULE
C9M
   28    28     1     0     0
SMALL
bcc


@<TRIPOS>ATOM
      1 C2         -0.0130   -0.9100    0.7650 ca        1 C9M      0.106100
      2 O12        -0.9320   -1.5820   -0.0040 oh        1 C9M     -0.474100
      3 C3          1.3650   -0.9900    0.5570 ca        1 C9M     -0.191000
      4 C4          2.2390   -0.2810    1.3830 ca        1 C9M     -0.116000
      5 C5          1.7510    0.5150    2.4210 ca        1 C9M     -0.058800
      6 C7          2.6330    1.2800    3.2900 ce        1 C9M     -0.109200
      7 C8          3.8150    0.8920    3.7820 c2        1 C9M     -0.191200
      8 C9          4.4850   -0.4080    3.5220 c3        1 C9M      0.152600
      9 O10         5.4210   -0.7390    4.5430 os        1 C9M     -0.418600
     10 C11         4.8140   -1.0930    5.7740 c3        1 C9M      0.112700
     11 C6          0.3630    0.6100    2.6270 ca        1 C9M     -0.167000
     12 C1         -0.5190   -0.0980    1.8140 ca        1 C9M      0.102100
     13 O13        -1.8950   -0.0840    1.9360 os        1 C9M     -0.303900
     14 C14        -2.4180    0.7340    2.9770 c3        1 C9M      0.110700
     15 H1         -0.4420   -2.0810   -0.6750 ho        1 C9M      0.415000
     16 H2          1.7610   -1.6110   -0.2590 ha        1 C9M      0.137000
     17 H3          3.3220   -0.3430    1.1980 ha        1 C9M      0.137000
     18 H4          2.2400    2.2780    3.5630 ha        1 C9M      0.126000
     19 H5          4.3840    1.5690    4.4440 ha        1 C9M      0.136000
     20 H6          5.1250   -0.3380    2.5970 h1        1 C9M      0.059200
     21 H7          3.7370   -1.2380    3.3990 h1        1 C9M      0.059200
     22 H8          4.2000   -0.2460    6.1690 h1        1 C9M      0.034033
     23 H9          5.6730   -1.3080    6.4570 h1        1 C9M      0.034033
     24 H10         4.1740   -2.0010    5.6490 h1        1 C9M      0.034033
     25 H11        -0.0160    1.2460    3.4400 ha        1 C9M      0.142000
     26 H12        -2.1430    1.8040    2.8160 h1        1 C9M      0.044367
     27 H13        -2.0590    0.3830    3.9750 h1        1 C9M      0.044367
     28 H14        -3.5250    0.5920    2.8830 h1        1 C9M      0.044367
@<TRIPOS>BOND
     1    1    2 1   
     2    1    3 ar  
     3    1   12 ar  
     4    2   15 1   
     5    3    4 ar  
     6    3   16 1   
     7    4    5 ar  
     8    4   17 1   
     9    5    6 1   
    10    5   11 ar  
    11    6    7 2   
    12    6   18 1   
    13    7    8 1   
    14    7   19 1   
    15    8    9 1   
    16    8   20 1   
    17    8   21 1   
    18    9   10 1   
    19   10   22 1   
    20   10   23 1   
    21   10   24 1   
    22   11   12 ar  
    23   11   25 1   
    24   12   13 1   
    25   13   14 1   
    26   14   26 1   
    27   14   27 1   
    28   14   28 1   
@<TRIPOS>SUBSTRUCTURE
     1 C9M         1 TEMP              0 ****  ****    0 ROOT
