@<TRIPOS>MOLECULE
C9M
   28    28     1     0     0
SMALL
bcc


@<TRIPOS>ATOM
      1 C2          0.0020   -0.9590    0.7720 ca        1 C9M      0.106100
      2 O12        -0.9050   -1.6540    0.0090 oh        1 C9M     -0.474100
      3 C3          1.3820   -1.0180    0.5660 ca        1 C9M     -0.191000
      4 C4          2.2430   -0.2870    1.3850 ca        1 C9M     -0.116000
      5 C5          1.7410    0.5110    2.4150 ca        1 C9M     -0.058800
      6 C7          2.6090    1.2990    3.2770 ce        1 C9M     -0.109200
      7 C8          3.7970    0.9360    3.7740 c2        1 C9M     -0.191200
      8 C9          4.4890   -0.3560    3.5270 c3        1 C9M      0.152600
      9 O10         5.4300   -0.6610    4.5510 os        1 C9M     -0.418600
     10 C11         4.8280   -1.0130    5.7850 c3        1 C9M      0.112700
     11 C6          0.3510    0.5850    2.6190 ca        1 C9M     -0.167000
     12 C1         -0.5190   -0.1450    1.8120 ca        1 C9M      0.102100
     13 O13        -1.8940   -0.1530    1.9340 os        1 C9M     -0.303900
     14 C14        -2.4320    0.6670    2.9650 c3        1 C9M      0.110700
     15 H1         -0.4060   -2.1510   -0.6570 ho        1 C9M      0.415000
     16 H2          1.7880   -1.6410   -0.2440 ha        1 C9M      0.137000
     17 H3          3.3270   -0.3330    1.2020 ha        1 C9M      0.137000
     18 H4          2.1990    2.2920    3.5400 ha        1 C9M      0.126000
     19 H5          4.3540    1.6290    4.4300 ha        1 C9M      0.136000
     20 H6          5.1280   -0.2840    2.6020 h1        1 C9M      0.059200
     21 H7          3.7550   -1.1990    3.4110 h1        1 C9M      0.059200
     22 H8          4.1990   -0.1730    6.1710 h1        1 C9M      0.034033
     23 H9          5.6900   -1.2080    6.4710 h1        1 C9M      0.034033
     24 H10         4.2040   -1.9330    5.6680 h1        1 C9M      0.034033
     25 H11        -0.0390    1.2220    3.4260 ha        1 C9M      0.142000
     26 H12        -2.1740    1.7400    2.7940 h1        1 C9M      0.044367
     27 H13        -2.0690    0.3320    3.9670 h1        1 C9M      0.044367
     28 H14        -3.5360    0.5060    2.8720 h1        1 C9M      0.044367
@<TRIPOS>BOND
     1    1    2 1   
     2    1    3 ar  
     3    1   12 ar  
     4    2   15 1   
     5    3    4 ar  
     6    3   16 1   
     7    4    5 ar  
     8    4   17 1   
     9    5    6 1   
    10    5   11 ar  
    11    6    7 2   
    12    6   18 1   
    13    7    8 1   
    14    7   19 1   
    15    8    9 1   
    16    8   20 1   
    17    8   21 1   
    18    9   10 1   
    19   10   22 1   
    20   10   23 1   
    21   10   24 1   
    22   11   12 ar  
    23   11   25 1   
    24   12   13 1   
    25   13   14 1   
    26   14   26 1   
    27   14   27 1   
    28   14   28 1   
@<TRIPOS>SUBSTRUCTURE
     1 C9M         1 TEMP              0 ****  ****    0 ROOT
