@<TRIPOS>MOLECULE
CA0
   40    33     1     0     0
SMALL
bcc


@<TRIPOS>ATOM
      1 N1         -3.5530   -0.4660   -5.2110 n1        1 CA0     -0.274000
      2 C2         -2.2070   -0.6420   -5.2380 c1        1 CA0      0.005000
      3 N3         -1.4470   -0.3180   -4.1380 n1        1 CA0     -0.192000
      4 C4         -2.0440    0.1820   -3.0180 c1        1 CA0     -0.083000
      5 C5         -3.3800    0.3570   -2.9880 c1        1 CA0     -0.083000
      6 C6         -4.1480    0.0280   -4.1020 c1        1 CA0      0.211000
      7 N6         -5.5210    0.0770   -4.4950 n3        1 CA0     -0.344000
      8 N7         -3.7170    0.7840   -1.7480 n1        1 CA0     -0.160500
      9 C8         -2.5830    0.8720   -1.0130 c1        1 CA0     -0.026000
     10 N9         -1.5510    0.5010   -1.7930 n1        1 CA0     -0.160500
     11 PA          1.6870   -1.0840    4.2660 p3        1 CA0      2.583000
     12 CB          3.6500   -1.8340    5.8400 c1        1 CA0      0.414000
     13 C1'        -0.2200    0.3140   -1.3870 c2        1 CA0      0.121000
     14 O1A         2.0230    0.3610    4.6830 os        1 CA0     -1.166000
     15 O1B         3.1530   -1.2110    6.7080 o         1 CA0     -0.441000
     16 C2'         0.3840    1.4910   -1.2280 c3        1 CA0     -0.001000
     17 O2'         1.1140    1.8600   -2.4520 oh        1 CA0     -0.316000
     18 O2A         0.4760   -1.5470    5.0050 o         1 CA0     -1.110000
     19 N2B         4.9450   -2.3650    6.0050 n2        1 CA0     -0.392000
     20 C3'         1.3730    1.2780   -0.0610 c3        1 CA0      0.003000
     21 O3'         2.6220    1.2330   -0.5180 oh        1 CA0     -0.364000
     22 O3A         2.9390   -2.0530    4.6190 os        1 CA0     -0.671000
     23 C4'         0.9770   -0.1140    0.5870 c3        1 CA0     -0.048000
     24 O4'        -0.1750   -0.4190    0.0660 os        1 CA0     -0.276000
     25 C5'         0.8540    0.0210    2.0900 c3        1 CA0      0.051000
     26 O5'         1.4060   -1.1300    2.7140 os        1 CA0     -0.726000
     27 H2         -1.7790   -0.9990   -6.0380 ha        1 CA0      0.179000
     28 HN6        -6.1650    0.0550   -3.8730 hn        1 CA0      0.224000
     29 HN6A       -5.7460    0.0790   -5.3970 hn        1 CA0      0.224000
     30 H8         -2.5200    1.1940   -0.1030 DU        1 CA0      0.219000
     31 H1'         0.2810   -0.2490   -2.0790 h4        1 CA0      0.154000
     32 H2'        -0.2750    2.1870   -0.9990 h1        1 CA0      0.126000
     33 HO2'        1.1170    2.7370   -2.5380 ho        1 CA0      0.226000
     34 HN2B        5.3710   -2.3270    6.8600 hn        1 CA0      0.211500
     35 HN2A        5.3830   -2.7060    5.3000 hn        1 CA0      0.211500
     36 H3'         1.2780    2.0070    0.6050 h1        1 CA0      0.130000
     37 HO3'        3.1250    1.7210   -0.0220 ho        1 CA0      0.281000
     38 H4'         1.6410   -0.7930    0.3620 h1        1 CA0      0.135000
     39 H5'         1.3380    0.8140    2.3860 h1        1 CA0      0.063000
     40 H5'A       -0.1070    0.1050    2.3390 h1        1 CA0      0.063000
@<TRIPOS>BOND
     1    1    6 1   
     2    2    3 1   
     3    2   27 1   
     4    4    5 1   
     5    6    7 1   
     6    7   28 1   
     7    7   29 1   
     8    8    9 1   
     9    9   10 1   
    10   11   18 1   
    11   11   22 1   
    12   11   26 1   
    13   12   15 1   
    14   12   22 1   
    15   13   16 1   
    16   13   24 1   
    17   13   31 1   
    18   16   17 1   
    19   16   20 1   
    20   16   32 1   
    21   17   33 1   
    22   19   34 1   
    23   19   35 1   
    24   20   21 1   
    25   20   23 1   
    26   20   36 1   
    27   21   37 1   
    28   23   24 1   
    29   23   25 1   
    30   23   38 1   
    31   25   26 1   
    32   25   39 1   
    33   25   40 1   
@<TRIPOS>SUBSTRUCTURE
     1 CA0         1 TEMP              0 ****  ****    0 ROOT
