@<TRIPOS>MOLECULE
CA0
   40    42     1     0     0
SMALL
bcc


@<TRIPOS>ATOM
      1 N1         -5.2670    2.1290    0.4500 nb        1 CA0     -0.798000
      2 C2         -5.2930    0.8240    0.8390 ca        1 CA0      0.656900
      3 N3         -4.3620   -0.1470    0.7070 nb        1 CA0     -0.719000
      4 C4         -3.2260    0.2910    0.0840 ca        1 CA0      0.449800
      5 C5         -3.0550    1.6590   -0.3980 ca        1 CA0     -0.210200
      6 C6         -4.1410    2.5670   -0.2010 ca        1 CA0      0.716200
      7 N6         -4.0720    3.8530   -0.7200 nh        1 CA0     -0.938500
      8 N7         -1.7870    1.8020   -0.9850 nc        1 CA0     -0.576100
      9 C8         -1.2050    0.5990   -0.8740 cd        1 CA0      0.441700
     10 N9         -2.0360   -0.3740   -0.2530 na        1 CA0     -0.275000
     11 PA          2.9570   -0.4930   -0.4170 p5        1 CA0      1.469800
     12 CB          3.4480    2.0010   -0.4800 c         1 CA0      0.762100
     13 C1'        -1.7200   -1.7330    0.1170 c3        1 CA0      0.250800
     14 O1A         4.3110   -0.9660   -0.7030 o         1 CA0     -0.812500
     15 O1B         3.6300    1.6550   -1.6680 o         1 CA0     -0.629000
     16 C2'        -0.7690   -2.4580   -0.8870 c3        1 CA0      0.076100
     17 O2'        -1.5130   -3.5390   -1.4230 oh        1 CA0     -0.610800
     18 O2A         1.7260   -0.5190   -1.2350 o         1 CA0     -0.812500
     19 N2B         3.5770    3.2720    0.0510 n         1 CA0     -0.631000
     20 C3'         0.4200   -2.9470   -0.0310 c3        1 CA0      0.091100
     21 O3'         0.3880   -4.3510    0.1110 oh        1 CA0     -0.596800
     22 O3A         3.0390    1.0250    0.3410 os        1 CA0     -0.545500
     23 C4'         0.2760   -2.2050    1.3060 c3        1 CA0      0.080100
     24 O4'        -1.1000   -1.7990    1.4120 os        1 CA0     -0.428600
     25 C5'         1.1800   -0.9660    1.4220 c3        1 CA0      0.191400
     26 O5'         2.4720   -1.2320    0.9830 os        1 CA0     -0.565200
     27 H2         -6.2290    0.5150    1.3500 h5        1 CA0      0.037100
     28 HN6        -3.1600    4.1740   -0.9460 hn        1 CA0      0.421300
     29 HN6A       -4.7040    4.5280   -0.3610 hn        1 CA0      0.421300
     30 H8         -0.1810    0.3420   -1.2330 h5        1 CA0      0.156800
     31 H1'        -2.6970   -2.2940    0.2280 h2        1 CA0      0.111700
     32 H2'        -0.3990   -1.7910   -1.7120 h1        1 CA0      0.115700
     33 HO2'       -0.8670   -4.1560   -1.7920 ho        1 CA0      0.420000
     34 HN2B        3.6030    3.3380    1.0390 hn        1 CA0      0.297500
     35 HN2A        4.1440    3.8990   -0.4640 hn        1 CA0      0.297500
     36 H3'         1.4070   -2.7070   -0.5210 h1        1 CA0      0.137700
     37 HO3'       -0.4350   -4.5720    0.5660 ho        1 CA0      0.399000
     38 H4'         0.4440   -2.8970    2.1740 h1        1 CA0      0.074700
     39 H5'         0.7260   -0.1190    0.8340 h1        1 CA0      0.035700
     40 H5'A        1.2300   -0.6770    2.5090 h1        1 CA0      0.035700
@<TRIPOS>BOND
     1    1    2 ar  
     2    1    6 ar  
     3    2    3 ar  
     4    2   27 1   
     5    3    4 ar  
     6    4    5 ar  
     7    4   10 1   
     8    5    6 ar  
     9    5    8 1   
    10    6    7 1   
    11    7   28 1   
    12    7   29 1   
    13    8    9 2   
    14    9   10 1   
    15    9   30 1   
    16   10   13 1   
    17   11   14 1   
    18   11   18 1   
    19   11   22 1   
    20   11   26 1   
    21   12   15 2   
    22   12   19 1   
    23   12   22 1   
    24   13   16 1   
    25   13   24 1   
    26   13   31 1   
    27   16   17 1   
    28   16   20 1   
    29   16   32 1   
    30   17   33 1   
    31   19   34 1   
    32   19   35 1   
    33   20   21 1   
    34   20   23 1   
    35   20   36 1   
    36   21   37 1   
    37   23   24 1   
    38   23   25 1   
    39   23   38 1   
    40   25   26 1   
    41   25   39 1   
    42   25   40 1   
@<TRIPOS>SUBSTRUCTURE
     1 CA0         1 TEMP              0 ****  ****    0 ROOT
