@<TRIPOS>MOLECULE
CA0
   41    43     1     0     0
SMALL
bcc


@<TRIPOS>ATOM
      1 N1         -0.4240    1.6210    1.2200 nb        1 CA0     -0.797000
      2 C2          0.8710    2.0190    1.3260 ca        1 CA0      0.691900
      3 N3          1.9120    1.4450    1.9730 nb        1 CA0     -0.762000
      4 C4          1.5590    0.2830    2.6040 ca        1 CA0      0.452800
      5 C5          0.2120   -0.2760    2.5830 ca        1 CA0     -0.229200
      6 C6         -0.7860    0.4530    1.8520 ca        1 CA0      0.766200
      7 N6         -2.0710   -0.0130    1.7880 nv        1 CA0     -0.961500
      8 N7          0.1770   -1.4710    3.3160 nc        1 CA0     -0.552100
      9 C8          1.4300   -1.6440    3.7630 cd        1 CA0      0.423700
     10 N9          2.3170   -0.6120    3.3720 na        1 CA0     -0.288000
     11 PA          4.2450   -0.3530    9.2710 p5        1 CA0      1.473800
     12 CB          2.4070   -1.1920   11.1730 c         1 CA0      0.725100
     13 C1'         3.7410   -0.5240    3.6130 c3        1 CA0      0.225800
     14 O1A         5.0090   -0.8710   10.4190 o         1 CA0     -0.779500
     15 O1B         1.4920   -0.7160   11.8340 o         1 CA0     -0.473000
     16 C2'         4.2050    0.8620    4.1700 c3        1 CA0      0.085100
     17 O2'         5.0720    1.4870    3.2520 oh        1 CA0     -0.595800
     18 O2A         4.0300    0.9850    8.7450 o         1 CA0     -0.779500
     19 N2B         3.2260   -2.2960   11.8540 nz        1 CA0     -0.786400
     20 C3'         4.9970    0.5290    5.4540 c3        1 CA0      0.116100
     21 O3'         6.3990    0.5900    5.2810 oh        1 CA0     -0.590800
     22 O3A         2.7020   -0.9170    9.9460 os        1 CA0     -0.473500
     23 C4'         4.6500   -0.9420    5.7590 c3        1 CA0      0.108100
     24 O4'         4.1310   -1.5290    4.5530 os        1 CA0     -0.410600
     25 C5'         3.6070   -1.0980    6.8730 c3        1 CA0      0.157400
     26 O5'         4.2390   -1.4410    8.0810 os        1 CA0     -0.570200
     27 H2          1.1060    2.9680    0.7950 h5        1 CA0      0.051100
     28 HN6        -2.7680    0.4860    1.2950 hn        1 CA0      0.450300
     29 HN6A       -2.3010   -0.8500    2.2620 hn        1 CA0      0.450300
     30 H8          1.7910   -2.4820    4.3750 h5        1 CA0      0.084800
     31 H1'         4.2850   -0.7680    2.6500 h2        1 CA0      0.102700
     32 H2'         3.3360    1.5300    4.4140 h1        1 CA0      0.079700
     33 HO2'        4.5200    1.8680    2.5550 ho        1 CA0      0.436000
     34 HN2B        4.2350   -2.0440   11.7440 hn        1 CA0      0.467800
     35 HN2A        3.0580   -3.1840   11.3880 hn        1 CA0      0.467800
     36 H3'         4.6940    1.2210    6.2880 h1        1 CA0      0.099700
     37 HO3'        6.5970    1.4070    4.8030 ho        1 CA0      0.428000
     38 H4'         5.5750   -1.5360    5.9990 h1        1 CA0      0.114700
     39 H5'         2.9220   -1.9520    6.6030 h1        1 CA0      0.061200
     40 H5'A        3.0070   -0.1560    7.0080 h1        1 CA0      0.061200
     41 H2B3        2.9680   -2.3560   12.8360 hn        1 CA0      0.467800
@<TRIPOS>BOND
     1    1    2 ar  
     2    1    6 ar  
     3    2    3 ar  
     4    2   27 1   
     5    3    4 ar  
     6    4    5 ar  
     7    4   10 1   
     8    5    6 ar  
     9    5    8 1   
    10    6    7 1   
    11    7   28 1   
    12    7   29 1   
    13    8    9 2   
    14    9   10 1   
    15    9   30 1   
    16   10   13 1   
    17   11   14 1   
    18   11   18 1   
    19   11   22 1   
    20   11   26 1   
    21   12   15 2   
    22   12   19 1   
    23   12   22 1   
    24   13   16 1   
    25   13   24 1   
    26   13   31 1   
    27   16   17 1   
    28   16   20 1   
    29   16   32 1   
    30   17   33 1   
    31   19   34 1   
    32   19   35 1   
    33   19   41 1   
    34   20   21 1   
    35   20   23 1   
    36   20   36 1   
    37   21   37 1   
    38   23   24 1   
    39   23   25 1   
    40   23   38 1   
    41   25   26 1   
    42   25   39 1   
    43   25   40 1   
@<TRIPOS>SUBSTRUCTURE
     1 CA0         1 TEMP              0 ****  ****    0 ROOT
