@<TRIPOS>MOLECULE
CA0
   41    43     1     0     0
SMALL
bcc


@<TRIPOS>ATOM
      1 N1         -0.4720   -0.6740    0.7870 nb        1 CA0     -0.795000
      2 C2          0.8560   -0.6630    0.5010 ca        1 CA0      0.686900
      3 N3          1.9150   -0.3130    1.2700 nb        1 CA0     -0.730000
      4 C4          1.5440    0.0850    2.5230 ca        1 CA0      0.473800
      5 C5          0.1600    0.1290    2.9800 ca        1 CA0     -0.236200
      6 C6         -0.8530   -0.2800    2.0500 ca        1 CA0      0.758200
      7 N6         -2.1710   -0.3040    2.4290 nh        1 CA0     -0.957500
      8 N7          0.1060    0.5890    4.3050 nc        1 CA0     -0.540100
      9 C8          1.3790    0.8150    4.6490 cd        1 CA0      0.402700
     10 N9          2.3090    0.5530    3.6060 na        1 CA0     -0.285000
     11 PA          4.0530   -0.6450    9.1220 p5        1 CA0      1.475800
     12 CB          2.2370   -2.1330   10.5880 c         1 CA0      0.726100
     13 C1'         3.7490    0.5630    3.6690 c3        1 CA0      0.247800
     14 O1A         4.7890   -1.2650   10.2370 o         1 CA0     -0.782500
     15 O1B         1.2080   -1.9380   11.2240 o         1 CA0     -0.470000
     16 C2'         4.3230    1.7490    4.5050 c3        1 CA0      0.076100
     17 O2'         5.2940    2.3670    3.6820 oh        1 CA0     -0.591800
     18 O2A         3.6510    0.7220    8.8260 o         1 CA0     -0.782500
     19 N2B         3.1650   -3.2300   11.1260 n4        1 CA0     -0.784400
     20 C3'         4.9740    1.0990    5.7490 c3        1 CA0      0.070100
     21 O3'         6.3480    1.4110    5.8080 oh        1 CA0     -0.585800
     22 O3A         2.5820   -1.5690    9.4780 os        1 CA0     -0.475500
     23 C4'         4.7300   -0.4140    5.5940 c3        1 CA0      0.074100
     24 O4'         4.2600   -0.6430    4.2600 os        1 CA0     -0.407600
     25 C5'         3.7080   -0.9920    6.5810 c3        1 CA0      0.162400
     26 O5'         4.3530   -1.4370    7.7490 os        1 CA0     -0.571200
     27 H2          1.1100   -0.9950   -0.5300 h5        1 CA0      0.052100
     28 HN6        -2.4170    0.0940    3.3010 hn        1 CA0      0.445800
     29 HN6A       -2.8790   -0.4880    1.7620 hn        1 CA0      0.445800
     30 H8          1.7120    1.1880    5.6270 h5        1 CA0      0.079800
     31 H1'         4.1540    0.5660    2.6110 h2        1 CA0      0.140700
     32 H2'         3.5420    2.4980    4.7980 h1        1 CA0      0.072700
     33 HO2'        5.7520    3.0170    4.2350 ho        1 CA0      0.426000
     34 HN2B        4.1220   -2.8160   11.1980 hn        1 CA0      0.468133
     35 HN2A        3.1920   -4.0070   10.4710 hn        1 CA0      0.468133
     36 H3'         4.5440    1.5160    6.7020 h1        1 CA0      0.137700
     37 HO3'        6.7650    1.0500    5.0110 ho        1 CA0      0.413000
     38 H4'         5.6930   -0.9910    5.6740 h1        1 CA0      0.098700
     39 H5'         3.2290   -1.8930    6.1020 h1        1 CA0      0.061700
     40 H5'A        2.9210   -0.2330    6.8410 h1        1 CA0      0.061700
     41 H2B3        2.8320   -3.5420   12.0350 hn        1 CA0      0.468133
@<TRIPOS>BOND
     1    1    2 ar  
     2    1    6 ar  
     3    2    3 ar  
     4    2   27 1   
     5    3    4 ar  
     6    4    5 ar  
     7    4   10 1   
     8    5    6 ar  
     9    5    8 1   
    10    6    7 1   
    11    7   28 1   
    12    7   29 1   
    13    8    9 2   
    14    9   10 1   
    15    9   30 1   
    16   10   13 1   
    17   11   14 1   
    18   11   18 1   
    19   11   22 1   
    20   11   26 1   
    21   12   15 2   
    22   12   19 1   
    23   12   22 1   
    24   13   16 1   
    25   13   24 1   
    26   13   31 1   
    27   16   17 1   
    28   16   20 1   
    29   16   32 1   
    30   17   33 1   
    31   19   34 1   
    32   19   35 1   
    33   19   41 1   
    34   20   21 1   
    35   20   23 1   
    36   20   36 1   
    37   21   37 1   
    38   23   24 1   
    39   23   25 1   
    40   23   38 1   
    41   25   26 1   
    42   25   39 1   
    43   25   40 1   
@<TRIPOS>SUBSTRUCTURE
     1 CA0         1 TEMP              0 ****  ****    0 ROOT
