@<TRIPOS>MOLECULE
CA0
   42    44     1     0     0
SMALL
bcc


@<TRIPOS>ATOM
      1 N1         -0.6140   -0.2270    0.9400 nb        1 CA0     -0.684000
      2 C2          0.6940   -0.2640    0.5650 ca        1 CA0      0.664900
      3 N3          1.8070   -0.0720    1.3250 nb        1 CA0     -0.616000
      4 C4          1.5490    0.1830    2.6280 ca        1 CA0      0.461800
      5 C5          0.1710    0.2520    3.1770 ca        1 CA0     -0.126200
      6 C6         -0.8610    0.0350    2.2510 ca        1 CA0      0.499200
      7 N6         -2.2530    0.1020    2.7290 n4        1 CA0     -0.812300
      8 N7          0.2130    0.5320    4.5430 nc        1 CA0     -0.605100
      9 C8          1.5260    0.6340    4.8390 cd        1 CA0      0.517700
     10 N9          2.3810    0.4520    3.7280 na        1 CA0     -0.267000
     11 PA          3.5210   -0.5090    8.5480 p5        1 CA0      1.499800
     12 CB          1.9510   -2.1240   10.1190 c         1 CA0      0.721100
     13 C1'         3.8370    0.4420    3.6800 c3        1 CA0      0.207800
     14 O1A         2.7850    0.3990    7.6690 o         1 CA0     -0.801000
     15 O1B         0.7540   -2.2120   10.3610 o         1 CA0     -0.453000
     16 C2'         4.5050    1.4850    4.6330 c3        1 CA0      0.090100
     17 O2'         5.3450    2.3330    3.8960 oh        1 CA0     -0.572800
     18 O2A         4.0190   -0.3740    9.9230 o         1 CA0     -0.801000
     19 N2B         2.9130   -2.4610   11.2540 n4        1 CA0     -0.772400
     20 C3'         5.2740    0.6330    5.6680 c3        1 CA0      0.093100
     21 O3'         6.6620    0.8660    5.5530 oh        1 CA0     -0.582800
     22 O3A         2.4680   -1.8470    8.9590 os        1 CA0     -0.497500
     23 C4'         5.0160   -0.8360    5.2900 c3        1 CA0      0.107100
     24 O4'         4.3480   -0.8470    4.0160 os        1 CA0     -0.402600
     25 C5'         4.1360   -1.6040    6.2870 c3        1 CA0      0.171400
     26 O5'         4.5210   -1.3680    7.6160 os        1 CA0     -0.565200
     27 H2          0.8740   -0.4810   -0.5140 h5        1 CA0      0.096100
     28 HN6        -2.3530   -0.5370    3.5270 hn        1 CA0      0.475133
     29 HN6A       -2.4430    1.0620    3.0430 hn        1 CA0      0.475133
     30 H8          1.9180    0.8480    5.8630 h5        1 CA0      0.169800
     31 H1'         4.1390    0.6170    2.6010 h2        1 CA0      0.132700
     32 H2'         3.7620    2.1680    5.1270 h1        1 CA0      0.111700
     33 HO2'        6.1360    1.8320    3.6380 ho        1 CA0      0.431000
     34 HN2B        3.5780   -1.6630   11.3580 hn        1 CA0      0.475467
     35 HN2A        3.4430   -3.2990   11.0180 hn        1 CA0      0.475467
     36 H3'         4.9050    0.8470    6.7090 h1        1 CA0      0.072700
     37 HO3'        6.8400    1.7270    5.9540 ho        1 CA0      0.427000
     38 H4'         5.9880   -1.3790    5.1230 h1        1 CA0      0.119700
     39 H5'         4.2660   -2.7050    6.0920 h1        1 CA0      0.056700
     40 H5'A        3.0560   -1.3190    6.1410 h1        1 CA0      0.056700
     41 H63        -2.9160   -0.1570    1.9880 hn        1 CA0      0.475133
     42 H2B3        2.3850   -2.6070   12.1140 hn        1 CA0      0.475467
@<TRIPOS>BOND
     1    1    2 ar  
     2    1    6 ar  
     3    2    3 ar  
     4    2   27 1   
     5    3    4 ar  
     6    4    5 ar  
     7    4   10 1   
     8    5    6 ar  
     9    5    8 1   
    10    6    7 1   
    11    7   28 1   
    12    7   29 1   
    13    7   41 1   
    14    8    9 2   
    15    9   10 1   
    16    9   30 1   
    17   10   13 1   
    18   11   14 1   
    19   11   18 1   
    20   11   22 1   
    21   11   26 1   
    22   12   15 2   
    23   12   19 1   
    24   12   22 1   
    25   13   16 1   
    26   13   24 1   
    27   13   31 1   
    28   16   17 1   
    29   16   20 1   
    30   16   32 1   
    31   17   33 1   
    32   19   34 1   
    33   19   35 1   
    34   19   42 1   
    35   20   21 1   
    36   20   23 1   
    37   20   36 1   
    38   21   37 1   
    39   23   24 1   
    40   23   25 1   
    41   23   38 1   
    42   25   26 1   
    43   25   39 1   
    44   25   40 1   
@<TRIPOS>SUBSTRUCTURE
     1 CA0         1 TEMP              0 ****  ****    0 ROOT
