@<TRIPOS>MOLECULE
CA1
   17    16     1     0     0
SMALL
bcc


@<TRIPOS>ATOM
      1 CX5         0.0460    0.0000   -0.0450 c3        1 CA1     -0.093100
      2 CX6         1.5450    0.0000    0.1020 c3        1 CA1     -0.127400
      3 CX7         1.9580   -0.0010    1.5410 c         1 CA1      0.629100
      4 OX8         1.2580   -0.0020    2.5560 o         1 CA1     -0.542000
      5 OX9         3.3180    0.0000    1.6920 os        1 CA1     -0.448900
      6 CJ1         3.8150   -0.0000    3.0420 c3        1 CA1      0.139400
      7 CJ2         5.3210    0.0010    2.9380 c3        1 CA1     -0.100100
      8 H1         -0.3970    0.9030    0.4410 hc        1 CA1      0.047700
      9 HX51       -0.2280    0.0000   -1.1270 hc        1 CA1      0.047700
     10 HX52       -0.3960   -0.9040    0.4400 hc        1 CA1      0.047700
     11 H2          1.9920   -0.9050   -0.3910 hc        1 CA1      0.077700
     12 H3          1.9910    0.9060   -0.3900 hc        1 CA1      0.077700
     13 H4          3.4290    0.9120    3.5670 h1        1 CA1      0.050700
     14 H5          3.4310   -0.9140    3.5660 h1        1 CA1      0.050700
     15 H6          5.6760    0.9060    2.3910 hc        1 CA1      0.047367
     16 H7          5.7550    0.0000    3.9660 hc        1 CA1      0.047367
     17 H8          5.6770   -0.9030    2.3890 hc        1 CA1      0.047367
@<TRIPOS>BOND
     1    1    2 1   
     2    1    8 1   
     3    1    9 1   
     4    1   10 1   
     5    2    3 1   
     6    2   11 1   
     7    2   12 1   
     8    3    4 2   
     9    3    5 1   
    10    5    6 1   
    11    6    7 1   
    12    6   13 1   
    13    6   14 1   
    14    7   15 1   
    15    7   16 1   
    16    7   17 1   
@<TRIPOS>SUBSTRUCTURE
     1 CA1         1 TEMP              0 ****  ****    0 ROOT
