@<TRIPOS>MOLECULE
CA1
   17    16     1     0     0
SMALL
bcc


@<TRIPOS>ATOM
      1 CX5         0.0480    0.0040   -0.0480 c3        1 CA1     -0.093100
      2 CX6         1.5460    0.0030    0.1010 c3        1 CA1     -0.127400
      3 CX7         1.9580   -0.0030    1.5400 c         1 CA1      0.629100
      4 OX8         1.2570   -0.0110    2.5540 o         1 CA1     -0.542000
      5 OX9         3.3180    0.0010    1.6930 os        1 CA1     -0.448900
      6 CJ1         3.8140   -0.0040    3.0430 c3        1 CA1      0.139400
      7 CJ2         5.3190    0.0010    2.9410 c3        1 CA1     -0.100100
      8 H1         -0.3950    0.9060    0.4390 hc        1 CA1      0.047700
      9 HX51       -0.2260    0.0070   -1.1300 hc        1 CA1      0.047700
     10 HX52       -0.3960   -0.9010    0.4350 hc        1 CA1      0.047700
     11 H2          1.9930   -0.9010   -0.3940 hc        1 CA1      0.077700
     12 H3          1.9940    0.9090   -0.3880 hc        1 CA1      0.077700
     13 H4          3.4260    0.9060    3.5720 h1        1 CA1      0.050700
     14 H5          3.4300   -0.9200    3.5630 h1        1 CA1      0.050700
     15 H6          5.6730    0.9080    2.3970 hc        1 CA1      0.047367
     16 H7          5.7530   -0.0030    3.9700 hc        1 CA1      0.047367
     17 H8          5.6780   -0.9010    2.3900 hc        1 CA1      0.047367
@<TRIPOS>BOND
     1    1    2 1   
     2    1    8 1   
     3    1    9 1   
     4    1   10 1   
     5    2    3 1   
     6    2   11 1   
     7    2   12 1   
     8    3    4 2   
     9    3    5 1   
    10    5    6 1   
    11    6    7 1   
    12    6   13 1   
    13    6   14 1   
    14    7   15 1   
    15    7   16 1   
    16    7   17 1   
@<TRIPOS>SUBSTRUCTURE
     1 CA1         1 TEMP              0 ****  ****    0 ROOT
