@<TRIPOS>MOLECULE
CA1
   17    16     1     0     0
SMALL
bcc


@<TRIPOS>ATOM
      1 CX5        -2.9730   -0.1310    0.0000 c3        1 CA1     -0.093100
      2 CX6        -1.6290   -0.8100    0.0010 c3        1 CA1     -0.127400
      3 CX7        -0.5090    0.1840   -0.0000 c         1 CA1      0.629100
      4 OX8        -0.5560    1.4150   -0.0020 o         1 CA1     -0.542000
      5 OX9         0.7200   -0.4170    0.0010 os        1 CA1     -0.448900
      6 CJ1         1.8630    0.4560   -0.0000 c3        1 CA1      0.139400
      7 CJ2         3.0790   -0.4380    0.0010 c3        1 CA1     -0.100100
      8 H1         -3.7850   -0.8980    0.0010 hc        1 CA1      0.047700
      9 HX51       -3.0870    0.5170    0.9030 hc        1 CA1      0.047700
     10 HX52       -3.0870    0.5150   -0.9030 hc        1 CA1      0.047700
     11 H2         -1.5160   -1.4660   -0.9040 hc        1 CA1      0.077700
     12 H3         -1.5150   -1.4640    0.9060 hc        1 CA1      0.077700
     13 H4          1.8190    1.1060    0.9120 h1        1 CA1      0.050700
     14 H5          1.8190    1.1040   -0.9140 h1        1 CA1      0.050700
     15 H6          3.0860   -1.0910    0.9060 hc        1 CA1      0.047367
     16 H7          3.0860   -1.0930   -0.9040 hc        1 CA1      0.047367
     17 H8          3.9970    0.1970   -0.0000 hc        1 CA1      0.047367
@<TRIPOS>BOND
     1    1    2 1   
     2    1    8 1   
     3    1    9 1   
     4    1   10 1   
     5    2    3 1   
     6    2   11 1   
     7    2   12 1   
     8    3    4 2   
     9    3    5 1   
    10    5    6 1   
    11    6    7 1   
    12    6   13 1   
    13    6   14 1   
    14    7   15 1   
    15    7   16 1   
    16    7   17 1   
@<TRIPOS>SUBSTRUCTURE
     1 CA1         1 TEMP              0 ****  ****    0 ROOT
