@<TRIPOS>MOLECULE
CA1
   17    16     1     0     0
SMALL
bcc


@<TRIPOS>ATOM
      1 CX5        -2.4130    0.7160   -1.4030 c3        1 CA1     -0.094100
      2 CX6        -0.9490    0.4470   -1.6730 c3        1 CA1     -0.127400
      3 CX7        -0.1630    0.6040   -0.3890 c         1 CA1      0.630100
      4 OX8        -0.1420    1.6750    0.1830 o         1 CA1     -0.544000
      5 OX9         0.5320   -0.4930    0.1480 os        1 CA1     -0.445900
      6 CJ1         1.2750   -0.1870    1.3050 c3        1 CA1      0.138400
      7 CJ2         2.1100   -1.3850    1.7000 c3        1 CA1     -0.100100
      8 H1         -2.9360    0.5100   -2.2060 hc        1 CA1      0.048367
      9 HX51       -2.5340    1.6590   -1.1670 hc        1 CA1      0.048367
     10 HX52       -2.7170    0.1520   -0.6620 hc        1 CA1      0.048367
     11 H2         -0.8410   -0.4640   -2.0110 hc        1 CA1      0.076700
     12 H3         -0.6170    1.0840   -2.3380 hc        1 CA1      0.076700
     13 H4          1.8630    0.5750    1.1230 h1        1 CA1      0.051200
     14 H5          0.6630    0.0390    2.0350 h1        1 CA1      0.051200
     15 H6          2.7400   -1.1270    2.4040 hc        1 CA1      0.047367
     16 H7          2.6070   -1.7080    0.9190 hc        1 CA1      0.047367
     17 H8          1.5230   -2.0970    2.0310 hc        1 CA1      0.047367
@<TRIPOS>BOND
     1    1    2 1   
     2    1    8 1   
     3    1    9 1   
     4    1   10 1   
     5    2    3 1   
     6    2   11 1   
     7    2   12 1   
     8    3    4 2   
     9    3    5 1   
    10    5    6 1   
    11    6    7 1   
    12    6   13 1   
    13    6   14 1   
    14    7   15 1   
    15    7   16 1   
    16    7   17 1   
@<TRIPOS>SUBSTRUCTURE
     1 CA1         1 TEMP              0 ****  ****    0 ROOT
