@<TRIPOS>MOLECULE
CA2
   43    44     1     0     0
SMALL
bcc


@<TRIPOS>ATOM
      1 O2          0.1180    1.0420    0.0400 o         1 CA2     -0.824300
      2 C7          1.0690    0.2220   -0.0400 c         1 CA2      0.901600
      3 O1          1.3650   -0.4670   -1.0570 o         1 CA2     -0.824300
      4 C1          1.9800    0.0220    1.2200 c3        1 CA2      0.022800
      5 O3          3.0360   -0.8920    0.9550 oh        1 CA2     -0.642800
      6 C2          1.1220   -0.5300    2.3580 c3        1 CA2     -0.074400
      7 C3          1.8560   -0.5860    3.6880 c3        1 CA2     -0.055700
      8 C4          2.3740    0.8130    4.0380 c3        1 CA2      0.119100
      9 O4          3.0570    0.7520    5.2860 oh        1 CA2     -0.622800
     10 C5          3.3120    1.3130    2.9250 c3        1 CA2      0.104100
     11 O5          3.8500    2.5750    3.3080 oh        1 CA2     -0.626800
     12 C6          2.5880    1.3730    1.5930 c3        1 CA2     -0.098400
     13 C8          0.9550   -1.1040    4.7980 c3        1 CA2     -0.072400
     14 C9          0.7730   -2.6050    4.7240 c3        1 CA2     -0.083400
     15 C10        -0.1280   -3.0680    5.8550 c3        1 CA2      0.127400
     16 O11        -0.1680   -4.5020    5.7710 os        1 CA2     -0.326900
     17 C12        -0.9510   -5.1400    6.7050 ca        1 CA2      0.142100
     18 C17        -0.9860   -6.5450    6.5840 ca        1 CA2     -0.186000
     19 C16        -1.7450   -7.2850    7.4810 ca        1 CA2     -0.100000
     20 C15        -2.4680   -6.6500    8.4940 ca        1 CA2     -0.178000
     21 C14        -2.4300   -5.2620    8.6060 ca        1 CA2     -0.100000
     22 C13        -1.6750   -4.4970    7.7170 ca        1 CA2     -0.186000
     23 H3          2.9180   -1.2010    0.0410 ho        1 CA2      0.430000
     24 H2C1        0.2110    0.1190    2.4420 hc        1 CA2      0.053700
     25 H2C2        0.7910   -1.5640    2.0790 hc        1 CA2      0.053700
     26 HA          2.7450   -1.2680    3.5830 hc        1 CA2      0.068700
     27 H4          1.5100    1.5270    4.1540 h1        1 CA2      0.030700
     28 HB          3.7080    1.4650    5.2800 ho        1 CA2      0.406000
     29 H5          4.2100    0.6360    2.8560 h1        1 CA2      0.089700
     30 HC          3.1680    3.2360    3.1430 ho        1 CA2      0.395000
     31 H6C1        1.7570    2.1260    1.6310 hc        1 CA2      0.058700
     32 H6C2        3.3100    1.6840    0.7960 hc        1 CA2      0.058700
     33 H8C1        1.4060   -0.8350    5.7910 hc        1 CA2      0.042200
     34 H8C2       -0.0450   -0.5980    4.7340 hc        1 CA2      0.042200
     35 H9C1        1.7660   -3.1200    4.8020 hc        1 CA2      0.061700
     36 H9C2        0.3230   -2.8980    3.7410 hc        1 CA2      0.061700
     37 H101       -1.1660   -2.6600    5.7380 h1        1 CA2      0.036200
     38 H102        0.2860   -2.7690    6.8530 h1        1 CA2      0.036200
     39 H17        -0.4130   -7.0290    5.7810 ha        1 CA2      0.144000
     40 H16        -1.7760   -8.3810    7.3910 ha        1 CA2      0.124500
     41 H15        -3.0660   -7.2440    9.1980 ha        1 CA2      0.124000
     42 H14        -2.9990   -4.7590    9.4020 ha        1 CA2      0.124500
     43 H13        -1.6560   -3.4040    7.8190 ha        1 CA2      0.144000
@<TRIPOS>BOND
     1    1    2 1   
     2    2    3 1   
     3    2    4 1   
     4    4    5 1   
     5    4    6 1   
     6    4   12 1   
     7    5   23 1   
     8    6    7 1   
     9    6   24 1   
    10    6   25 1   
    11    7    8 1   
    12    7   13 1   
    13    7   26 1   
    14    8    9 1   
    15    8   10 1   
    16    8   27 1   
    17    9   28 1   
    18   10   11 1   
    19   10   12 1   
    20   10   29 1   
    21   11   30 1   
    22   12   31 1   
    23   12   32 1   
    24   13   14 1   
    25   13   33 1   
    26   13   34 1   
    27   14   15 1   
    28   14   35 1   
    29   14   36 1   
    30   15   16 1   
    31   15   37 1   
    32   15   38 1   
    33   16   17 1   
    34   17   18 ar  
    35   17   22 ar  
    36   18   19 ar  
    37   18   39 1   
    38   19   20 ar  
    39   19   40 1   
    40   20   21 ar  
    41   20   41 1   
    42   21   22 ar  
    43   21   42 1   
    44   22   43 1   
@<TRIPOS>SUBSTRUCTURE
     1 CA2         1 TEMP              0 ****  ****    0 ROOT
