@<TRIPOS>MOLECULE
CA2
   43    44     1     0     0
SMALL
bcc


@<TRIPOS>ATOM
      1 O2          4.0500   -1.9930   -1.9240 o         1 CA2     -0.824300
      2 C7          3.9250   -2.1110   -0.6780 c         1 CA2      0.901600
      3 O1          4.2060   -3.1420   -0.0040 o         1 CA2     -0.824300
      4 C1          3.3800   -0.8840    0.1300 c3        1 CA2      0.022800
      5 O3          3.3490   -1.1560    1.5260 oh        1 CA2     -0.642800
      6 C2          1.9600   -0.5810   -0.3460 c3        1 CA2     -0.074400
      7 C3          1.3970    0.7080    0.2320 c3        1 CA2     -0.055700
      8 C4          2.3370    1.8680   -0.1120 c3        1 CA2      0.119100
      9 O4          1.8000    3.0710    0.4300 oh        1 CA2     -0.622800
     10 C5          3.7380    1.5890    0.4590 c3        1 CA2      0.104100
     11 O5          4.5720    2.7140    0.2040 oh        1 CA2     -0.626800
     12 C6          4.3080    0.3040   -0.1130 c3        1 CA2     -0.098400
     13 C8         -0.0000    0.9910   -0.2980 c3        1 CA2     -0.072400
     14 C9         -1.0440    0.1210    0.3700 c3        1 CA2     -0.083400
     15 C10        -2.4170    0.4450   -0.1920 c3        1 CA2      0.127400
     16 O11        -3.3520   -0.3450    0.5600 os        1 CA2     -0.326900
     17 C12        -4.6750   -0.2180    0.2030 ca        1 CA2      0.142100
     18 C17        -5.5660   -1.0200    0.9460 ca        1 CA2     -0.186000
     19 C16        -6.9250   -0.9630    0.6670 ca        1 CA2     -0.100000
     20 C15        -7.4090   -0.1220   -0.3380 ca        1 CA2     -0.178000
     21 C14        -6.5240    0.6670   -1.0680 ca        1 CA2     -0.100000
     22 C13        -5.1540    0.6270   -0.8060 ca        1 CA2     -0.186000
     23 H3          3.6560   -2.0710    1.6410 ho        1 CA2      0.430000
     24 H2C1        1.9810   -0.5290   -1.4660 hc        1 CA2      0.053700
     25 H2C2        1.2990   -1.4350   -0.0480 hc        1 CA2      0.053700
     26 HA          1.3570    0.6150    1.3530 hc        1 CA2      0.068700
     27 H4          2.4010    1.9940   -1.2300 h1        1 CA2      0.030700
     28 HB          2.5480    3.6600    0.5890 ho        1 CA2      0.406000
     29 H5          3.6830    1.5290    1.5830 h1        1 CA2      0.089700
     30 HC          4.8480    2.6600   -0.7180 ho        1 CA2      0.395000
     31 H6C1        4.4610    0.4010   -1.2200 hc        1 CA2      0.058700
     32 H6C2        5.3000    0.0990    0.3630 hc        1 CA2      0.058700
     33 H8C1       -0.2490    2.0710   -0.1180 hc        1 CA2      0.042200
     34 H8C2       -0.0200    0.8200   -1.4070 hc        1 CA2      0.042200
     35 H9C1       -0.8170   -0.9640    0.2030 hc        1 CA2      0.061700
     36 H9C2       -1.0420    0.2950    1.4780 hc        1 CA2      0.061700
     37 H101       -2.6630    1.5320   -0.0600 h1        1 CA2      0.036200
     38 H102       -2.4860    0.1700   -1.2760 h1        1 CA2      0.036200
     39 H17        -5.1680   -1.6770    1.7320 ha        1 CA2      0.144000
     40 H16        -7.6240   -1.5870    1.2420 ha        1 CA2      0.124500
     41 H15        -8.4860   -0.0850   -0.5520 ha        1 CA2      0.124000
     42 H14        -6.9020    1.3290   -1.8610 ha        1 CA2      0.124500
     43 H13        -4.4690    1.2550   -1.3910 ha        1 CA2      0.144000
@<TRIPOS>BOND
     1    1    2 1   
     2    2    3 1   
     3    2    4 1   
     4    4    5 1   
     5    4    6 1   
     6    4   12 1   
     7    5   23 1   
     8    6    7 1   
     9    6   24 1   
    10    6   25 1   
    11    7    8 1   
    12    7   13 1   
    13    7   26 1   
    14    8    9 1   
    15    8   10 1   
    16    8   27 1   
    17    9   28 1   
    18   10   11 1   
    19   10   12 1   
    20   10   29 1   
    21   11   30 1   
    22   12   31 1   
    23   12   32 1   
    24   13   14 1   
    25   13   33 1   
    26   13   34 1   
    27   14   15 1   
    28   14   35 1   
    29   14   36 1   
    30   15   16 1   
    31   15   37 1   
    32   15   38 1   
    33   16   17 1   
    34   17   18 ar  
    35   17   22 ar  
    36   18   19 ar  
    37   18   39 1   
    38   19   20 ar  
    39   19   40 1   
    40   20   21 ar  
    41   20   41 1   
    42   21   22 ar  
    43   21   42 1   
    44   22   43 1   
@<TRIPOS>SUBSTRUCTURE
     1 CA2         1 TEMP              0 ****  ****    0 ROOT
