@<TRIPOS>MOLECULE
CA2
   43    41     1     0     0
SMALL
bcc


@<TRIPOS>ATOM
      1 O2         -0.8200    3.0160   -5.1860 o         1 CA2     -0.552000
      2 C7         -0.1550    1.9860   -4.8670 c1        1 CA2      0.321000
      3 O1         -0.1860    0.9490   -5.6150 os        1 CA2     -0.566000
      4 C1          0.6290    1.9620   -3.5570 c3        1 CA2      0.001000
      5 O3          1.8030    1.3350   -3.9510 oh        1 CA2     -0.370000
      6 C2         -0.1150    1.1400   -2.4430 c3        1 CA2     -0.153000
      7 C3          0.5850    1.1920   -1.1080 c3        1 CA2     -0.095000
      8 C4          0.8720    2.5970   -0.6520 c3        1 CA2      0.008000
      9 O4          1.6920    2.5360    0.5410 oh        1 CA2     -0.350000
     10 C5          1.5850    3.4230   -1.6820 c3        1 CA2     -0.007000
     11 O5          1.6490    4.7810   -1.2160 oh        1 CA2     -0.354000
     12 C6          0.9000    3.4040   -3.0320 c3        1 CA2     -0.177000
     13 C8         -0.3220    0.4920   -0.0320 c3        1 CA2     -0.151000
     14 C9          0.2770   -0.8810    0.3440 c3        1 CA2     -0.162000
     15 C10        -0.4820   -1.4470    1.5320 c3        1 CA2     -0.023000
     16 O11        -0.0340   -2.7860    1.7970 os        1 CA2     -0.210000
     17 C12        -0.7460   -3.4400    2.8890 c2        1 CA2      0.097000
     18 C17        -0.2910   -3.3030    4.2010 c2        1 CA2     -0.209000
     19 C16        -0.9200   -4.0030    5.2370 c1        1 CA2     -0.097000
     20 C15        -2.0050   -4.8420    4.9570 c1        1 CA2     -0.140500
     21 C14        -2.4620   -4.9810    3.6380 c1        1 CA2     -0.140500
     22 C13        -1.8360   -4.2830    2.6080 c1        1 CA2     -0.163000
     23 H3          2.1020    1.7060   -4.6750 ho        1 CA2      0.229000
     24 H2C1       -1.0250    1.5000   -2.3380 hc        1 CA2      0.093000
     25 H2C2       -0.1780    0.2130   -2.7250 hc        1 CA2      0.093000
     26 HA          1.4470    0.6930   -1.1760 hc        1 CA2      0.108000
     27 H4          0.0460    3.0240   -0.4370 h1        1 CA2      0.070000
     28 HB          1.4470    3.1560    1.0910 ho        1 CA2      0.205000
     29 H5          2.4760    3.0890   -1.7850 h1        1 CA2      0.129000
     30 HC          2.4960    5.0850   -1.2890 ho        1 CA2      0.194000
     31 H6C1        1.4720    3.8800   -3.6880 hc        1 CA2      0.098000
     32 H6C2        0.0480    3.8750   -2.9580 hc        1 CA2      0.098000
     33 H8C1       -0.3730    1.0640    0.7840 hc        1 CA2      0.081500
     34 H8C2       -1.2070    0.3670   -0.3920 hc        1 CA2      0.081500
     35 H9C1        0.1910   -1.5190   -0.4520 hc        1 CA2      0.101000
     36 H9C2        1.2630   -0.7710    0.5900 hc        1 CA2      0.101000
     37 H101       -1.4520   -1.4560    1.3270 h1        1 CA2      0.075500
     38 H102       -0.3220   -0.8910    2.3130 h1        1 CA2      0.075500
     39 H17         0.4420   -2.7350    4.3910 ha        1 CA2      0.140000
     40 H16        -0.5900   -3.9040    6.1880 ha        1 CA2      0.124000
     41 H15        -2.4470   -5.3360    5.6870 ha        1 CA2      0.124500
     42 H14        -3.3020   -5.5060    3.4510 ha        1 CA2      0.124500
     43 H13        -2.1540   -4.3800    1.6910 ha        1 CA2      0.148000
@<TRIPOS>BOND
     1    1    2 1   
     2    2    4 1   
     3    4    5 1   
     4    4    6 1   
     5    4   12 1   
     6    5   23 1   
     7    6    7 1   
     8    6   24 1   
     9    6   25 1   
    10    7    8 1   
    11    7   13 1   
    12    7   26 1   
    13    8    9 1   
    14    8   10 1   
    15    8   27 1   
    16    9   28 1   
    17   10   11 1   
    18   10   12 1   
    19   10   29 1   
    20   11   30 1   
    21   12   31 1   
    22   12   32 1   
    23   13   14 1   
    24   13   33 1   
    25   13   34 1   
    26   14   15 1   
    27   14   35 1   
    28   14   36 1   
    29   15   16 1   
    30   15   37 1   
    31   15   38 1   
    32   16   17 1   
    33   17   18 1   
    34   17   22 1   
    35   18   19 1   
    36   18   39 1   
    37   19   40 1   
    38   20   21 1   
    39   20   41 1   
    40   21   42 1   
    41   22   43 1   
@<TRIPOS>SUBSTRUCTURE
     1 CA2         1 TEMP              0 ****  ****    0 ROOT
