@<TRIPOS>MOLECULE
CA2
   43    44     1     0     0
SMALL
bcc


@<TRIPOS>ATOM
      1 O2          0.1190    1.0400    0.0380 o         1 CA2     -0.824300
      2 C7          1.0720    0.2210   -0.0400 c         1 CA2      0.901600
      3 O1          1.3710   -0.4660   -1.0560 o         1 CA2     -0.824300
      4 C1          1.9810    0.0240    1.2220 c3        1 CA2      0.022800
      5 O3          3.0400   -0.8890    0.9590 oh        1 CA2     -0.642800
      6 C2          1.1220   -0.5300    2.3580 c3        1 CA2     -0.074400
      7 C3          1.8540   -0.5840    3.6900 c3        1 CA2     -0.055700
      8 C4          2.3680    0.8160    4.0400 c3        1 CA2      0.119100
      9 O4          3.0490    0.7560    5.2900 oh        1 CA2     -0.622800
     10 C5          3.3080    1.3180    2.9290 c3        1 CA2      0.104100
     11 O5          3.8420    2.5800    3.3120 oh        1 CA2     -0.626800
     12 C6          2.5860    1.3750    1.5960 c3        1 CA2     -0.098400
     13 C8          0.9520   -1.1030    4.7990 c3        1 CA2     -0.072400
     14 C9          0.7750   -2.6050    4.7250 c3        1 CA2     -0.083400
     15 C10        -0.1300   -3.0700    5.8530 c3        1 CA2      0.127400
     16 O11        -0.1630   -4.5040    5.7710 os        1 CA2     -0.326900
     17 C12        -0.9480   -5.1440    6.7040 ca        1 CA2      0.142100
     18 C17        -0.9760   -6.5490    6.5860 ca        1 CA2     -0.186000
     19 C16        -1.7350   -7.2900    7.4810 ca        1 CA2     -0.100000
     20 C15        -2.4650   -6.6550    8.4900 ca        1 CA2     -0.178000
     21 C14        -2.4330   -5.2680    8.5990 ca        1 CA2     -0.100000
     22 C13        -1.6780   -4.5010    7.7120 ca        1 CA2     -0.186000
     23 H3          2.9240   -1.1980    0.0440 ho        1 CA2      0.430000
     24 H2C1        0.2100    0.1170    2.4410 hc        1 CA2      0.053700
     25 H2C2        0.7930   -1.5640    2.0790 hc        1 CA2      0.053700
     26 HA          2.7450   -1.2640    3.5860 hc        1 CA2      0.068700
     27 H4          1.5030    1.5280    4.1540 h1        1 CA2      0.030700
     28 HB          3.7000    1.4710    5.2840 ho        1 CA2      0.406000
     29 H5          4.2070    0.6420    2.8610 h1        1 CA2      0.089700
     30 HC          3.1590    3.2400    3.1460 ho        1 CA2      0.395000
     31 H6C1        3.3080    1.6880    0.8000 hc        1 CA2      0.058700
     32 H6C2        1.7540    2.1270    1.6320 hc        1 CA2      0.058700
     33 H8C1        1.4000   -0.8320    5.7920 hc        1 CA2      0.042200
     34 H8C2       -0.0490   -0.6010    4.7310 hc        1 CA2      0.042200
     35 H9C1        1.7690   -3.1170    4.8070 hc        1 CA2      0.061700
     36 H9C2        0.3280   -2.9000    3.7400 hc        1 CA2      0.061700
     37 H101       -1.1690   -2.6660    5.7310 h1        1 CA2      0.036200
     38 H102        0.2800   -2.7670    6.8520 h1        1 CA2      0.036200
     39 H17        -0.3980   -7.0320    5.7860 ha        1 CA2      0.144000
     40 H16        -1.7620   -8.3860    7.3940 ha        1 CA2      0.124500
     41 H15        -3.0630   -7.2510    9.1930 ha        1 CA2      0.124000
     42 H14        -3.0080   -4.7660    9.3910 ha        1 CA2      0.124500
     43 H13        -1.6640   -3.4070    7.8110 ha        1 CA2      0.144000
@<TRIPOS>BOND
     1    1    2 1   
     2    2    3 1   
     3    2    4 1   
     4    4    5 1   
     5    4    6 1   
     6    4   12 1   
     7    5   23 1   
     8    6    7 1   
     9    6   24 1   
    10    6   25 1   
    11    7    8 1   
    12    7   13 1   
    13    7   26 1   
    14    8    9 1   
    15    8   10 1   
    16    8   27 1   
    17    9   28 1   
    18   10   11 1   
    19   10   12 1   
    20   10   29 1   
    21   11   30 1   
    22   12   31 1   
    23   12   32 1   
    24   13   14 1   
    25   13   33 1   
    26   13   34 1   
    27   14   15 1   
    28   14   35 1   
    29   14   36 1   
    30   15   16 1   
    31   15   37 1   
    32   15   38 1   
    33   16   17 1   
    34   17   18 ar  
    35   17   22 ar  
    36   18   19 ar  
    37   18   39 1   
    38   19   20 ar  
    39   19   40 1   
    40   20   21 ar  
    41   20   41 1   
    42   21   22 ar  
    43   21   42 1   
    44   22   43 1   
@<TRIPOS>SUBSTRUCTURE
     1 CA2         1 TEMP              0 ****  ****    0 ROOT
