@<TRIPOS>MOLECULE
CA4
   58    62     1     0     0
SMALL
bcc


@<TRIPOS>ATOM
      1 C4          0.0340    0.1150   -0.0440 ce        1 CA4     -0.232200
      2 C14         5.2900   -1.6770    0.3350 c3        1 CA4     -0.060700
      3 C5          1.3770    0.0210   -0.0210 cf        1 CA4     -0.009200
      4 C6          2.1280   -0.0090    1.2350 cf        1 CA4      0.004400
      5 C11         4.1750   -1.3450   -2.3100 c3        1 CA4     -0.072400
      6 C7          3.4370   -0.3150    1.3100 c2        1 CA4     -0.126200
      7 C8          4.2540   -0.5960    0.1030 c3        1 CA4     -0.025500
      8 C9          3.3580   -1.0520   -1.0590 c3        1 CA4     -0.049700
      9 C10         2.2170   -0.0380   -1.2830 c3        1 CA4      0.014200
     10 C12         5.3090   -2.3280   -2.0580 c3        1 CA4     -0.065400
     11 C13         6.1890   -1.8590   -0.9110 c3        1 CA4     -0.032000
     12 C3         -0.7680    0.1290   -1.2780 c         1 CA4      0.595300
     13 C19         2.7460    1.3710   -1.5550 c3        1 CA4     -0.087100
     14 C1          1.4150   -0.4750   -2.4890 cx        1 CA4     -0.102700
     15 C22         0.5750   -1.7190   -2.4620 cx        1 CA4     -0.103400
     16 C2         -0.0920   -0.3680   -2.5000 cx        1 CA4     -0.228700
     17 O3         -1.9390    0.5280   -1.2920 o         1 CA4     -0.521100
     18 Cl6         1.2920    0.3580    2.6800 cl        1 CA4     -0.105400
     19 C18         6.9370   -0.5950   -1.3090 c3        1 CA4     -0.100100
     20 C15         6.2700   -1.5450    1.4910 c3        1 CA4     -0.075400
     21 C16         7.4340   -2.4650    1.1170 c3        1 CA4     -0.094400
     22 C17         7.2450   -2.8800   -0.3630 c3        1 CA4      0.071800
     23 C20         8.5460   -2.8450   -1.1570 c         1 CA4      0.574100
     24 C21         8.6400   -3.7670   -2.3290 c3        1 CA4     -0.201100
     25 O20         9.4620   -2.0790   -0.8470 o         1 CA4     -0.520100
     26 O17         6.6100   -4.1690   -0.4640 os        1 CA4     -0.438900
     27 C23         7.2220   -5.2820    0.0470 c         1 CA4      0.633100
     28 C24         6.3480   -6.4870   -0.0250 c3        1 CA4     -0.152100
     29 O23         8.3710   -5.1990    0.4810 o         1 CA4     -0.535000
     30 H4         -0.5590    0.1970    0.8840 ha        1 CA4      0.164000
     31 H14         4.7340   -2.6510    0.4850 hc        1 CA4      0.062700
     32 H111        4.5910   -0.3920   -2.7280 hc        1 CA4      0.046200
     33 H112        3.4990   -1.7860   -3.0910 hc        1 CA4      0.046200
     34 H7          3.9720   -0.3450    2.2740 ha        1 CA4      0.149000
     35 H8          4.7730    0.3680   -0.1750 hc        1 CA4      0.076700
     36 H9          2.8660   -2.0220   -0.7500 hc        1 CA4      0.058700
     37 H121        5.9190   -2.4310   -2.9920 hc        1 CA4      0.051200
     38 H122        4.8860   -3.3380   -1.8150 hc        1 CA4      0.051200
     39 H191        1.9060    2.0350   -1.8720 hc        1 CA4      0.045700
     40 H192        3.2070    1.8010   -0.6340 hc        1 CA4      0.045700
     41 H193        3.5110    1.3500   -2.3670 hc        1 CA4      0.045700
     42 H1          1.9400   -0.2250   -3.4350 hc        1 CA4      0.090700
     43 H221        0.5270   -2.3530   -3.3650 hc        1 CA4      0.080700
     44 H222        0.5250   -2.3130   -1.5310 hc        1 CA4      0.080700
     45 H2         -0.6010   -0.0530   -3.4340 hc        1 CA4      0.108700
     46 H181        7.5540   -0.7900   -2.2210 hc        1 CA4      0.048367
     47 H182        6.2310    0.2360   -1.5440 hc        1 CA4      0.048367
     48 H183        7.6190   -0.2670   -0.4870 hc        1 CA4      0.048367
     49 H151        6.6190   -0.4880    1.6030 hc        1 CA4      0.049200
     50 H152        5.8050   -1.8570    2.4570 hc        1 CA4      0.049200
     51 H161        7.4520   -3.3730    1.7680 hc        1 CA4      0.075700
     52 H162        8.4130   -1.9360    1.2340 hc        1 CA4      0.075700
     53 H211        9.4250   -3.4170   -3.0420 hc        1 CA4      0.069700
     54 H212        8.9190   -4.7860   -1.9560 hc        1 CA4      0.069700
     55 H213        7.6570   -3.8320   -2.8530 hc        1 CA4      0.069700
     56 H241        6.0350   -6.7630    1.0120 hc        1 CA4      0.077700
     57 H242        5.4390   -6.2890   -0.6440 hc        1 CA4      0.077700
     58 H243        6.9290   -7.3320   -0.4690 hc        1 CA4      0.077700
@<TRIPOS>BOND
     1    1    3 2   
     2    1   12 1   
     3    1   30 1   
     4    2    7 1   
     5    2   11 1   
     6    2   20 1   
     7    2   31 1   
     8    3    4 1   
     9    3    9 1   
    10    4    6 2   
    11    4   18 1   
    12    5    8 1   
    13    5   10 1   
    14    5   32 1   
    15    5   33 1   
    16    6    7 1   
    17    6   34 1   
    18    7    8 1   
    19    7   35 1   
    20    8    9 1   
    21    8   36 1   
    22    9   13 1   
    23    9   14 1   
    24   10   11 1   
    25   10   37 1   
    26   10   38 1   
    27   11   19 1   
    28   11   22 1   
    29   12   16 1   
    30   12   17 2   
    31   13   39 1   
    32   13   40 1   
    33   13   41 1   
    34   14   15 1   
    35   14   16 1   
    36   14   42 1   
    37   15   16 1   
    38   15   43 1   
    39   15   44 1   
    40   16   45 1   
    41   19   46 1   
    42   19   47 1   
    43   19   48 1   
    44   20   21 1   
    45   20   49 1   
    46   20   50 1   
    47   21   22 1   
    48   21   51 1   
    49   21   52 1   
    50   22   23 1   
    51   22   26 1   
    52   23   24 1   
    53   23   25 2   
    54   24   53 1   
    55   24   54 1   
    56   24   55 1   
    57   26   27 1   
    58   27   28 1   
    59   27   29 2   
    60   28   56 1   
    61   28   57 1   
    62   28   58 1   
@<TRIPOS>SUBSTRUCTURE
     1 CA4         1 TEMP              0 ****  ****    0 ROOT
