@<TRIPOS>MOLECULE
CA4
   58    62     1     0     0
SMALL
bcc


@<TRIPOS>ATOM
      1 C4          0.3560   -0.9950   -4.4320 ce        1 CA4     -0.232200
      2 C14        -0.1730   -2.6230    0.8650 c3        1 CA4     -0.060700
      3 C5          0.5700   -1.3000   -3.1380 cf        1 CA4     -0.009200
      4 C6          0.1740   -0.4000   -2.0550 cf        1 CA4      0.004400
      5 C11         1.0030   -4.4900   -1.0010 c3        1 CA4     -0.072400
      6 C7          0.1730   -0.7540   -0.7560 c2        1 CA4     -0.126200
      7 C8          0.6350   -2.0890   -0.3010 c3        1 CA4     -0.025500
      8 C9          0.5330   -3.1120   -1.4440 c3        1 CA4     -0.049700
      9 C10         1.2550   -2.5820   -2.7000 c3        1 CA4      0.014200
     10 C12         0.2950   -4.9810    0.2540 c3        1 CA4     -0.065400
     11 C13         0.4110   -3.9620    1.3760 c3        1 CA4     -0.032000
     12 C3          0.7170   -1.8740   -5.5550 c         1 CA4      0.595300
     13 C19         2.7230   -2.2530   -2.4240 c3        1 CA4     -0.087100
     14 C1          1.2110   -3.6520   -3.7690 cx        1 CA4     -0.102700
     15 C22        -0.0790   -4.0460   -4.4290 cx        1 CA4     -0.103400
     16 C2          0.9650   -3.2960   -5.2160 cx        1 CA4     -0.228700
     17 O3          0.8050   -1.4510   -6.7140 o         1 CA4     -0.521100
     18 CL6        -0.3190    1.1850   -2.4680 cl        1 CA4     -0.105400
     19 C18         1.8570   -3.8560    1.8390 c3        1 CA4     -0.100100
     20 C15        -0.3320   -1.7770    2.1200 c3        1 CA4     -0.075400
     21 C16        -0.7090   -2.7790    3.2130 c3        1 CA4     -0.094400
     22 C17        -0.4760   -4.2010    2.6460 c3        1 CA4      0.071800
     23 C20         0.1930   -5.1340    3.6490 c         1 CA4      0.574100
     24 C21        -0.0850   -6.5930    3.4940 c3        1 CA4     -0.201100
     25 O20         0.9380   -4.6960    4.5300 o         1 CA4     -0.520100
     26 O17        -1.7020   -4.7680    2.1490 os        1 CA4     -0.438900
     27 C23        -2.7550   -4.9890    2.9950 c         1 CA4      0.633100
     28 C24        -3.9750   -5.4420    2.2690 c3        1 CA4     -0.152100
     29 O23        -2.6070   -4.8200    4.2060 o         1 CA4     -0.535000
     30 H4         -0.1080   -0.0390   -4.7340 ha        1 CA4      0.164000
     31 H14        -1.2140   -2.8420    0.4820 hc        1 CA4      0.062700
     32 H111        2.1100   -4.4800   -0.8260 hc        1 CA4      0.046200
     33 H112        0.8010   -5.2260   -1.8250 hc        1 CA4      0.046200
     34 H7         -0.1460   -0.0570    0.0360 ha        1 CA4      0.149000
     35 H8          1.7140   -1.9760    0.0110 hc        1 CA4      0.076700
     36 H9         -0.5580   -3.2070   -1.7200 hc        1 CA4      0.058700
     37 H121       -0.7880   -5.1670    0.0290 hc        1 CA4      0.051200
     38 H122        0.7480   -5.9550    0.5740 hc        1 CA4      0.051200
     39 H191        3.2480   -2.0320   -3.3840 hc        1 CA4      0.045700
     40 H192        2.8060   -1.3580   -1.7620 hc        1 CA4      0.045700
     41 H193        3.2290   -3.1160   -1.9300 hc        1 CA4      0.045700
     42 H1          1.9560   -4.4510   -3.5700 hc        1 CA4      0.090700
     43 H221       -1.0100   -3.5240   -4.1440 hc        1 CA4      0.080700
     44 H222       -0.2530   -5.1100   -4.6710 hc        1 CA4      0.080700
     45 H2          1.5260   -3.8370   -6.0040 hc        1 CA4      0.108700
     46 H181        2.5220   -3.5120    1.0120 hc        1 CA4      0.048367
     47 H182        1.9440   -3.1400    2.6930 hc        1 CA4      0.048367
     48 H183        2.2200   -4.8560    2.1810 hc        1 CA4      0.048367
     49 H151       -1.1270   -1.0040    1.9910 hc        1 CA4      0.049200
     50 H152        0.6220   -1.2510    2.3730 hc        1 CA4      0.049200
     51 H161       -0.0730   -2.6310    4.1230 hc        1 CA4      0.075700
     52 H162       -1.7780   -2.6590    3.5160 hc        1 CA4      0.075700
     53 H211       -1.0710   -6.8190    3.9750 hc        1 CA4      0.069700
     54 H212       -0.1400   -6.8670    2.4130 hc        1 CA4      0.069700
     55 H213        0.7070   -7.2000    3.9950 hc        1 CA4      0.069700
     56 H241       -3.7420   -5.6880    1.2050 hc        1 CA4      0.077700
     57 H242       -4.7340   -4.6220    2.3010 hc        1 CA4      0.077700
     58 H243       -4.3900   -6.3440    2.7820 hc        1 CA4      0.077700
@<TRIPOS>BOND
     1    1    3 2   
     2    1   12 1   
     3    1   30 1   
     4    2    7 1   
     5    2   11 1   
     6    2   20 1   
     7    2   31 1   
     8    3    4 1   
     9    3    9 1   
    10    4    6 2   
    11    4   18 1   
    12    5    8 1   
    13    5   10 1   
    14    5   32 1   
    15    5   33 1   
    16    6    7 1   
    17    6   34 1   
    18    7    8 1   
    19    7   35 1   
    20    8    9 1   
    21    8   36 1   
    22    9   13 1   
    23    9   14 1   
    24   10   11 1   
    25   10   37 1   
    26   10   38 1   
    27   11   19 1   
    28   11   22 1   
    29   12   16 1   
    30   12   17 2   
    31   13   39 1   
    32   13   40 1   
    33   13   41 1   
    34   14   15 1   
    35   14   16 1   
    36   14   42 1   
    37   15   16 1   
    38   15   43 1   
    39   15   44 1   
    40   16   45 1   
    41   19   46 1   
    42   19   47 1   
    43   19   48 1   
    44   20   21 1   
    45   20   49 1   
    46   20   50 1   
    47   21   22 1   
    48   21   51 1   
    49   21   52 1   
    50   22   23 1   
    51   22   26 1   
    52   23   24 1   
    53   23   25 2   
    54   24   53 1   
    55   24   54 1   
    56   24   55 1   
    57   26   27 1   
    58   27   28 1   
    59   27   29 2   
    60   28   56 1   
    61   28   57 1   
    62   28   58 1   
@<TRIPOS>SUBSTRUCTURE
     1 CA4         1 TEMP              0 ****  ****    0 ROOT
