@<TRIPOS>MOLECULE
CA4
   58    59     1     0     0
SMALL
bcc


@<TRIPOS>ATOM
      1 C4         -5.3080    0.3890    1.3790 c1        1 CA4     -0.212000
      2 C14         0.7360    0.1700    1.2960 c3        1 CA4     -0.091000
      3 C5         -3.5740    0.3590    1.4500 c1        1 CA4     -0.006000
      4 C6         -2.7260    0.4670    2.9220 c1        1 CA4     -0.078000
      5 C11        -0.6790   -0.0080   -1.2900 c3        1 CA4     -0.147000
      6 C7         -1.0360    0.5740    2.8110 c1        1 CA4     -0.123000
      7 C8         -0.4150    0.6220    1.2790 c2        1 CA4     -0.070000
      8 C9         -1.3520   -0.0780    0.1050 c3        1 CA4     -0.089000
      9 C10        -2.6930    0.3970    0.0050 c3        1 CA4      0.012000
     10 C12         0.5680   -0.4820   -1.2630 c3        1 CA4     -0.163000
     11 C13         1.4510    0.1940   -0.1210 c3        1 CA4     -0.027000
     12 C3         -5.9150    0.3090    0.0160 c1        1 CA4      0.287000
     13 C19        -2.5980    1.8820   -0.3940 c3        1 CA4     -0.205000
     14 C1         -3.4040   -0.4170   -1.3360 cx        1 CA4     -0.143000
     15 C22        -4.4970   -1.1810   -1.2070 cx        1 CA4     -0.179000
     16 C2         -4.7390    0.1670   -1.4080 cx        1 CA4     -0.219000
     17 O3         -7.0760   -0.0410   -0.1150 o         1 CA4     -0.282000
     18 CL6        -3.4700   -0.0860    4.4030 cl        1 CA4     -0.021000
     19 C18         1.8130    1.6460   -0.5130 c3        1 CA4     -0.200000
     20 C15         0.7630   -0.4230    1.5320 c3        1 CA4     -0.155000
     21 C16         2.1980   -1.1720    0.8510 c3        1 CA4     -0.175000
     22 C17         2.5070   -0.5010    0.0060 c3        1 CA4      0.051000
     23 C20         2.9260   -1.4490   -1.5400 c2        1 CA4      0.233000
     24 C21         3.9220   -0.8650   -2.5500 c3        1 CA4     -0.263000
     25 O20         2.4670   -2.5670   -1.7120 o         1 CA4     -0.280000
     26 O17         3.6990    0.2530    0.2420 os        1 CA4     -0.277000
     27 C23         4.8240   -0.5440    0.6130 c2        1 CA4      0.302000
     28 C24         6.1450    0.1280    0.9980 c3        1 CA4     -0.219000
     29 O23         4.7430   -1.7610    0.5890 o         1 CA4     -0.341000
     30 H4         -5.8230    0.7650    2.1250 ha        1 CA4      0.164000
     31 H14         1.2660    0.7510    1.9010 hc        1 CA4      0.097000
     32 H111       -0.6590    0.9300   -1.5890 hc        1 CA4      0.087000
     33 H112       -1.2100   -0.5370   -1.9290 hc        1 CA4      0.087000
     34 H7         -0.4740    0.2750    3.5580 ha        1 CA4      0.147000
     35 H8         -0.3390    1.5740    1.0390 ha        1 CA4      0.108000
     36 H9         -1.4140   -1.0330    0.3370 hc        1 CA4      0.104000
     37 H121        0.5360   -1.4540   -1.1070 hc        1 CA4      0.095000
     38 H122        0.9920   -0.3130   -2.1360 hc        1 CA4      0.095000
     39 H191       -1.9370    2.3320    0.1750 hc        1 CA4      0.084667
     40 H192       -3.4770    2.3100   -0.2760 hc        1 CA4      0.084667
     41 H193       -2.3230    1.9520   -1.3350 hc        1 CA4      0.084667
     42 H1         -2.9650   -0.3660   -2.2130 hc        1 CA4      0.129000
     43 H221       -4.6970   -1.7640   -1.9740 hc        1 CA4      0.121500
     44 H222       -4.6750   -1.5100   -0.2990 hc        1 CA4      0.121500
     45 H2         -5.1330    0.2650   -2.3040 hc        1 CA4      0.148000
     46 H181        0.9930    2.1400   -0.7350 hc        1 CA4      0.081000
     47 H182        2.2680    2.0870    0.2410 hc        1 CA4      0.081000
     48 H183        2.4100    1.6360   -1.2950 hc        1 CA4      0.081000
     49 H151        0.8340   -0.3910    2.5210 hc        1 CA4      0.090000
     50 H152       -0.0400   -0.9290    1.2680 hc        1 CA4      0.090000
     51 H161        1.9850   -2.0720    0.5120 hc        1 CA4      0.115000
     52 H162        2.9120   -1.2210    1.5280 hc        1 CA4      0.115000
     53 H211        3.4300   -0.4520   -3.2940 hc        1 CA4      0.106667
     54 H212        4.4980   -1.5840   -2.8970 hc        1 CA4      0.106667
     55 H213        4.4770   -0.1870   -2.1080 hc        1 CA4      0.106667
     56 H241        6.0970    1.0860    0.7910 hc        1 CA4      0.116667
     57 H242        6.3060    0.0080    1.9600 hc        1 CA4      0.116667
     58 H243        6.8810   -0.2810    0.4890 hc        1 CA4      0.116667
@<TRIPOS>BOND
     1    1    3 1   
     2    1   30 1   
     3    2    7 1   
     4    2   11 1   
     5    2   20 1   
     6    2   31 1   
     7    3    9 1   
     8    4    6 1   
     9    4   18 1   
    10    5    8 1   
    11    5   10 1   
    12    5   32 1   
    13    5   33 1   
    14    6   34 1   
    15    7    8 1   
    16    7   35 1   
    17    8    9 1   
    18    8   36 1   
    19    9   13 1   
    20    9   14 1   
    21   10   11 1   
    22   10   37 1   
    23   10   38 1   
    24   11   19 1   
    25   11   22 1   
    26   12   16 1   
    27   12   17 1   
    28   13   39 1   
    29   13   40 1   
    30   13   41 1   
    31   14   15 1   
    32   14   16 1   
    33   14   42 1   
    34   15   16 1   
    35   15   43 1   
    36   15   44 1   
    37   16   45 1   
    38   19   46 1   
    39   19   47 1   
    40   19   48 1   
    41   20   21 1   
    42   20   49 1   
    43   20   50 1   
    44   21   22 1   
    45   21   51 1   
    46   21   52 1   
    47   22   23 1   
    48   22   26 1   
    49   23   24 1   
    50   23   25 1   
    51   24   53 1   
    52   24   54 1   
    53   24   55 1   
    54   26   27 1   
    55   27   28 1   
    56   27   29 1   
    57   28   56 1   
    58   28   57 1   
    59   28   58 1   
@<TRIPOS>SUBSTRUCTURE
     1 CA4         1 TEMP              0 ****  ****    0 ROOT
