@<TRIPOS>MOLECULE
CA4
   58    62     1     0     0
SMALL
bcc


@<TRIPOS>ATOM
      1 C4          0.0280    0.0820   -0.0040 ce        1 CA4     -0.232200
      2 C14         5.3000   -1.6710    0.3280 c3        1 CA4     -0.060700
      3 C5          1.3710   -0.0020    0.0070 cf        1 CA4     -0.009200
      4 C6          2.1350   -0.0250    1.2550 cf        1 CA4      0.004400
      5 C11         4.1580   -1.3490   -2.3070 c3        1 CA4     -0.072400
      6 C7          3.4460   -0.3220    1.3190 c2        1 CA4     -0.126200
      7 C8          4.2540   -0.5970    0.1050 c3        1 CA4     -0.025500
      8 C9          3.3510   -1.0620   -1.0480 c3        1 CA4     -0.049700
      9 C10         2.2010   -0.0560   -1.2630 c3        1 CA4      0.014200
     10 C12         5.3020   -2.3240   -2.0640 c3        1 CA4     -0.065400
     11 C13         6.1890   -1.8470   -0.9260 c3        1 CA4     -0.032000
     12 C3         -0.7860    0.0890   -1.2300 c         1 CA4      0.595300
     13 C19         2.7160    1.3570   -1.5410 c3        1 CA4     -0.087100
     14 C1          1.3900   -0.4990   -2.4610 cx        1 CA4     -0.102700
     15 C22         0.5600   -1.7500   -2.4250 cx        1 CA4     -0.103400
     16 C2         -0.1170   -0.4030   -2.4580 cx        1 CA4     -0.228700
     17 O3         -1.9590    0.4800   -1.2340 o         1 CA4     -0.521100
     18 CL6         1.3100    0.3380    2.7090 cl        1 CA4     -0.105400
     19 C18         6.9240   -0.5780   -1.3330 c3        1 CA4     -0.100100
     20 C15         6.2900   -1.5300    1.4750 c3        1 CA4     -0.075400
     21 C16         7.4570   -2.4420    1.0910 c3        1 CA4     -0.094400
     22 C17         7.2570   -2.8600   -0.3870 c3        1 CA4      0.071800
     23 C20         8.5500   -2.8170   -1.1930 c         1 CA4      0.574100
     24 C21         8.6410   -3.7390   -2.3650 c3        1 CA4     -0.201100
     25 O20         9.4640   -2.0430   -0.8930 o         1 CA4     -0.520100
     26 O17         6.6310   -4.1540   -0.4810 os        1 CA4     -0.438900
     27 C23         7.2560   -5.2610    0.0260 c         1 CA4      0.633100
     28 C24         6.3900   -6.4730   -0.0370 c3        1 CA4     -0.152100
     29 O23         8.4090   -5.1700    0.4490 o         1 CA4     -0.535000
     30 H4         -0.5570    0.1610    0.9300 ha        1 CA4      0.164000
     31 H14         4.7530   -2.6480    0.4840 hc        1 CA4      0.062700
     32 H111        4.5630   -0.3930   -2.7290 hc        1 CA4      0.046200
     33 H112        3.4780   -1.7960   -3.0810 hc        1 CA4      0.046200
     34 H7          3.9910   -0.3470    2.2780 ha        1 CA4      0.149000
     35 H8          4.7640    0.3700   -0.1790 hc        1 CA4      0.076700
     36 H9          2.8690   -2.0340   -0.7340 hc        1 CA4      0.058700
     37 H121        4.8890   -3.3370   -1.8170 hc        1 CA4      0.051200
     38 H122        5.9040   -2.4230   -3.0050 hc        1 CA4      0.051200
     39 H191        3.4740    1.3410   -2.3600 hc        1 CA4      0.045700
     40 H192        1.8690    2.0150   -1.8510 hc        1 CA4      0.045700
     41 H193        3.1830    1.7910   -0.6240 hc        1 CA4      0.045700
     42 H1          1.9050   -0.2470   -3.4120 hc        1 CA4      0.090700
     43 H221        0.5080   -2.3850   -3.3280 hc        1 CA4      0.080700
     44 H222        0.5230   -2.3430   -1.4930 hc        1 CA4      0.080700
     45 H2         -0.6370   -0.0940   -3.3870 hc        1 CA4      0.108700
     46 H181        7.6110   -0.2440   -0.5170 hc        1 CA4      0.048367
     47 H182        6.2100    0.2480   -1.5610 hc        1 CA4      0.048367
     48 H183        7.5340   -0.7690   -2.2500 hc        1 CA4      0.048367
     49 H151        6.6320   -0.4710    1.5830 hc        1 CA4      0.049200
     50 H152        5.8360   -1.8450    2.4460 hc        1 CA4      0.049200
     51 H161        7.4880   -3.3500    1.7420 hc        1 CA4      0.075700
     52 H162        8.4340   -1.9050    1.1980 hc        1 CA4      0.075700
     53 H211        8.9310   -4.7550   -1.9940 hc        1 CA4      0.069700
     54 H212        7.6520   -3.8120   -2.8800 hc        1 CA4      0.069700
     55 H213        9.4160   -3.3840   -3.0860 hc        1 CA4      0.069700
     56 H241        6.9730   -7.3140   -0.4850 hc        1 CA4      0.077700
     57 H242        6.0880   -6.7510    1.0030 hc        1 CA4      0.077700
     58 H243        5.4750   -6.2820   -0.6480 hc        1 CA4      0.077700
@<TRIPOS>BOND
     1    1    3 2   
     2    1   12 1   
     3    1   30 1   
     4    2    7 1   
     5    2   11 1   
     6    2   20 1   
     7    2   31 1   
     8    3    4 1   
     9    3    9 1   
    10    4    6 2   
    11    4   18 1   
    12    5    8 1   
    13    5   10 1   
    14    5   32 1   
    15    5   33 1   
    16    6    7 1   
    17    6   34 1   
    18    7    8 1   
    19    7   35 1   
    20    8    9 1   
    21    8   36 1   
    22    9   13 1   
    23    9   14 1   
    24   10   11 1   
    25   10   37 1   
    26   10   38 1   
    27   11   19 1   
    28   11   22 1   
    29   12   16 1   
    30   12   17 2   
    31   13   39 1   
    32   13   40 1   
    33   13   41 1   
    34   14   15 1   
    35   14   16 1   
    36   14   42 1   
    37   15   16 1   
    38   15   43 1   
    39   15   44 1   
    40   16   45 1   
    41   19   46 1   
    42   19   47 1   
    43   19   48 1   
    44   20   21 1   
    45   20   49 1   
    46   20   50 1   
    47   21   22 1   
    48   21   51 1   
    49   21   52 1   
    50   22   23 1   
    51   22   26 1   
    52   23   24 1   
    53   23   25 2   
    54   24   53 1   
    55   24   54 1   
    56   24   55 1   
    57   26   27 1   
    58   27   28 1   
    59   27   29 2   
    60   28   56 1   
    61   28   57 1   
    62   28   58 1   
@<TRIPOS>SUBSTRUCTURE
     1 CA4         1 TEMP              0 ****  ****    0 ROOT
