@<TRIPOS>MOLECULE
CA7
   82    84     1     0     0
SMALL
bcc


@<TRIPOS>ATOM
      1 C1         -5.8330    0.6540   -0.5050 c3        1 CA7      0.302900
      2 O1         -4.7330    0.4960    0.3810 os        1 CA7     -0.458600
      3 C2         -7.0980    0.7400    0.3690 c3        1 CA7      0.095100
      4 O2         -6.9790    1.7380    1.3600 oh        1 CA7     -0.590800
      5 C3         -7.4140   -0.6160    1.0140 c3        1 CA7      0.073100
      6 O3         -8.6970   -0.6070    1.6180 oh        1 CA7     -0.605800
      7 C4         -7.4390   -1.7140   -0.0610 c3        1 CA7      0.129100
      8 O4         -7.6060   -2.9910    0.5270 oh        1 CA7     -0.594800
      9 C5         -6.0900   -1.7240   -0.7910 c3        1 CA7      0.098100
     10 O5         -5.8250   -0.4470   -1.3820 os        1 CA7     -0.441600
     11 C6         -6.0960   -2.7210   -1.9540 c3        1 CA7      0.140400
     12 O6         -4.8250   -2.7990   -2.5610 oh        1 CA7     -0.596800
     13 OAB        -1.6970   -2.1690    1.5660 oh        1 CA7     -0.592800
     14 OAF        -1.3420    3.7290   -0.5950 oh        1 CA7     -0.603800
     15 OAG        -3.9270    2.7470   -1.3100 oh        1 CA7     -0.604800
     16 CAH         5.2820    0.3930   -0.1790 c3        1 CA7     -0.078400
     17 CAI         3.9670    0.3330    0.5690 c3        1 CA7     -0.078400
     18 CAJ         6.4000   -0.2320    0.6280 c3        1 CA7     -0.079400
     19 CAK        13.0690   -0.3920   -0.1500 c3        1 CA7     -0.076400
     20 CAL         2.8530    0.9590   -0.2420 c3        1 CA7     -0.084400
     21 CAM         7.7150   -0.1740   -0.1200 c3        1 CA7     -0.079400
     22 CAN        12.4640   -1.7800   -0.1080 c3        1 CA7     -0.076400
     23 CAO        12.1140    0.6010   -0.7810 c3        1 CA7     -0.076400
     24 CAP         1.5440    0.8890    0.5230 c3        1 CA7      0.136400
     25 CAS         8.8310   -0.7970    0.6910 c3        1 CA7     -0.076400
     26 CAT        11.1230   -1.7770    0.5950 c3        1 CA7     -0.072900
     27 CAU        10.7740    0.6020   -0.0740 c3        1 CA7     -0.072900
     28 OAV        -1.1140    0.1670    0.2720 os        1 CA7     -0.444600
     29 OAX         0.5570    1.5020   -0.3180 os        1 CA7     -0.422600
     30 CAZ        10.1590   -0.7900   -0.0510 c3        1 CA7     -0.063700
     31 CBB        -2.4530   -0.0230    0.7300 c3        1 CA7      0.107100
     32 CBF        -1.6250    2.3460   -0.7010 c3        1 CA7      0.086100
     33 CBG        -3.1030    2.1740   -0.3090 c3        1 CA7      0.121100
     34 CBH        -0.7290    1.5370    0.2550 c3        1 CA7      0.306900
     35 CBJ        -3.4490    0.6760   -0.2160 c3        1 CA7      0.128100
     36 H1         -5.7180    1.5580   -1.1710 h2        1 CA7      0.126700
     37 H2         -7.9620    1.0730   -0.2740 h1        1 CA7      0.102700
     38 HO2        -6.1510    1.5800    1.8350 ho        1 CA7      0.419000
     39 H3         -6.6370   -0.8590    1.7920 h1        1 CA7      0.062700
     40 HO3        -8.7460    0.1960    2.1530 ho        1 CA7      0.424000
     41 H4         -8.2800   -1.5160   -0.7830 h1        1 CA7      0.059700
     42 HO4        -8.3900   -2.9320    1.0910 ho        1 CA7      0.426000
     43 H5         -5.2630   -1.9720   -0.0700 h1        1 CA7      0.074700
     44 H6         -6.3040   -3.7490   -1.5520 h1        1 CA7      0.064700
     45 H6A        -6.8750   -2.4290   -2.7070 h1        1 CA7      0.064700
     46 HO6        -4.6180   -1.9180   -2.8980 ho        1 CA7      0.408000
     47 HOAB       -0.8350   -1.9910    1.1670 ho        1 CA7      0.412000
     48 HOAF       -0.4190    3.8410   -0.8600 ho        1 CA7      0.426000
     49 HOAG       -3.6530    3.6700   -1.3980 ho        1 CA7      0.427000
     50 HAH         5.1810   -0.1420   -1.1600 hc        1 CA7      0.041700
     51 HAHA        5.5360    1.4610   -0.4090 hc        1 CA7      0.041700
     52 HAI         3.7130   -0.7350    0.7980 hc        1 CA7      0.042200
     53 HAIA        4.0680    0.8680    1.5500 hc        1 CA7      0.042200
     54 HAJ         6.5010    0.3030    1.6090 hc        1 CA7      0.040200
     55 HAJA        6.1450   -1.3000    0.8600 hc        1 CA7      0.040200
     56 HAKA       14.0260   -0.4160   -0.7330 hc        1 CA7      0.038200
     57 HAL         3.0950    2.0290   -0.4720 hc        1 CA7      0.055200
     58 HALA        2.7390    0.4260   -1.2220 hc        1 CA7      0.055200
     59 HAM         7.6140   -0.7140   -1.0990 hc        1 CA7      0.040700
     60 HAMA        7.9650    0.8940   -0.3550 hc        1 CA7      0.040700
     61 HAN        12.3360   -2.1630   -1.1550 hc        1 CA7      0.038450
     62 HANA       13.1620   -2.4780    0.4230 hc        1 CA7      0.038450
     63 HAO        12.5600    1.6290   -0.7390 hc        1 CA7      0.038450
     64 HAOA       11.9660    0.3410   -1.8620 hc        1 CA7      0.038450
     65 HAP         1.2470   -0.1720    0.7300 h1        1 CA7      0.038700
     66 HAPA        1.6050    1.4540    1.4900 h1        1 CA7      0.038700
     67 HAR        -2.6480   -1.9540   -0.2840 h1        1 CA7      0.065200
     68 HARA       -3.6520   -1.7620    1.2500 h1        1 CA7      0.065200
     69 HAS         8.9430   -0.2480    1.6630 hc        1 CA7      0.040200
     70 HASA        8.5560   -1.8560    0.9400 hc        1 CA7      0.040200
     71 HAT        10.6810   -2.8070    0.5600 hc        1 CA7      0.039200
     72 HATA       11.2630   -1.5050    1.6740 hc        1 CA7      0.039200
     73 HAU        10.9060    0.9690    0.9780 hc        1 CA7      0.039200
     74 HAUA       10.0790    1.3120   -0.5940 hc        1 CA7      0.039200
     75 HAZ         9.9800   -1.1160   -1.1150 hc        1 CA7      0.048700
     76 HBB        -2.5570    0.4000    1.7670 h1        1 CA7      0.062700
     77 HBF        -1.4620    1.9950   -1.7580 h1        1 CA7      0.079700
     78 HBG        -3.3000    2.6790    0.6770 h1        1 CA7      0.062700
     79 HBH        -0.7230    1.9640    1.2960 h2        1 CA7      0.054700
     80 HBJ        -3.4290    0.2120   -1.2400 h1        1 CA7      0.087700
     81 CAR        -2.6670   -1.5400    0.7590 c3        1 CA7      0.140400
     82 HAK        13.3170   -0.0610    0.8920 hc        1 CA7      0.038200
@<TRIPOS>BOND
     1    1    2 1   
     2    1    3 1   
     3    1   10 1   
     4    1   36 1   
     5    2   35 1   
     6    3    4 1   
     7    3    5 1   
     8    3   37 1   
     9    4   38 1   
    10    5    6 1   
    11    5    7 1   
    12    5   39 1   
    13    6   40 1   
    14    7    8 1   
    15    7    9 1   
    16    7   41 1   
    17    8   42 1   
    18    9   10 1   
    19    9   11 1   
    20    9   43 1   
    21   11   12 1   
    22   11   44 1   
    23   11   45 1   
    24   12   46 1   
    25   13   47 1   
    26   13   81 1   
    27   14   32 1   
    28   14   48 1   
    29   15   33 1   
    30   15   49 1   
    31   16   17 1   
    32   16   18 1   
    33   16   50 1   
    34   16   51 1   
    35   17   20 1   
    36   17   52 1   
    37   17   53 1   
    38   18   21 1   
    39   18   54 1   
    40   18   55 1   
    41   19   22 1   
    42   19   23 1   
    43   19   56 1   
    44   19   82 1   
    45   20   24 1   
    46   20   57 1   
    47   20   58 1   
    48   21   25 1   
    49   21   59 1   
    50   21   60 1   
    51   22   26 1   
    52   22   61 1   
    53   22   62 1   
    54   23   27 1   
    55   23   63 1   
    56   23   64 1   
    57   24   29 1   
    58   24   65 1   
    59   24   66 1   
    60   25   30 1   
    61   25   69 1   
    62   25   70 1   
    63   26   30 1   
    64   26   71 1   
    65   26   72 1   
    66   27   30 1   
    67   27   73 1   
    68   27   74 1   
    69   28   31 1   
    70   28   34 1   
    71   29   34 1   
    72   30   75 1   
    73   31   35 1   
    74   31   76 1   
    75   31   81 1   
    76   32   33 1   
    77   32   34 1   
    78   32   77 1   
    79   33   35 1   
    80   33   78 1   
    81   34   79 1   
    82   35   80 1   
    83   67   81 1   
    84   68   81 1   
@<TRIPOS>SUBSTRUCTURE
     1 CA7         1 TEMP              0 ****  ****    0 ROOT
