@<TRIPOS>MOLECULE
CA7
   82    84     1     0     0
SMALL
bcc


@<TRIPOS>ATOM
      1 C1          5.7700   -0.7200    3.5560 c3        1 CA7      0.293900
      2 O1          5.3470   -0.8830    2.4240 os        1 CA7     -0.385600
      3 C2          7.0660    0.2140    3.5490 c3        1 CA7      0.108100
      4 O2          7.9540   -0.2630    2.5680 oh        1 CA7     -0.569800
      5 C3          7.7900    0.2730    4.8560 c3        1 CA7      0.105100
      6 O3          6.9120    0.9450    5.8540 oh        1 CA7     -0.600800
      7 C4          8.1580   -1.0200    5.3670 c3        1 CA7      0.114100
      8 O4          9.2350   -1.5930    4.4750 oh        1 CA7     -0.599800
      9 C5          7.0760   -1.9610    5.4290 c3        1 CA7      0.120100
     10 O5          6.3350   -2.0980    4.1610 os        1 CA7     -0.444600
     11 C6          6.0890   -1.5030    6.5320 c3        1 CA7      0.094400
     12 O6          5.8340   -2.5710    7.4040 oh        1 CA7     -0.606800
     13 OAB         3.2740   -4.2330    0.9560 oh        1 CA7     -0.599800
     14 OAF         1.5600    1.8480    1.5430 oh        1 CA7     -0.606800
     15 OAG         3.7680    1.3400    3.2920 oh        1 CA7     -0.608800
     16 CAH        -3.9930   -0.0780   -1.8450 c3        1 CA7     -0.078400
     17 CAI        -2.8680    0.5600   -0.9820 c3        1 CA7     -0.078400
     18 CAJ        -4.5010    0.9560   -2.8770 c3        1 CA7     -0.079400
     19 CAK        -9.3940    2.2220   -7.2620 c3        1 CA7     -0.076400
     20 CAL        -2.0810   -0.5590   -0.2450 c3        1 CA7     -0.084400
     21 CAM        -5.8670    0.4840   -3.4580 c3        1 CA7     -0.079400
     22 CAN        -9.1780    0.7220   -7.0990 c3        1 CA7     -0.076400
     23 CAO        -9.0540    2.9960   -6.0050 c3        1 CA7     -0.076400
     24 CAP        -0.5550   -0.2470   -0.3030 c3        1 CA7      0.135400
     25 CAR         3.7820   -3.2850    1.8690 c3        1 CA7      0.131400
     26 CAS        -5.9730    0.9110   -4.9490 c3        1 CA7     -0.076400
     27 CAT        -7.7980    0.3900   -6.5710 c3        1 CA7     -0.072900
     28 CAU        -7.6700    2.6620   -5.4730 c3        1 CA7     -0.072900
     29 OAV         1.9410   -1.8420    1.2380 os        1 CA7     -0.430600
     30 OAX         0.0360   -0.5080    0.9740 os        1 CA7     -0.427600
     31 CAZ        -7.4560    1.1670   -5.3100 c3        1 CA7     -0.063700
     32 CBB         3.3950   -1.8950    1.4190 c3        1 CA7      0.147100
     33 CBF         1.9360    0.5190    1.9850 c3        1 CA7      0.085100
     34 CBG         3.4030    0.4740    2.1670 c3        1 CA7      0.122100
     35 CBH         1.4510   -0.4920    0.9660 c3        1 CA7      0.305900
     36 CBJ         3.8900   -0.8910    2.4410 c3        1 CA7      0.115100
     37 H1          5.0740   -0.3440    4.1380 h2        1 CA7      0.082700
     38 H2          6.7920    1.1210    3.3060 h1        1 CA7      0.087700
     39 HO2         8.2980    0.4270    2.1150 ho        1 CA7      0.425000
     40 H3          8.5990    0.8060    4.7410 h1        1 CA7      0.076700
     41 HO3         7.2010    1.7730    5.9930 ho        1 CA7      0.412000
     42 H4          8.5270   -0.9060    6.2710 h1        1 CA7      0.076700
     43 HO4         9.9610   -1.7800    4.9660 ho        1 CA7      0.412000
     44 H5          7.4320   -2.8260    5.6730 h1        1 CA7      0.090700
     45 H6          5.2470   -1.2100    6.1180 h1        1 CA7      0.049700
     46 H6A         6.4820   -0.7610    7.0330 h1        1 CA7      0.049700
     47 HO6         5.7760   -2.2640    8.2440 ho        1 CA7      0.409000
     48 HOAB        3.7060   -5.0110    1.0620 ho        1 CA7      0.402000
     49 HOAF        0.8960    2.1500    2.0450 ho        1 CA7      0.425000
     50 HOAG        3.4740    2.1650    3.1390 ho        1 CA7      0.423000
     51 HAH        -3.6410   -0.8590   -2.3130 hc        1 CA7      0.041200
     52 HAHA       -4.7200   -0.3470   -1.2750 hc        1 CA7      0.041200
     53 HAI        -2.2510    1.0670   -1.5680 hc        1 CA7      0.042200
     54 HAIA       -3.2650    1.1660   -0.3270 hc        1 CA7      0.042200
     55 HAJ        -3.8430    1.0410   -3.6100 hc        1 CA7      0.040200
     56 HAJA       -4.6160    1.8270   -2.4380 hc        1 CA7      0.040200
     57 HAK       -10.3550    2.3880   -7.4950 hc        1 CA7      0.038200
     58 HAKA       -8.8370    2.5420   -7.9850 hc        1 CA7      0.038200
     59 HAL        -2.3680   -0.6000    0.6840 hc        1 CA7      0.052700
     60 HALA       -2.2540   -1.4170   -0.6770 hc        1 CA7      0.052700
     61 HAM        -6.5960    0.8930   -2.9500 hc        1 CA7      0.040200
     62 HAMA       -5.9300   -0.4930   -3.3920 hc        1 CA7      0.040200
     63 HAN        -9.2960    0.2860   -7.9730 hc        1 CA7      0.038200
     64 HANA       -9.8570    0.3670   -6.4680 hc        1 CA7      0.038200
     65 HAO        -9.0940    3.9570   -6.2040 hc        1 CA7      0.038200
     66 HAOA       -9.7290    2.7830   -5.3040 hc        1 CA7      0.038200
     67 HAP        -0.4230    0.7000   -0.5370 h1        1 CA7      0.042700
     68 HAPA       -0.1300   -0.8150   -0.9820 h1        1 CA7      0.042700
     69 HAR         3.4070   -3.4580    2.7670 h1        1 CA7      0.052200
     70 HARA        4.7580   -3.3560    1.9030 h1        1 CA7      0.052200
     71 HAS        -5.6170    0.1980   -5.5180 hc        1 CA7      0.040200
     72 HASA       -5.4620    1.7220   -5.0890 hc        1 CA7      0.040200
     73 HAT        -7.7560   -0.5770   -6.3710 hc        1 CA7      0.039200
     74 HATA       -7.1380    0.5990   -7.2600 hc        1 CA7      0.039200
     75 HAU        -7.0020    3.0090   -6.0920 hc        1 CA7      0.039200
     76 HAUA       -7.5520    3.0990   -4.5960 hc        1 CA7      0.039200
     77 HAZ        -8.0230    0.8440   -4.5750 hc        1 CA7      0.047700
     78 HBB         3.8270   -1.7090    0.5580 h1        1 CA7      0.079700
     79 HBF         1.5060    0.3360    2.8410 h1        1 CA7      0.074700
     80 HBG         3.8320    0.8060    1.3600 h1        1 CA7      0.067700
     81 HBH         1.7610   -0.2150    0.0690 h2        1 CA7      0.054700
     82 HBJ         3.5850   -1.1650    3.3270 h1        1 CA7      0.082700
@<TRIPOS>BOND
     1    1    2 1   
     2    1    3 1   
     3    1   10 1   
     4    1   37 1   
     5    2   36 1   
     6    3    4 1   
     7    3    5 1   
     8    3   38 1   
     9    4   39 1   
    10    5    6 1   
    11    5    7 1   
    12    5   40 1   
    13    6   41 1   
    14    7    8 1   
    15    7    9 1   
    16    7   42 1   
    17    8   43 1   
    18    9   10 1   
    19    9   11 1   
    20    9   44 1   
    21   11   12 1   
    22   11   45 1   
    23   11   46 1   
    24   12   47 1   
    25   13   25 1   
    26   13   48 1   
    27   14   33 1   
    28   14   49 1   
    29   15   34 1   
    30   15   50 1   
    31   16   17 1   
    32   16   18 1   
    33   16   51 1   
    34   16   52 1   
    35   17   20 1   
    36   17   53 1   
    37   17   54 1   
    38   18   21 1   
    39   18   55 1   
    40   18   56 1   
    41   19   22 1   
    42   19   23 1   
    43   19   57 1   
    44   19   58 1   
    45   20   24 1   
    46   20   59 1   
    47   20   60 1   
    48   21   26 1   
    49   21   61 1   
    50   21   62 1   
    51   22   27 1   
    52   22   63 1   
    53   22   64 1   
    54   23   28 1   
    55   23   65 1   
    56   23   66 1   
    57   24   30 1   
    58   24   67 1   
    59   24   68 1   
    60   25   32 1   
    61   25   69 1   
    62   25   70 1   
    63   26   31 1   
    64   26   71 1   
    65   26   72 1   
    66   27   31 1   
    67   27   73 1   
    68   27   74 1   
    69   28   31 1   
    70   28   75 1   
    71   28   76 1   
    72   29   32 1   
    73   29   35 1   
    74   30   35 1   
    75   31   77 1   
    76   32   36 1   
    77   32   78 1   
    78   33   34 1   
    79   33   35 1   
    80   33   79 1   
    81   34   36 1   
    82   34   80 1   
    83   35   81 1   
    84   36   82 1   
@<TRIPOS>SUBSTRUCTURE
     1 CA7         1 TEMP              0 ****  ****    0 ROOT
