@<TRIPOS>MOLECULE
CA7
   82    78     1     0     0
SMALL
bcc


@<TRIPOS>ATOM
      1 C1          2.6930    2.9910   -0.9860 c2        1 CA7     -0.039000
      2 O1          0.1330   -0.2150    1.3510 oh        1 CA7     -0.367000
      3 C2          2.4060    1.8750   -0.2720 c2        1 CA7     -0.039000
      4 O2          1.8610    0.7750   -0.9030 oh        1 CA7     -0.281000
      5 C3          2.6090    1.8450    1.1620 c2        1 CA7     -0.234000
      6 O3          2.0940   -1.6320    0.5660 oh        1 CA7     -0.417000
      7 C4          3.1650    2.9360    1.7310 c2        1 CA7      0.005000
      8 O4          3.4260    3.0810    3.0720 oh        1 CA7     -0.259000
      9 C5          3.5960    4.1390    0.9430 c3        1 CA7      0.034000
     10 O5          3.1060    4.1680   -0.4060 os        1 CA7     -0.199000
     11 C6          5.1310    4.2490    0.9030 c3        1 CA7     -0.036000
     12 O6          5.6260    4.8230    2.0910 oh        1 CA7     -0.320000
     13 OAB        -3.2690   -1.7580    4.1880 oh        1 CA7     -0.267000
     14 OAF        -6.1000   -1.1740    0.0290 oh        1 CA7     -0.327000
     15 OAG        -0.8960   -1.6530   -0.5540 oh        1 CA7     -0.225000
     16 CAH       -10.5930   -6.5200    2.3530 c3        1 CA7     -0.157000
     17 CAI        -9.1640   -6.1310    2.6680 c3        1 CA7     -0.157000
     18 CAJ       -11.0820   -7.6080    3.2840 c3        1 CA7     -0.158000
     19 CAK       -16.4860  -11.8180    2.9990 c3        1 CA7     -0.211000
     20 CAL        -8.6780   -5.0450    1.7330 c3        1 CA7     -0.163000
     21 CAM       -12.5110   -7.9970    2.9710 c3        1 CA7     -0.158000
     22 CAN       -16.3510  -10.9660    4.2350 c3        1 CA7     -0.158000
     23 CAO       -14.6570   -8.7350   -2.2280 c1        1 CA7     -0.218000
     24 CAP        -7.2470   -4.6630    2.0670 c3        1 CA7     -0.014000
     25 CAS       -13.0000   -9.0870    3.9010 c3        1 CA7     -0.157000
     26 CAT       -14.9170  -10.5670    4.5160 c3        1 CA7     -0.157000
     27 CAU       -14.0080   -9.7380   -2.2630 c1        1 CA7     -0.218000
     28 OAV        -5.7040   -2.3340    2.5290 oh        1 CA7     -0.372000
     29 OAX        -6.8640   -3.6540    1.1300 os        1 CA7     -0.325000
     30 CAZ       -14.4290   -9.4760    3.5870 c3        1 CA7     -0.158000
     31 CBB        -1.6670   -0.9280    2.6900 c2        1 CA7     -0.249000
     32 CBF        -5.2230   -2.2760    0.1280 c3        1 CA7     -0.061000
     33 CBG        -1.8350   -1.2300    0.2690 c1        1 CA7     -0.039000
     34 CBH        -5.5750   -3.1160    1.3660 c3        1 CA7      0.109000
     35 CBJ        -1.2870   -0.3520    1.3660 c3        1 CA7      0.003000
     36 H1          2.2860    0.9530    1.7180 ha        1 CA7      0.160000
     37 H2          2.5570    3.1300   -2.0670 h4        1 CA7      0.183000
     38 HO2         2.4060    0.0090   -0.6440 ho        1 CA7      0.244000
     39 H3          0.3590    0.2890    0.5550 ho        1 CA7      0.231000
     40 HO3         1.2080   -1.8360    0.2460 ho        1 CA7      0.210000
     41 H4          1.9520   -1.3900    1.4870 ho        1 CA7      0.210000
     42 HO4         3.0910    2.2970    3.5320 ho        1 CA7      0.230000
     43 H5          5.3250    4.2720    2.8270 ho        1 CA7      0.212000
     44 H6          3.1680    5.0760    1.4070 h1        1 CA7      0.140000
     45 H6A         5.5910    3.2410    0.7280 h1        1 CA7      0.098000
     46 HO6         5.4380    4.9540    0.0850 h1        1 CA7      0.098000
     47 HOAB       -4.2060   -2.0090    4.1490 ho        1 CA7      0.234000
     48 HOAF       -6.9810   -1.5300   -0.1510 ho        1 CA7      0.212000
     49 HOAG       -1.3200   -2.1980   -1.2420 ho        1 CA7      0.256000
     50 HAH        -8.5010   -7.0310    2.5790 hc        1 CA7      0.080500
     51 HAHA      -10.6600   -6.8760    1.2910 hc        1 CA7      0.081000
     52 HAI       -11.2570   -5.6210    2.4430 hc        1 CA7      0.081000
     53 HAIA       -9.0970   -5.7730    3.7290 hc        1 CA7      0.080500
     54 HAJ       -10.4180   -8.5080    3.1930 hc        1 CA7      0.079000
     55 HAJA      -11.0140   -7.2530    4.3470 hc        1 CA7      0.079000
     56 HAKA      -15.8780  -12.7500    3.0930 hc        1 CA7      0.071667
     57 HAL        -8.7320   -5.3960    0.6700 hc        1 CA7      0.093000
     58 HALA       -9.3340   -4.1390    1.8170 hc        1 CA7      0.093000
     59 HAM       -12.5800   -8.3510    1.9080 hc        1 CA7      0.080000
     60 HAMA      -13.1750   -7.0980    3.0630 hc        1 CA7      0.080000
     61 HAN       -16.9820  -10.0450    4.1270 hc        1 CA7      0.077000
     62 HANA      -16.7460  -11.5370    5.1170 hc        1 CA7      0.077000
     63 HAO       -16.1380  -11.2630    2.0940 hc        1 CA7      0.071667
     64 HAOA      -15.2340   -7.8450   -2.1970 ha        1 CA7      0.218000
     65 HAP        -6.5580   -5.5430    1.9590 h1        1 CA7      0.075500
     66 HAPA       -7.1660   -4.2540    3.1080 h1        1 CA7      0.075500
     67 HAR        -0.8510   -1.0630    3.4130 ha        1 CA7      0.157000
     68 HARA       -3.7730   -1.1130    2.2390 h4        1 CA7      0.146000
     69 HAS       -12.9310   -8.7340    4.9630 hc        1 CA7      0.078000
     70 HASA      -12.3360   -9.9870    3.8080 hc        1 CA7      0.078000
     71 HAT       -14.8390  -10.2060    5.5760 hc        1 CA7      0.078000
     72 HATA      -14.2510  -11.4650    4.4220 hc        1 CA7      0.078000
     73 HAU       -14.4980   -9.8270    2.5230 hc        1 CA7      0.080000
     74 HAUA      -13.4330  -10.6280   -2.2950 ha        1 CA7      0.218000
     75 HAZ       -15.0920   -8.5760    3.6810 hc        1 CA7      0.080000
     76 HBB        -6.2910   -1.5930    2.3220 ho        1 CA7      0.228000
     77 HBF        -5.2770   -2.9190   -0.7880 h1        1 CA7      0.119500
     78 HBG        -4.1920   -1.8320    0.2390 h1        1 CA7      0.119500
     79 HBH        -4.8080   -3.9020    1.5960 h2        1 CA7      0.122000
     80 HBJ        -1.7660    0.6650    1.2310 h1        1 CA7      0.117000
     81 CAR        -2.9450   -1.2400    2.9590 c2        1 CA7      0.001000
     82 HAK       -17.5530  -12.1070    2.8440 hc        1 CA7      0.071667
@<TRIPOS>BOND
     1    1    3 1   
     2    1   10 1   
     3    1   37 1   
     4    2   35 1   
     5    2   39 1   
     6    3    4 1   
     7    3    5 1   
     8    4   38 1   
     9    5    7 1   
    10    5   36 1   
    11    6   40 1   
    12    6   41 1   
    13    7    8 1   
    14    7    9 1   
    15    8   42 1   
    16    9   10 1   
    17    9   11 1   
    18    9   44 1   
    19   11   12 1   
    20   11   45 1   
    21   11   46 1   
    22   12   43 1   
    23   13   47 1   
    24   13   81 1   
    25   14   32 1   
    26   14   48 1   
    27   15   33 1   
    28   15   49 1   
    29   16   17 1   
    30   16   18 1   
    31   16   51 1   
    32   16   52 1   
    33   17   20 1   
    34   17   50 1   
    35   17   53 1   
    36   18   21 1   
    37   18   54 1   
    38   18   55 1   
    39   19   22 1   
    40   19   56 1   
    41   19   63 1   
    42   19   82 1   
    43   20   24 1   
    44   20   57 1   
    45   20   58 1   
    46   21   25 1   
    47   21   59 1   
    48   21   60 1   
    49   22   26 1   
    50   22   61 1   
    51   22   62 1   
    52   23   27 1   
    53   23   64 1   
    54   24   29 1   
    55   24   65 1   
    56   24   66 1   
    57   25   30 1   
    58   25   69 1   
    59   25   70 1   
    60   26   30 1   
    61   26   71 1   
    62   26   72 1   
    63   27   74 1   
    64   28   34 1   
    65   28   76 1   
    66   29   34 1   
    67   30   73 1   
    68   30   75 1   
    69   31   35 1   
    70   31   67 1   
    71   31   81 1   
    72   32   34 1   
    73   32   77 1   
    74   32   78 1   
    75   33   35 1   
    76   34   79 1   
    77   35   80 1   
    78   68   81 1   
@<TRIPOS>SUBSTRUCTURE
     1 CA7         1 TEMP              0 ****  ****    0 ROOT
