@<TRIPOS>MOLECULE
CA9
   72    72     1     0     0
SMALL
bcc


@<TRIPOS>ATOM
      1 C1          1.1410    0.7340   -1.7870 c1        1 CA9     -0.008000
      2 C2          2.6590    1.8230    0.4380 c3        1 CA9     -0.148000
      3 C3          3.5030    0.9410   -0.5650 c3        1 CA9     -0.132000
      4 C4          2.8380    0.7880   -1.8530 c2        1 CA9     -0.128000
      5 C5          1.3370    1.4540    0.5870 c3        1 CA9     -0.039000
      6 C6          0.5370    1.4100   -0.6300 c2        1 CA9     -0.061000
      7 C7         -0.6890    0.4350   -0.2370 c3        1 CA9     -0.155000
      8 C8         -0.2240   -0.3260    1.2190 c3        1 CA9     -0.155000
      9 C9          1.1160   -0.0220    1.3680 c3        1 CA9     -0.095000
     10 C10         0.7060    2.5040    1.4720 c3        1 CA9     -0.205000
     11 C12         1.4570    0.1010    2.8020 c3        1 CA9     -0.094000
     12 C13         2.9410   -0.1920    2.9980 c3        1 CA9     -0.212000
     13 C14         0.6310   -0.8980    3.6080 c3        1 CA9     -0.153000
     14 C15         0.8020   -0.6190    5.0840 c3        1 CA9     -0.158000
     15 C16        -0.1290   -1.5100    5.8770 c3        1 CA9     -0.143000
     16 C17         0.0610   -1.2490    7.3540 c3        1 CA9      0.076000
     17 C18         0.6850   -2.4650    8.0050 c3        1 CA9     -0.241500
     18 C19        -1.2830   -0.9680    7.9930 c3        1 CA9     -0.241500
     19 O20         0.9050   -0.1380    7.5290 oh        1 CA9     -0.325000
     20 C21         0.3390    0.5390   -3.0550 c1        1 CA9     -0.090000
     21 C22        -0.2920    0.3860   -4.0530 c1        1 CA9     -0.139000
     22 C23        -1.0940    0.1900   -5.3210 c1        1 CA9      0.046000
     23 C24        -1.7110    1.3450   -5.9840 c3        1 CA9     -0.128000
     24 C25        -2.7780    0.8880   -7.1520 c3        1 CA9      0.035000
     25 C26        -2.3310    0.0260   -8.0180 c3        1 CA9     -0.133000
     26 C27        -1.7700   -1.3910   -7.3910 c3        1 CA9      0.068000
     27 C28        -0.8090   -1.1760   -6.3120 c2        1 CA9     -0.209000
     28 O29        -3.2050    2.1180   -7.8980 oh        1 CA9     -0.329000
     29 O30        -2.8560   -2.2550   -6.9730 oh        1 CA9     -0.325000
     30 C31        -3.5290   -0.3210   -9.0430 c3        1 CA9     -0.208000
     31 H2          3.0890    1.7840    1.3160 hc        1 CA9      0.085500
     32 H2A         2.6840    2.7520    0.1240 hc        1 CA9      0.085500
     33 H3          3.6940    0.0860   -0.1270 hc        1 CA9      0.092500
     34 H3A         4.4070    1.2890   -0.7010 hc        1 CA9      0.092500
     35 H4          3.2850    1.0780   -2.6700 ha        1 CA9      0.128000
     36 H6          0.2120    2.2990   -0.8720 ha        1 CA9      0.102000
     37 H7         -0.8280   -0.2330   -0.9380 hc        1 CA9      0.087000
     38 H7A        -1.5050    0.9560   -0.1000 hc        1 CA9      0.087000
     39 H8         -0.7400    0.0320    1.9700 hc        1 CA9      0.083000
     40 H8A        -0.3470   -1.2960    1.1510 hc        1 CA9      0.083000
     41 H9          1.6670   -0.7110    0.9470 hc        1 CA9      0.090000
     42 H10         0.4660    3.2860    0.9320 hc        1 CA9      0.076333
     43 H10A        1.3430    2.7700    2.1680 hc        1 CA9      0.076333
     44 H10B       -0.1000    2.1370    1.8910 hc        1 CA9      0.076333
     45 H12         1.2620    1.0060    3.1060 hc        1 CA9      0.092000
     46 H13         3.2500    0.2270    3.8270 hc        1 CA9      0.072667
     47 H13A        3.4480    0.1690    2.2420 hc        1 CA9      0.072667
     48 H13B        3.0790   -1.1620    3.0510 hc        1 CA9      0.072667
     49 H14        -0.3120   -0.8100    3.3670 hc        1 CA9      0.079000
     50 H14A        0.9340   -1.8070    3.4100 hc        1 CA9      0.079000
     51 H15         1.7280   -0.8000    5.3450 hc        1 CA9      0.088500
     52 H15A        0.5900    0.3180    5.2650 hc        1 CA9      0.088500
     53 H16        -1.0550   -1.3170    5.6280 hc        1 CA9      0.086000
     54 H16A        0.0730   -2.4470    5.6830 hc        1 CA9      0.086000
     55 H18         1.6230   -2.5380    7.7300 hc        1 CA9      0.081667
     56 H18A        0.2000   -3.2700    7.7260 hc        1 CA9      0.081667
     57 H18B        0.6360   -2.3750    8.9800 hc        1 CA9      0.081667
     58 H19        -1.9120   -1.6830    7.7590 hc        1 CA9      0.081667
     59 H19A       -1.6270   -0.1100    7.6670 hc        1 CA9      0.081667
     60 H19B       -1.1790   -0.9300    8.9670 hc        1 CA9      0.081667
     61 HO20        0.9450    0.0710    8.3930 ho        1 CA9      0.196000
     62 H24        -1.0440    1.9960   -6.2790 hc        1 CA9      0.112000
     63 H24A       -2.1970    1.8780   -5.3220 hc        1 CA9      0.112000
     64 H25        -3.5640    0.5040   -6.7160 h1        1 CA9      0.091000
     65 H26        -1.6060    0.4460   -8.5230 hc        1 CA9      0.105000
     66 H27        -1.3660   -1.9330   -8.0970 h1        1 CA9      0.082000
     67 H28        -0.2810   -1.9230   -5.9730 ha        1 CA9      0.131000
     68 HO29       -3.9960    2.3890   -7.5950 ho        1 CA9      0.203000
     69 HO30       -2.6010   -3.1050   -7.0390 ho        1 CA9      0.202000
     70 H31        -3.2960   -1.1210   -9.5600 hc        1 CA9      0.081000
     71 H31A       -3.6660    0.4340   -9.6530 hc        1 CA9      0.081000
     72 H31B       -4.3530   -0.4870   -8.5380 hc        1 CA9      0.081000
@<TRIPOS>BOND
     1    1    4 1   
     2    1   20 1   
     3    2    3 1   
     4    2    5 1   
     5    2   31 1   
     6    2   32 1   
     7    3    4 1   
     8    3   33 1   
     9    3   34 1   
    10    4   35 1   
    11    5    6 1   
    12    5    9 1   
    13    5   10 1   
    14    6    7 1   
    15    6   36 1   
    16    7    8 1   
    17    7   37 1   
    18    7   38 1   
    19    8    9 1   
    20    8   39 1   
    21    8   40 1   
    22    9   11 1   
    23    9   41 1   
    24   10   42 1   
    25   10   43 1   
    26   10   44 1   
    27   11   12 1   
    28   11   13 1   
    29   11   45 1   
    30   12   46 1   
    31   12   47 1   
    32   12   48 1   
    33   13   14 1   
    34   13   49 1   
    35   13   50 1   
    36   14   15 1   
    37   14   51 1   
    38   14   52 1   
    39   15   16 1   
    40   15   53 1   
    41   15   54 1   
    42   16   17 1   
    43   16   18 1   
    44   16   19 1   
    45   17   55 1   
    46   17   56 1   
    47   17   57 1   
    48   18   58 1   
    49   18   59 1   
    50   18   60 1   
    51   19   61 1   
    52   20   21 1   
    53   22   23 1   
    54   22   27 1   
    55   23   24 1   
    56   23   62 1   
    57   23   63 1   
    58   24   25 1   
    59   24   28 1   
    60   24   64 1   
    61   25   26 1   
    62   25   30 1   
    63   25   65 1   
    64   26   27 1   
    65   26   29 1   
    66   26   66 1   
    67   27   67 1   
    68   28   68 1   
    69   29   69 1   
    70   30   70 1   
    71   30   71 1   
    72   30   72 1   
@<TRIPOS>SUBSTRUCTURE
     1 CA9         1 TEMP              0 ****  ****    0 ROOT
