@<TRIPOS>MOLECULE
CA9
   72    74     1     0     0
SMALL
bcc


@<TRIPOS>ATOM
      1 C1          0.0640    0.1990   -0.1410 ce        1 CA9      0.020100
      2 C2          1.0990   -0.4370    2.4200 c3        1 CA9     -0.071400
      3 C3          2.0540    0.0150    1.3360 c3        1 CA9     -0.050200
      4 C4          1.4010    0.1240    0.0140 c2        1 CA9     -0.130200
      5 C5         -0.2350    0.3180    2.3980 c3        1 CA9     -0.039000
      6 C6         -0.8960    0.1910    1.0080 c3        1 CA9     -0.016500
      7 C7         -1.7270   -1.0930    1.0550 c3        1 CA9     -0.072400
      8 C8         -2.0350   -1.3650    2.5190 c3        1 CA9     -0.078400
      9 C9         -1.2000   -0.4070    3.3740 c3        1 CA9     -0.053700
     10 C10         0.0090    1.7750    2.7380 c3        1 CA9     -0.086100
     11 C12        -2.0560    0.4860    4.2720 c3        1 CA9     -0.058700
     12 C13        -2.6070   -0.3340    5.4260 c3        1 CA9     -0.093100
     13 C14        -3.1950    1.1850    3.5400 c3        1 CA9     -0.076400
     14 C15        -3.5310    2.5210    4.1710 c3        1 CA9     -0.079400
     15 C16        -4.6950    3.1780    3.4630 c3        1 CA9     -0.064400
     16 C17        -5.1820    4.4490    4.1660 c3        1 CA9      0.147800
     17 C18        -4.0660    5.4770    4.3110 c3        1 CA9     -0.123600
     18 C19        -6.3430    5.0530    3.3810 c3        1 CA9     -0.123600
     19 O20        -5.6380    4.0380    5.4570 oh        1 CA9     -0.597800
     20 C21        -0.5150    0.3110   -1.4210 cg        1 CA9     -0.124300
     21 C22        -1.0060    0.4100   -2.5110 ch        1 CA9     -0.172300
     22 C23        -1.5810    0.5270   -3.7920 cf        1 CA9      0.073100
     23 C24        -0.6170    0.6130   -4.9280 c3        1 CA9     -0.081200
     24 C25        -1.2810    1.0750   -6.2250 c3        1 CA9      0.143100
     25 C26        -2.6010    0.3370   -6.4600 c3        1 CA9     -0.050700
     26 C27        -3.5680    0.6510   -5.3110 c3        1 CA9      0.177300
     27 C28        -2.9150    0.5390   -3.9700 c2        1 CA9     -0.205200
     28 O29        -0.4310    0.7810   -7.3280 oh        1 CA9     -0.596800
     29 O30        -4.0810    1.9660   -5.5180 oh        1 CA9     -0.593800
     30 C31        -3.2050    0.6970   -7.7970 c3        1 CA9     -0.083100
     31 H2          0.8880   -1.5320    2.2860 hc        1 CA9      0.044700
     32 H2A         1.5830   -0.3020    3.4220 hc        1 CA9      0.044700
     33 H3          2.9090   -0.7120    1.2720 hc        1 CA9      0.053200
     34 H3A         2.4950    1.0150    1.6040 hc        1 CA9      0.053200
     35 H4          2.0760    0.1550   -0.8560 ha        1 CA9      0.129000
     36 H6         -1.5900    1.0690    0.8700 hc        1 CA9      0.061700
     37 H7         -2.6640   -0.9740    0.4580 hc        1 CA9      0.046200
     38 H7A        -1.1510   -1.9440    0.6120 hc        1 CA9      0.046200
     39 H8         -3.1280   -1.2340    2.7200 hc        1 CA9      0.043700
     40 H8A        -1.7800   -2.4250    2.7760 hc        1 CA9      0.043700
     41 H9         -0.5680   -1.0220    4.0790 hc        1 CA9      0.046700
     42 H10         0.5200    1.8660    3.7270 hc        1 CA9      0.038367
     43 H10A       -0.9490    2.3470    2.7740 hc        1 CA9      0.038367
     44 H10B        0.6620    2.2400    1.9590 hc        1 CA9      0.038367
     45 H12        -1.3800    1.2730    4.7160 hc        1 CA9      0.050700
     46 H13        -1.7760   -0.7250    6.0610 hc        1 CA9      0.034700
     47 H13A       -3.1990   -1.2020    5.0460 hc        1 CA9      0.034700
     48 H13B       -3.2730    0.2980    6.0620 hc        1 CA9      0.034700
     49 H14        -2.9170    1.3400    2.4640 hc        1 CA9      0.042200
     50 H14A       -4.1090    0.5330    3.5510 hc        1 CA9      0.042200
     51 H15        -3.7900    2.3800    5.2540 hc        1 CA9      0.048200
     52 H15A       -2.6330    3.1940    4.1260 hc        1 CA9      0.048200
     53 H16        -5.5540    2.4570    3.4120 hc        1 CA9      0.047200
     54 H16A       -4.4060    3.4470    2.4140 hc        1 CA9      0.047200
     55 H18        -3.5740    5.6490    3.3260 hc        1 CA9      0.042367
     56 H18A       -4.4790    6.4460    4.6810 hc        1 CA9      0.042367
     57 H18B       -3.3050    5.1140    5.0420 hc        1 CA9      0.042367
     58 H19        -6.7290    5.9630    3.8990 hc        1 CA9      0.042367
     59 H19A       -7.1740    4.3120    3.2990 hc        1 CA9      0.042367
     60 H19B       -6.0050    5.3380    2.3570 hc        1 CA9      0.042367
     61 HO20       -5.9490    4.8320    5.9060 ho        1 CA9      0.397000
     62 H24        -0.1580   -0.4000   -5.0920 hc        1 CA9      0.063700
     63 H24A        0.2150    1.3190   -4.6660 hc        1 CA9      0.063700
     64 H25        -1.4810    2.1830   -6.1850 h1        1 CA9      0.054700
     65 H26        -2.3940   -0.7690   -6.4350 hc        1 CA9      0.062700
     66 H27        -4.4320   -0.0750   -5.3600 h1        1 CA9      0.043700
     67 H28        -3.6050    0.4740   -3.1140 ha        1 CA9      0.131000
     68 HO29        0.3780    1.2900   -7.1930 ho        1 CA9      0.399000
     69 HO30       -4.5540    2.2120   -4.7140 ho        1 CA9      0.401000
     70 H31        -4.1480    0.1220   -7.9590 hc        1 CA9      0.044700
     71 H31A       -3.4420    1.7880   -7.8370 hc        1 CA9      0.044700
     72 H31B       -2.4830    0.4550   -8.6150 hc        1 CA9      0.044700
@<TRIPOS>BOND
     1    1    4 2   
     2    1    6 1   
     3    1   20 1   
     4    2    3 1   
     5    2    5 1   
     6    2   31 1   
     7    2   32 1   
     8    3    4 1   
     9    3   33 1   
    10    3   34 1   
    11    4   35 1   
    12    5    6 1   
    13    5    9 1   
    14    5   10 1   
    15    6    7 1   
    16    6   36 1   
    17    7    8 1   
    18    7   37 1   
    19    7   38 1   
    20    8    9 1   
    21    8   39 1   
    22    8   40 1   
    23    9   11 1   
    24    9   41 1   
    25   10   42 1   
    26   10   43 1   
    27   10   44 1   
    28   11   12 1   
    29   11   13 1   
    30   11   45 1   
    31   12   46 1   
    32   12   47 1   
    33   12   48 1   
    34   13   14 1   
    35   13   49 1   
    36   13   50 1   
    37   14   15 1   
    38   14   51 1   
    39   14   52 1   
    40   15   16 1   
    41   15   53 1   
    42   15   54 1   
    43   16   17 1   
    44   16   18 1   
    45   16   19 1   
    46   17   55 1   
    47   17   56 1   
    48   17   57 1   
    49   18   58 1   
    50   18   59 1   
    51   18   60 1   
    52   19   61 1   
    53   20   21 3   
    54   21   22 1   
    55   22   23 1   
    56   22   27 2   
    57   23   24 1   
    58   23   62 1   
    59   23   63 1   
    60   24   25 1   
    61   24   28 1   
    62   24   64 1   
    63   25   26 1   
    64   25   30 1   
    65   25   65 1   
    66   26   27 1   
    67   26   29 1   
    68   26   66 1   
    69   27   67 1   
    70   28   68 1   
    71   29   69 1   
    72   30   70 1   
    73   30   71 1   
    74   30   72 1   
@<TRIPOS>SUBSTRUCTURE
     1 CA9         1 TEMP              0 ****  ****    0 ROOT
