@<TRIPOS>MOLECULE
CA9
   72    74     1     0     0
SMALL
bcc


@<TRIPOS>ATOM
      1 C1          0.1080    0.0430   -0.1790 ce        1 CA9      0.019100
      2 C2          1.2350   -0.3660    2.3890 c3        1 CA9     -0.071400
      3 C3          2.1370    0.0750    1.2560 c3        1 CA9     -0.050200
      4 C4          1.4500    0.0600   -0.0530 c2        1 CA9     -0.129200
      5 C5         -0.1430    0.3040    2.3550 c3        1 CA9     -0.039000
      6 C6         -0.8250    0.0490    0.9920 c3        1 CA9     -0.016500
      7 C7         -1.5730   -1.2770    1.1390 c3        1 CA9     -0.072400
      8 C8         -1.8330   -1.4750    2.6240 c3        1 CA9     -0.078400
      9 C9         -1.0400   -0.4160    3.3970 c3        1 CA9     -0.053700
     10 C10         0.0170    1.7910    2.5970 c3        1 CA9     -0.086100
     11 C12        -1.9310    0.4790    4.2600 c3        1 CA9     -0.058700
     12 C13        -2.4050   -0.2990    5.4750 c3        1 CA9     -0.093100
     13 C14        -3.1260    1.0600    3.5150 c3        1 CA9     -0.076400
     14 C15        -3.5300    2.4110    4.0710 c3        1 CA9     -0.079400
     15 C16        -4.7480    2.9500    3.3530 c3        1 CA9     -0.064400
     16 C17        -5.2970    4.2320    3.9890 c3        1 CA9      0.147800
     17 C18        -4.2430    5.3320    4.0450 c3        1 CA9     -0.123100
     18 C19        -6.5080    4.7150    3.1960 c3        1 CA9     -0.123100
     19 O20        -5.7010    3.8760    5.3120 oh        1 CA9     -0.597800
     20 C21        -0.5030    0.0390   -1.4490 cg        1 CA9     -0.122300
     21 C22        -1.0210    0.0380   -2.5320 ch        1 CA9     -0.172300
     22 C23        -1.6250    0.0380   -3.8040 cf        1 CA9      0.075100
     23 C24        -0.6860    0.0970   -4.9630 c3        1 CA9     -0.045200
     24 C25        -1.4040    0.4490   -6.2650 c3        1 CA9      0.146100
     25 C26        -2.6820   -0.3820   -6.4240 c3        1 CA9     -0.093700
     26 C27        -3.6470   -0.0500   -5.2790 c3        1 CA9      0.183300
     27 C28        -2.9620   -0.0290   -3.9500 c2        1 CA9     -0.213200
     28 O29        -0.4710    0.1780   -7.3030 oh        1 CA9     -0.601800
     29 O30        -4.2490    1.2100   -5.5710 oh        1 CA9     -0.597800
     30 C31        -3.3410   -0.1530   -7.7640 c3        1 CA9     -0.090100
     31 H2          1.0900   -1.4780    2.3290 hc        1 CA9      0.044700
     32 H2A         1.7310   -0.1380    3.3680 hc        1 CA9      0.044700
     33 H3          3.0330   -0.6020    1.2160 hc        1 CA9      0.053200
     34 H3A         2.5200    1.1150    1.4500 hc        1 CA9      0.053200
     35 H4          2.1030    0.0770   -0.9410 ha        1 CA9      0.130000
     36 H6         -1.5760    0.8720    0.8180 hc        1 CA9      0.061700
     37 H7         -2.5280   -1.2540    0.5590 hc        1 CA9      0.046200
     38 H7A        -0.9540   -2.1190    0.7360 hc        1 CA9      0.046200
     39 H8         -2.9270   -1.3970    2.8430 hc        1 CA9      0.043200
     40 H8A        -1.5080   -2.4980    2.9400 hc        1 CA9      0.043200
     41 H9         -0.3570   -0.9450    4.1220 hc        1 CA9      0.046700
     42 H10         0.6210    2.2460    1.7740 hc        1 CA9      0.038033
     43 H10A       -0.9750    2.3050    2.6220 hc        1 CA9      0.038033
     44 H10B        0.5420    1.9760    3.5650 hc        1 CA9      0.038033
     45 H12        -1.2960    1.3320    4.6380 hc        1 CA9      0.050700
     46 H13        -1.5380   -0.5980    6.1120 hc        1 CA9      0.034700
     47 H13A       -3.0950    0.3310    6.0880 hc        1 CA9      0.034700
     48 H13B       -2.9500   -1.2230    5.1650 hc        1 CA9      0.034700
     49 H14        -2.8810    1.1640    2.4250 hc        1 CA9      0.042200
     50 H14A       -3.9980    0.3560    3.5900 hc        1 CA9      0.042200
     51 H15        -2.6770    3.1320    3.9630 hc        1 CA9      0.048200
     52 H15A       -3.7580    2.3220    5.1670 hc        1 CA9      0.048200
     53 H16        -4.4970    3.1700    2.2830 hc        1 CA9      0.047200
     54 H16A       -5.5610    2.1780    3.3680 hc        1 CA9      0.047200
     55 H18        -4.7060    6.2960    4.3640 hc        1 CA9      0.042533
     56 H18A       -3.7810    5.4700    3.0390 hc        1 CA9      0.042533
     57 H18B       -3.4470    5.0610    4.7780 hc        1 CA9      0.042533
     58 H19        -7.2930    3.9230    3.1780 hc        1 CA9      0.042533
     59 H19A       -6.2080    4.9560    2.1490 hc        1 CA9      0.042533
     60 H19B       -6.9380    5.6310    3.6670 hc        1 CA9      0.042533
     61 HO20       -6.0500    4.6770    5.7200 ho        1 CA9      0.397000
     62 H24         0.1150    0.8580   -4.7730 hc        1 CA9      0.072700
     63 H24A       -0.1790   -0.9000   -5.0790 hc        1 CA9      0.072700
     64 H25        -1.6780    1.5420   -6.2750 h1        1 CA9      0.051700
     65 H26        -2.4090   -1.4700   -6.3310 hc        1 CA9      0.065700
     66 H27        -4.4650   -0.8290   -5.2560 h1        1 CA9      0.042700
     67 H28        -3.6300   -0.0680   -3.0760 ha        1 CA9      0.131000
     68 HO29       -0.8750    0.4810   -8.1240 ho        1 CA9      0.404000
     69 HO30       -4.6710    1.5160   -4.7600 ho        1 CA9      0.403000
     70 H31        -4.3310   -0.6690   -7.7970 hc        1 CA9      0.041700
     71 H31A       -2.7040   -0.5560   -8.5880 hc        1 CA9      0.041700
     72 H31B       -3.5120    0.9380   -7.9330 hc        1 CA9      0.041700
@<TRIPOS>BOND
     1    1    4 2   
     2    1    6 1   
     3    1   20 1   
     4    2    3 1   
     5    2    5 1   
     6    2   31 1   
     7    2   32 1   
     8    3    4 1   
     9    3   33 1   
    10    3   34 1   
    11    4   35 1   
    12    5    6 1   
    13    5    9 1   
    14    5   10 1   
    15    6    7 1   
    16    6   36 1   
    17    7    8 1   
    18    7   37 1   
    19    7   38 1   
    20    8    9 1   
    21    8   39 1   
    22    8   40 1   
    23    9   11 1   
    24    9   41 1   
    25   10   42 1   
    26   10   43 1   
    27   10   44 1   
    28   11   12 1   
    29   11   13 1   
    30   11   45 1   
    31   12   46 1   
    32   12   47 1   
    33   12   48 1   
    34   13   14 1   
    35   13   49 1   
    36   13   50 1   
    37   14   15 1   
    38   14   51 1   
    39   14   52 1   
    40   15   16 1   
    41   15   53 1   
    42   15   54 1   
    43   16   17 1   
    44   16   18 1   
    45   16   19 1   
    46   17   55 1   
    47   17   56 1   
    48   17   57 1   
    49   18   58 1   
    50   18   59 1   
    51   18   60 1   
    52   19   61 1   
    53   20   21 3   
    54   21   22 1   
    55   22   23 1   
    56   22   27 2   
    57   23   24 1   
    58   23   62 1   
    59   23   63 1   
    60   24   25 1   
    61   24   28 1   
    62   24   64 1   
    63   25   26 1   
    64   25   30 1   
    65   25   65 1   
    66   26   27 1   
    67   26   29 1   
    68   26   66 1   
    69   27   67 1   
    70   28   68 1   
    71   29   69 1   
    72   30   70 1   
    73   30   71 1   
    74   30   72 1   
@<TRIPOS>SUBSTRUCTURE
     1 CA9         1 TEMP              0 ****  ****    0 ROOT
