@<TRIPOS>MOLECULE
CA9
   72    74     1     0     0
SMALL
bcc


@<TRIPOS>ATOM
      1 C1         -0.4830   -2.3640   -0.5660 ce        1 CA9      0.020100
      2 C2          1.8760   -3.9210   -0.3620 c3        1 CA9     -0.071400
      3 C3          0.8210   -4.3200   -1.3720 c3        1 CA9     -0.050200
      4 C4         -0.4240   -3.5350   -1.2300 c2        1 CA9     -0.130200
      5 C5          2.0560   -2.4040   -0.2490 c3        1 CA9     -0.039000
      6 C6          0.7060   -1.7310    0.0860 c3        1 CA9     -0.016500
      7 C7          0.6010   -1.7400    1.6110 c3        1 CA9     -0.072400
      8 C8          2.0180   -1.8370    2.1520 c3        1 CA9     -0.078400
      9 C9          2.9620   -2.1300    0.9810 c3        1 CA9     -0.053700
     10 C10         2.6070   -1.8670   -1.5550 c3        1 CA9     -0.087100
     11 C12         4.0400   -1.0600    0.8060 c3        1 CA9     -0.058700
     12 C13         5.0820   -1.2060    1.9020 c3        1 CA9     -0.093100
     13 C14         3.4980    0.3640    0.7890 c3        1 CA9     -0.076400
     14 C15         4.3500    1.2780   -0.0680 c3        1 CA9     -0.080400
     15 C16         3.8250    2.6970   -0.0410 c3        1 CA9     -0.104400
     16 C17         4.7760    3.6910   -0.7170 c3        1 CA9      0.147800
     17 C18         4.9900    3.3540   -2.1870 c3        1 CA9     -0.103600
     18 C19         4.2090    5.1010   -0.5770 c3        1 CA9     -0.103600
     19 O20         6.0710    3.6330   -0.1160 oh        1 CA9     -0.597800
     20 C21        -1.6910   -1.6450   -0.4650 cg        1 CA9     -0.125300
     21 C22        -2.7180   -1.0300   -0.3810 ch        1 CA9     -0.171300
     22 C23        -3.9210   -0.3040   -0.2770 cf        1 CA9      0.072100
     23 C24        -3.8410    0.9750    0.4870 c3        1 CA9     -0.081200
     24 C25        -5.2200    1.5290    0.8470 c3        1 CA9      0.143100
     25 C26        -6.1670    1.4690   -0.3550 c3        1 CA9     -0.050700
     26 C27        -6.3540    0.0060   -0.7770 c3        1 CA9      0.177300
     27 C28        -5.0590   -0.7360   -0.8530 c2        1 CA9     -0.204200
     28 O29        -5.1010    2.8960    1.2240 oh        1 CA9     -0.596800
     29 O30        -7.2400   -0.6090    0.1570 oh        1 CA9     -0.593800
     30 C31        -7.4920    2.1250   -0.0470 c3        1 CA9     -0.083100
     31 H2          1.5840   -4.3200    0.6460 hc        1 CA9      0.044700
     32 H2A         2.8550   -4.3890   -0.6450 hc        1 CA9      0.044700
     33 H3          1.2160   -4.1820   -2.4170 hc        1 CA9      0.053700
     34 H3A         0.5900   -5.4130   -1.2510 hc        1 CA9      0.053700
     35 H4         -1.3180   -3.9580   -1.7160 ha        1 CA9      0.129000
     36 H6          0.7520   -0.6610   -0.2690 hc        1 CA9      0.061700
     37 H7          0.0910   -0.8130    1.9740 hc        1 CA9      0.045700
     38 H7A        -0.0080   -2.6150    1.9530 hc        1 CA9      0.045700
     39 H8          2.3050   -0.8890    2.6720 hc        1 CA9      0.043200
     40 H8A         2.0870   -2.6590    2.9100 hc        1 CA9      0.043200
     41 H9          3.5210   -3.0840    1.2080 hc        1 CA9      0.046700
     42 H10         1.8730   -2.0490   -2.3780 hc        1 CA9      0.038033
     43 H10A        2.7910   -0.7660   -1.4930 hc        1 CA9      0.038033
     44 H10B        3.5650   -2.3780   -1.8160 hc        1 CA9      0.038033
     45 H12         4.5610   -1.2560   -0.1750 hc        1 CA9      0.051700
     46 H13         5.5910   -2.1960    1.8280 hc        1 CA9      0.033700
     47 H13A        5.8520   -0.4030    1.8090 hc        1 CA9      0.033700
     48 H13B        4.6070   -1.1280    2.9100 hc        1 CA9      0.033700
     49 H14         2.4450    0.3640    0.4010 hc        1 CA9      0.041700
     50 H14A        3.4610    0.7670    1.8360 hc        1 CA9      0.041700
     51 H15         5.4110    1.2680    0.2980 hc        1 CA9      0.048700
     52 H15A        4.3600    0.9020   -1.1250 hc        1 CA9      0.048700
     53 H16         2.8310    2.7460   -0.5560 hc        1 CA9      0.042700
     54 H16A        3.6700    3.0170    1.0230 hc        1 CA9      0.042700
     55 H18         4.0030    3.2520   -2.6950 hc        1 CA9      0.043533
     56 H18A        5.5790    4.1630   -2.6800 hc        1 CA9      0.043533
     57 H18B        5.5570    2.3970   -2.2810 hc        1 CA9      0.043533
     58 H19         4.0290    5.3450    0.4970 hc        1 CA9      0.043533
     59 H19A        4.9320    5.8430   -0.9930 hc        1 CA9      0.043533
     60 H19B        3.2450    5.1810   -1.1320 hc        1 CA9      0.043533
     61 HO20        5.9520    3.8270    0.8210 ho        1 CA9      0.397000
     62 H24        -3.2500    0.8170    1.4280 hc        1 CA9      0.063700
     63 H24A       -3.2910    1.7350   -0.1320 hc        1 CA9      0.063700
     64 H25        -5.6670    0.9380    1.6960 h1        1 CA9      0.054700
     65 H26        -5.6790    2.0100   -1.2130 hc        1 CA9      0.062700
     66 H27        -6.8480   -0.0130   -1.7940 h1        1 CA9      0.043700
     67 H28        -5.0900   -1.6840   -1.4120 ha        1 CA9      0.131000
     68 HO29       -4.5510    2.9150    2.0150 ho        1 CA9      0.399000
     69 HO30       -7.2200   -1.5570   -0.0200 ho        1 CA9      0.401000
     70 H31        -7.3280    3.1870    0.2550 hc        1 CA9      0.044700
     71 H31A       -8.1520    2.0970   -0.9470 hc        1 CA9      0.044700
     72 H31B       -8.0080    1.5890    0.7870 hc        1 CA9      0.044700
@<TRIPOS>BOND
     1    1    4 2   
     2    1    6 1   
     3    1   20 1   
     4    2    3 1   
     5    2    5 1   
     6    2   31 1   
     7    2   32 1   
     8    3    4 1   
     9    3   33 1   
    10    3   34 1   
    11    4   35 1   
    12    5    6 1   
    13    5    9 1   
    14    5   10 1   
    15    6    7 1   
    16    6   36 1   
    17    7    8 1   
    18    7   37 1   
    19    7   38 1   
    20    8    9 1   
    21    8   39 1   
    22    8   40 1   
    23    9   11 1   
    24    9   41 1   
    25   10   42 1   
    26   10   43 1   
    27   10   44 1   
    28   11   12 1   
    29   11   13 1   
    30   11   45 1   
    31   12   46 1   
    32   12   47 1   
    33   12   48 1   
    34   13   14 1   
    35   13   49 1   
    36   13   50 1   
    37   14   15 1   
    38   14   51 1   
    39   14   52 1   
    40   15   16 1   
    41   15   53 1   
    42   15   54 1   
    43   16   17 1   
    44   16   18 1   
    45   16   19 1   
    46   17   55 1   
    47   17   56 1   
    48   17   57 1   
    49   18   58 1   
    50   18   59 1   
    51   18   60 1   
    52   19   61 1   
    53   20   21 3   
    54   21   22 1   
    55   22   23 1   
    56   22   27 2   
    57   23   24 1   
    58   23   62 1   
    59   23   63 1   
    60   24   25 1   
    61   24   28 1   
    62   24   64 1   
    63   25   26 1   
    64   25   30 1   
    65   25   65 1   
    66   26   27 1   
    67   26   29 1   
    68   26   66 1   
    69   27   67 1   
    70   28   68 1   
    71   29   69 1   
    72   30   70 1   
    73   30   71 1   
    74   30   72 1   
@<TRIPOS>SUBSTRUCTURE
     1 CA9         1 TEMP              0 ****  ****    0 ROOT
