@<TRIPOS>MOLECULE
CAB
   19    18     1     0     0
SMALL
bcc


@<TRIPOS>ATOM
      1 C1         -2.5100    1.1350    0.4430 c         1 CAB      0.563900
      2 O1         -3.2290    0.8070    1.3870 o         1 CAB     -0.551100
      3 C2         -1.5110    0.1600   -0.1840 c3        1 CAB      0.246600
      4 C3         -0.1450    0.3520    0.4800 c3        1 CAB     -0.113400
      5 CA          1.0450   -0.0840   -0.3720 c3        1 CAB      0.016500
      6 N           0.9430   -1.4390   -0.8900 n3        1 CAB     -0.910800
      7 C           2.3380    0.2090    0.4700 c         1 CAB      0.896600
      8 OXT         2.4540    1.3680    0.9520 o         1 CAB     -0.835300
      9 H1         -2.5190    2.1510   -0.0000 h4        1 CAB      0.013200
     10 O4         -1.9750   -1.1790   -0.0990 oh        1 CAB     -0.612800
     11 O5         -1.5380    0.3930   -1.5710 oh        1 CAB     -0.612800
     12 H3          0.0100    1.4380    0.7180 hc        1 CAB      0.067200
     13 H3A        -0.1450   -0.2140    1.4480 hc        1 CAB      0.067200
     14 H4          1.0980    0.5920   -1.2760 h1        1 CAB      0.048700
     15 H           1.8730   -1.8240   -0.9320 hn        1 CAB      0.342800
     16 H2          0.4130   -2.0040   -0.2520 hn        1 CAB      0.342800
     17 H8         -2.1340   -1.3650    0.8340 ho        1 CAB      0.434000
     18 H9         -0.9590   -0.2670   -1.9810 ho        1 CAB      0.434000
     19 O           3.1800   -0.7220    0.6050 o         1 CAB     -0.835300
@<TRIPOS>BOND
     1    1    2 2   
     2    1    3 1   
     3    1    9 1   
     4    3    4 1   
     5    3   10 1   
     6    3   11 1   
     7    4    5 1   
     8    4   12 1   
     9    4   13 1   
    10    5    6 1   
    11    5    7 1   
    12    5   14 1   
    13    6   15 1   
    14    6   16 1   
    15    7    8 1   
    16    7   19 1   
    17   10   17 1   
    18   11   18 1   
@<TRIPOS>SUBSTRUCTURE
     1 CAB         1 TEMP              0 ****  ****    0 ROOT
