@<TRIPOS>MOLECULE
CAE
   28    29     1     0     0
SMALL
bcc


@<TRIPOS>ATOM
      1 C1          0.0070   -0.0350   -0.0030 c3        1 CAE     -0.057000
      2 C2          1.5550   -0.0270   -0.0320 c3        1 CAE     -0.074400
      3 C3          1.9530    0.0650    1.4520 c3        1 CAE     -0.078400
      4 C4          0.6010    0.1050    2.1910 c3        1 CAE     -0.067700
      5 C5         -0.0070    1.4890    1.8910 c3        1 CAE     -0.078400
      6 C6         -0.4070    1.3990    0.4080 c3        1 CAE     -0.074400
      7 C7         -0.2830   -0.8400    1.3140 c3        1 CAE     -0.053000
      8 C8         -1.7400   -0.8600    1.7210 c3        1 CAE     -0.080100
      9 C9          0.2050   -2.2730    1.2850 c3        1 CAE     -0.080100
     10 C10        -0.6360   -0.5340   -1.2550 c3        1 CAE     -0.071100
     11 H21         1.9480   -0.9570   -0.5060 hc        1 CAE      0.041700
     12 H22         1.9390    0.8440   -0.6140 hc        1 CAE      0.041700
     13 H31         2.5560   -0.8190    1.7680 hc        1 CAE      0.041200
     14 H32         2.5540    0.9820    1.6580 hc        1 CAE      0.041200
     15 H4          0.6520   -0.1560    3.2640 hc        1 CAE      0.064700
     16 H51        -0.8920    1.6870    2.5420 hc        1 CAE      0.041200
     17 H52         0.7360    2.3040    2.0660 hc        1 CAE      0.041200
     18 H61        -1.5040    1.5500    0.2690 hc        1 CAE      0.041700
     19 H62         0.1260    2.1610   -0.2080 hc        1 CAE      0.041700
     20 H81        -1.8420   -1.3200    2.7340 hc        1 CAE      0.034700
     21 H82        -2.3280   -1.4700    0.9930 hc        1 CAE      0.034700
     22 H83        -2.1880    0.1610    1.7570 hc        1 CAE      0.034700
     23 H91         0.0980   -2.7270    2.3010 hc        1 CAE      0.034700
     24 H92        -0.4090   -2.8670    0.5640 hc        1 CAE      0.034700
     25 H93         1.2730   -2.3550    0.9780 hc        1 CAE      0.034700
     26 H101       -1.7490   -0.5300   -1.1500 hc        1 CAE      0.036033
     27 H102       -0.3060   -1.5790   -1.4730 hc        1 CAE      0.036033
     28 H103       -0.3570    0.1160   -2.1200 hc        1 CAE      0.036033
@<TRIPOS>BOND
     1    1    2 1   
     2    1    6 1   
     3    1    7 1   
     4    1   10 1   
     5    2    3 1   
     6    2   11 1   
     7    2   12 1   
     8    3    4 1   
     9    3   13 1   
    10    3   14 1   
    11    4    5 1   
    12    4    7 1   
    13    4   15 1   
    14    5    6 1   
    15    5   16 1   
    16    5   17 1   
    17    6   18 1   
    18    6   19 1   
    19    7    8 1   
    20    7    9 1   
    21    8   20 1   
    22    8   21 1   
    23    8   22 1   
    24    9   23 1   
    25    9   24 1   
    26    9   25 1   
    27   10   26 1   
    28   10   27 1   
    29   10   28 1   
@<TRIPOS>SUBSTRUCTURE
     1 CAE         1 TEMP              0 ****  ****    0 ROOT
