@<TRIPOS>MOLECULE
CAE
   28    29     1     0     0
SMALL
bcc


@<TRIPOS>ATOM
      1 C1          0.8230    0.0110    0.3870 c3        1 CAE     -0.057000
      2 C2          1.0720    1.2500   -0.5080 c3        1 CAE     -0.074400
      3 C3         -0.1060    1.2350   -1.4980 c3        1 CAE     -0.078400
      4 C4         -0.9170   -0.0090   -1.0830 c3        1 CAE     -0.067700
      5 C5         -0.0720   -1.2280   -1.5050 c3        1 CAE     -0.078400
      6 C6          1.1060   -1.2150   -0.5160 c3        1 CAE     -0.074400
      7 C7         -0.7450   -0.0110    0.4710 c3        1 CAE     -0.053000
      8 C8         -1.3130   -1.2430    1.1420 c3        1 CAE     -0.080100
      9 C9         -1.3480    1.2000    1.1490 c3        1 CAE     -0.080100
     10 C10         1.5680    0.0170    1.6810 c3        1 CAE     -0.071100
     11 H21         1.0830    2.1830    0.1030 hc        1 CAE      0.041700
     12 H22         2.0520    1.1710   -1.0360 hc        1 CAE      0.041700
     13 H31        -0.7230    2.1610   -1.4120 hc        1 CAE      0.041200
     14 H32         0.2470    1.1540   -2.5530 hc        1 CAE      0.041200
     15 H4         -1.9620   -0.0230   -1.4440 hc        1 CAE      0.064700
     16 H51        -0.6620   -2.1710   -1.4250 hc        1 CAE      0.041200
     17 H52         0.2790   -1.1300   -2.5600 hc        1 CAE      0.041200
     18 H61         2.0840   -1.1060   -1.0420 hc        1 CAE      0.041700
     19 H62         1.1440   -2.1520    0.0890 hc        1 CAE      0.041700
     20 H81        -2.4250   -1.2540    1.0290 hc        1 CAE      0.034700
     21 H82        -0.9110   -2.1890    0.7110 hc        1 CAE      0.034700
     22 H83        -1.0670   -1.2280    2.2320 hc        1 CAE      0.034700
     23 H91        -2.4590    1.1810    1.0370 hc        1 CAE      0.034700
     24 H92        -1.1000    1.1850    2.2400 hc        1 CAE      0.034700
     25 H93        -0.9720    2.1590    0.7240 hc        1 CAE      0.034700
     26 H101        2.6700    0.0330    1.4940 hc        1 CAE      0.036033
     27 H102        1.2960    0.9190    2.2830 hc        1 CAE      0.036033
     28 H103        1.3210   -0.8950    2.2780 hc        1 CAE      0.036033
@<TRIPOS>BOND
     1    1    2 1   
     2    1    6 1   
     3    1    7 1   
     4    1   10 1   
     5    2    3 1   
     6    2   11 1   
     7    2   12 1   
     8    3    4 1   
     9    3   13 1   
    10    3   14 1   
    11    4    5 1   
    12    4    7 1   
    13    4   15 1   
    14    5    6 1   
    15    5   16 1   
    16    5   17 1   
    17    6   18 1   
    18    6   19 1   
    19    7    8 1   
    20    7    9 1   
    21    8   20 1   
    22    8   21 1   
    23    8   22 1   
    24    9   23 1   
    25    9   24 1   
    26    9   25 1   
    27   10   26 1   
    28   10   27 1   
    29   10   28 1   
@<TRIPOS>SUBSTRUCTURE
     1 CAE         1 TEMP              0 ****  ****    0 ROOT
