@<TRIPOS>MOLECULE
CAE
   28    29     1     0     0
SMALL
bcc


@<TRIPOS>ATOM
      1 C1         -0.1620    0.3420   -1.0390 c3        1 CAE     -0.057000
      2 C2          1.2270    0.3420   -1.0390 c3        1 CAE     -0.074400
      3 C3          1.6910    0.3420    0.3410 c3        1 CAE     -0.078400
      4 C4          0.5580    0.3490    1.1950 c3        1 CAE     -0.067700
      5 C5         -0.3380    1.3920    0.9920 c3        1 CAE     -0.078400
      6 C6         -0.7740    1.3660   -0.4190 c3        1 CAE     -0.074400
      7 C7         -0.2440   -0.6620    0.3460 c3        1 CAE     -0.053000
      8 C8         -1.6610   -0.8430    0.8470 c3        1 CAE     -0.080100
      9 C9          0.4930   -1.9710    0.1560 c3        1 CAE     -0.080100
     10 C10        -0.3450    0.1830   -1.3510 c3        1 CAE     -0.071100
     11 H21         1.5550    1.1400   -1.4960 hc        1 CAE      0.041700
     12 H22         1.5560   -0.4550   -1.4960 hc        1 CAE      0.041700
     13 H31         2.2310    1.1380    0.5060 hc        1 CAE      0.041200
     14 H32         2.2240   -0.4580    0.5090 hc        1 CAE      0.041200
     15 H4          0.7030    0.0680    2.1190 hc        1 CAE      0.064700
     16 H51         0.0990    2.2430    1.1860 hc        1 CAE      0.041200
     17 H52        -1.1110    1.2790    1.5770 hc        1 CAE      0.041200
     18 H61        -1.7420    1.2440   -0.4610 hc        1 CAE      0.041700
     19 H62        -0.5300    2.2050   -0.8530 hc        1 CAE      0.041700
     20 H81        -2.1200   -1.5030    0.2930 hc        1 CAE      0.034700
     21 H82        -1.6420   -1.1510    1.7730 hc        1 CAE      0.034700
     22 H83        -2.1350    0.0100    0.7970 hc        1 CAE      0.034700
     23 H91         0.6910   -2.3630    1.0270 hc        1 CAE      0.034700
     24 H92         1.3270   -1.8080   -0.3240 hc        1 CAE      0.034700
     25 H93        -0.0640   -2.5860   -0.3590 hc        1 CAE      0.034700
     26 H101       -0.2830    0.7930   -2.1110 hc        1 CAE      0.036033
     27 H102       -1.2840    0.0270   -1.1350 hc        1 CAE      0.036033
     28 H103        0.0810   -0.6650   -1.5800 hc        1 CAE      0.036033
@<TRIPOS>BOND
     1    1    2 1   
     2    1    6 1   
     3    1    7 1   
     4    1   10 1   
     5    2    3 1   
     6    2   11 1   
     7    2   12 1   
     8    3    4 1   
     9    3   13 1   
    10    3   14 1   
    11    4    5 1   
    12    4    7 1   
    13    4   15 1   
    14    5    6 1   
    15    5   16 1   
    16    5   17 1   
    17    6   18 1   
    18    6   19 1   
    19    7    8 1   
    20    7    9 1   
    21    8   20 1   
    22    8   21 1   
    23    8   22 1   
    24    9   23 1   
    25    9   24 1   
    26    9   25 1   
    27   10   26 1   
    28   10   27 1   
    29   10   28 1   
@<TRIPOS>SUBSTRUCTURE
     1 CAE         1 TEMP              0 ****  ****    0 ROOT
