@<TRIPOS>MOLECULE
CAE
   28    29     1     0     0
SMALL
bcc


@<TRIPOS>ATOM
      1 C1         -0.0110   -0.0010    0.0070 c3        1 CAE     -0.057000
      2 C2          1.5360   -0.0060   -0.0580 c3        1 CAE     -0.074400
      3 C3          1.9690    0.0240    1.4190 c3        1 CAE     -0.078400
      4 C4          0.6350    0.0470    2.1900 c3        1 CAE     -0.067700
      5 C5          0.0340    1.4470    1.9590 c3        1 CAE     -0.078400
      6 C6         -0.4010    1.4190    0.4830 c3        1 CAE     -0.074400
      7 C7         -0.2780   -0.8550    1.2970 c3        1 CAE     -0.053000
      8 C8         -1.7260   -0.8770    1.7380 c3        1 CAE     -0.080100
      9 C9          0.1940   -2.2900    1.2010 c3        1 CAE     -0.080100
     10 C10        -0.6870   -0.4450   -1.2490 c3        1 CAE     -0.071100
     11 H21         1.9090   -0.9210   -0.5770 hc        1 CAE      0.041700
     12 H22         1.9160    0.8840   -0.6140 hc        1 CAE      0.041700
     13 H31         2.5710   -0.8770    1.6860 hc        1 CAE      0.041200
     14 H32         2.5840    0.9270    1.6470 hc        1 CAE      0.041200
     15 H4          0.7080   -0.2570    3.2510 hc        1 CAE      0.064700
     16 H51        -0.8340    1.6270    2.6370 hc        1 CAE      0.041200
     17 H52         0.7880    2.2480    2.1480 hc        1 CAE      0.041200
     18 H61        -1.4990    1.5850    0.3750 hc        1 CAE      0.041700
     19 H62         0.1260    2.2000   -0.1150 hc        1 CAE      0.041700
     20 H81        -1.8080   -1.3750    2.7350 hc        1 CAE      0.034700
     21 H82        -2.3370   -1.4540    1.0000 hc        1 CAE      0.034700
     22 H83        -2.1630    0.1450    1.8230 hc        1 CAE      0.034700
     23 H91         0.1050   -2.7830    2.2000 hc        1 CAE      0.034700
     24 H92        -0.4410   -2.8490    0.4710 hc        1 CAE      0.034700
     25 H93         1.2550   -2.3690    0.8680 hc        1 CAE      0.034700
     26 H101       -1.7970   -0.4350   -1.1170 hc        1 CAE      0.036033
     27 H102       -0.3720   -1.4830   -1.5160 hc        1 CAE      0.036033
     28 H103       -0.4220    0.2360   -2.0940 hc        1 CAE      0.036033
@<TRIPOS>BOND
     1    1    2 1   
     2    1    6 1   
     3    1    7 1   
     4    1   10 1   
     5    2    3 1   
     6    2   11 1   
     7    2   12 1   
     8    3    4 1   
     9    3   13 1   
    10    3   14 1   
    11    4    5 1   
    12    4    7 1   
    13    4   15 1   
    14    5    6 1   
    15    5   16 1   
    16    5   17 1   
    17    6   18 1   
    18    6   19 1   
    19    7    8 1   
    20    7    9 1   
    21    8   20 1   
    22    8   21 1   
    23    8   22 1   
    24    9   23 1   
    25    9   24 1   
    26    9   25 1   
    27   10   26 1   
    28   10   27 1   
    29   10   28 1   
@<TRIPOS>SUBSTRUCTURE
     1 CAE         1 TEMP              0 ****  ****    0 ROOT
