@<TRIPOS>MOLECULE
CAH
   28    29     1     0     0
SMALL
bcc


@<TRIPOS>ATOM
      1 C1         -0.2420    0.6960   -0.5610 c3        1 CAH     -0.149000
      2 C2          0.7310   -0.1070   -1.4420 c         1 CAH      0.572100
      3 O2          1.1010    0.1710   -2.5770 o         1 CAH     -0.517100
      4 C3          1.1610   -1.3130   -0.6170 c3        1 CAH     -0.189400
      5 C4          0.4370   -1.0730    0.7240 c3        1 CAH     -0.056700
      6 C5          1.1710    0.1450    1.3490 c3        1 CAH      0.132100
      7 O5          0.8440    0.2300    2.7220 oh        1 CAH     -0.590800
      8 C6          0.6590    1.3460    0.5150 c3        1 CAH     -0.109400
      9 C7         -0.9240   -0.4670    0.2460 c3        1 CAH     -0.045000
     10 C8         -1.7150   -1.4130   -0.6350 c3        1 CAH     -0.086100
     11 C9         -1.8210    0.0010    1.3670 c3        1 CAH     -0.086100
     12 C10        -1.1390    1.6410   -1.2910 c3        1 CAH     -0.070100
     13 H31         2.2710   -1.3510   -0.5070 hc        1 CAH      0.077700
     14 H32         0.8250   -2.2620   -1.0990 hc        1 CAH      0.077700
     15 H4          0.3590   -1.9490    1.3930 hc        1 CAH      0.091700
     16 H5          2.2850    0.0360    1.2490 h1        1 CAH      0.038700
     17 HO5         1.2390    1.0480    3.0490 ho        1 CAH      0.402000
     18 H61         1.5020    1.9080    0.0480 hc        1 CAH      0.059700
     19 H62         0.0640    2.0500    1.1450 hc        1 CAH      0.059700
     20 H81        -1.8240   -2.4000   -0.1260 hc        1 CAH      0.041867
     21 H82        -2.7350   -0.9960   -0.8240 hc        1 CAH      0.041867
     22 H83        -1.2260   -1.5750   -1.6250 hc        1 CAH      0.041867
     23 H91        -2.2920   -0.8820    1.8640 hc        1 CAH      0.041867
     24 H92        -1.2610    0.5750    2.1430 hc        1 CAH      0.041867
     25 H93        -2.6300    0.6540    0.9550 hc        1 CAH      0.041867
     26 H101       -0.5350    2.3160   -1.9460 hc        1 CAH      0.045700
     27 H102       -1.8550    1.0720   -1.9330 hc        1 CAH      0.045700
     28 H103       -1.7230    2.2620   -0.5690 hc        1 CAH      0.045700
@<TRIPOS>BOND
     1    1    2 1   
     2    1    8 1   
     3    1    9 1   
     4    1   12 1   
     5    2    3 2   
     6    2    4 1   
     7    4    5 1   
     8    4   13 1   
     9    4   14 1   
    10    5    6 1   
    11    5    9 1   
    12    5   15 1   
    13    6    7 1   
    14    6    8 1   
    15    6   16 1   
    16    7   17 1   
    17    8   18 1   
    18    8   19 1   
    19    9   10 1   
    20    9   11 1   
    21   10   20 1   
    22   10   21 1   
    23   10   22 1   
    24   11   23 1   
    25   11   24 1   
    26   11   25 1   
    27   12   26 1   
    28   12   27 1   
    29   12   28 1   
@<TRIPOS>SUBSTRUCTURE
     1 CAH         1 TEMP              0 ****  ****    0 ROOT
