@<TRIPOS>MOLECULE
CAH
   28    29     1     0     0
SMALL
bcc


@<TRIPOS>ATOM
      1 C1         -0.0450   -0.1830   -0.4640 c3        1 CAH     -0.131000
      2 C2          1.4790   -0.1490   -0.5300 c         1 CAH      0.596100
      3 O2          2.0400    0.0760   -1.5930 o         1 CAH     -0.522100
      4 C3          2.0640    0.2520    0.6620 c3        1 CAH     -0.168400
      5 C4          1.1160    0.7210    1.6030 c3        1 CAH     -0.110700
      6 C5         -0.1050    1.4440    1.3450 c3        1 CAH      0.162100
      7 O5         -1.0790    1.1980    2.5050 oh        1 CAH     -0.590800
      8 C6         -0.7150    1.0490    0.1590 c3        1 CAH     -0.069400
      9 C7         -0.0870   -0.3910   -0.2410 c3        1 CAH     -0.089000
     10 C8          0.5700   -1.7470   -0.6030 c3        1 CAH     -0.094600
     11 C9         -1.5930   -0.5610    0.0920 c3        1 CAH     -0.094600
     12 C10        -0.7600   -0.6480   -1.9400 c3        1 CAH     -0.084100
     13 H31         2.7070    0.9730    0.4720 hc        1 CAH      0.083200
     14 H32         2.5480   -0.5120    1.0520 hc        1 CAH      0.083200
     15 H4          1.5870    1.5850    1.5920 hc        1 CAH      0.088700
     16 H5          0.0970    2.4070    1.2950 h1        1 CAH      0.042700
     17 HO5        -1.1900    1.9550    2.9660 ho        1 CAH      0.401000
     18 H61        -1.6560    0.8410    0.3410 hc        1 CAH      0.063200
     19 H62        -0.6720    1.7960   -0.4850 hc        1 CAH      0.063200
     20 H81        -0.1320   -2.4080   -0.8060 hc        1 CAH      0.039200
     21 H82         1.1090   -2.0640    0.1580 hc        1 CAH      0.039200
     22 H83         1.1490   -1.6310   -1.3900 hc        1 CAH      0.039200
     23 H91        -1.7550   -0.2970    1.0270 hc        1 CAH      0.039200
     24 H92        -2.1290    0.0100   -0.5080 hc        1 CAH      0.039200
     25 H93        -1.8530   -1.5040   -0.0330 hc        1 CAH      0.039200
     26 H101       -1.5530   -1.2020   -1.7600 hc        1 CAH      0.045033
     27 H102       -0.1120   -1.1660   -2.4700 hc        1 CAH      0.045033
     28 H103       -1.0280    0.1550   -2.4430 hc        1 CAH      0.045033
@<TRIPOS>BOND
     1    1    2 1   
     2    1    8 1   
     3    1    9 1   
     4    1   12 1   
     5    2    3 2   
     6    2    4 1   
     7    4    5 1   
     8    4   13 1   
     9    4   14 1   
    10    5    6 1   
    11    5    9 1   
    12    5   15 1   
    13    6    7 1   
    14    6    8 1   
    15    6   16 1   
    16    7   17 1   
    17    8   18 1   
    18    8   19 1   
    19    9   10 1   
    20    9   11 1   
    21   10   20 1   
    22   10   21 1   
    23   10   22 1   
    24   11   23 1   
    25   11   24 1   
    26   11   25 1   
    27   12   26 1   
    28   12   27 1   
    29   12   28 1   
@<TRIPOS>SUBSTRUCTURE
     1 CAH         1 TEMP              0 ****  ****    0 ROOT
