@<TRIPOS>MOLECULE
CAH
   28    29     1     0     0
SMALL
bcc


@<TRIPOS>ATOM
      1 C1         -0.0250   -0.0010   -0.0080 c3        1 CAH     -0.151000
      2 C2          1.5120    0.0300    0.0080 c         1 CAH      0.573100
      3 O2          2.2640    0.0410   -0.9600 o         1 CAH     -0.515100
      4 C3          1.9240    0.0620    1.4750 c3        1 CAH     -0.186400
      5 C4          0.5650    0.1020    2.2000 c3        1 CAH     -0.102700
      6 C5         -0.0010    1.5180    1.9000 c3        1 CAH      0.134100
      7 O5         -1.1230    1.8710    2.6850 oh        1 CAH     -0.592800
      8 C6         -0.4450    1.4260    0.4200 c3        1 CAH     -0.069400
      9 C7         -0.3070   -0.8310    1.2960 c3        1 CAH     -0.043000
     10 C8          0.2250   -2.2480    1.2230 c3        1 CAH     -0.089600
     11 C9         -1.7640   -0.8900    1.6880 c3        1 CAH     -0.089600
     12 C10        -0.6460   -0.4880   -1.2750 c3        1 CAH     -0.070100
     13 H31         2.5560    0.9550    1.6950 hc        1 CAH      0.076700
     14 H32         2.5060   -0.8530    1.7410 hc        1 CAH      0.076700
     15 H4          0.5930   -0.1710    3.2710 hc        1 CAH      0.074700
     16 H5          0.7940    2.2990    2.0410 h1        1 CAH      0.039700
     17 HO5        -0.8640    1.7560    3.6070 ho        1 CAH      0.402000
     18 H61        -1.5500    1.5580    0.3270 hc        1 CAH      0.068200
     19 H62         0.0630    2.2010   -0.2000 hc        1 CAH      0.068200
     20 H81         0.3680   -2.6520    2.2550 hc        1 CAH      0.043033
     21 H82        -0.5030   -2.9020    0.6830 hc        1 CAH      0.043033
     22 H83         1.1990   -2.3060    0.6810 hc        1 CAH      0.043033
     23 H91        -2.3530   -1.3780    0.8730 hc        1 CAH      0.043033
     24 H92        -2.1930    0.1230    1.8750 hc        1 CAH      0.043033
     25 H93        -1.8780   -1.4960    2.6210 hc        1 CAH      0.043033
     26 H101       -0.2510    0.0920   -2.1440 hc        1 CAH      0.046033
     27 H102       -0.4060   -1.5690   -1.4310 hc        1 CAH      0.046033
     28 H103       -1.7570   -0.3710   -1.2350 hc        1 CAH      0.046033
@<TRIPOS>BOND
     1    1    2 1   
     2    1    8 1   
     3    1    9 1   
     4    1   12 1   
     5    2    3 2   
     6    2    4 1   
     7    4    5 1   
     8    4   13 1   
     9    4   14 1   
    10    5    6 1   
    11    5    9 1   
    12    5   15 1   
    13    6    7 1   
    14    6    8 1   
    15    6   16 1   
    16    7   17 1   
    17    8   18 1   
    18    8   19 1   
    19    9   10 1   
    20    9   11 1   
    21   10   20 1   
    22   10   21 1   
    23   10   22 1   
    24   11   23 1   
    25   11   24 1   
    26   11   25 1   
    27   12   26 1   
    28   12   27 1   
    29   12   28 1   
@<TRIPOS>SUBSTRUCTURE
     1 CAH         1 TEMP              0 ****  ****    0 ROOT
