@<TRIPOS>MOLECULE
CAH
   28    29     1     0     0
SMALL
bcc


@<TRIPOS>ATOM
      1 C1         -0.0200    0.0140    0.0330 c3        1 CAH     -0.149000
      2 C2          1.5190    0.0340    0.0310 c         1 CAH      0.572100
      3 O2          2.2560    0.0890   -0.9480 o         1 CAH     -0.517100
      4 C3          1.9510   -0.0140    1.4910 c3        1 CAH     -0.189400
      5 C4          0.6020    0.0060    2.2370 c3        1 CAH     -0.056700
      6 C5          0.0530    1.4420    2.0090 c3        1 CAH      0.132100
      7 O5         -0.9860    1.6950    2.9340 oh        1 CAH     -0.590800
      8 C6         -0.4220    1.4200    0.5340 c3        1 CAH     -0.109400
      9 C7         -0.2920   -0.8730    1.3010 c3        1 CAH     -0.045000
     10 C8          0.2230   -2.2900    1.1530 c3        1 CAH     -0.086100
     11 C9         -1.7440   -0.9360    1.7120 c3        1 CAH     -0.086100
     12 C10        -0.6590   -0.4090   -1.2480 c3        1 CAH     -0.070100
     13 H31         2.5220   -0.9490    1.7040 hc        1 CAH      0.077700
     14 H32         2.5990    0.8580    1.7480 hc        1 CAH      0.077700
     15 H4          0.6330   -0.3060    3.2970 hc        1 CAH      0.091700
     16 H5          0.8620    2.2080    2.1560 h1        1 CAH      0.038700
     17 HO5        -1.3620    2.5520    2.6990 ho        1 CAH      0.402000
     18 H61        -1.5280    1.5540    0.4650 hc        1 CAH      0.059700
     19 H62         0.0730    2.2190   -0.0660 hc        1 CAH      0.059700
     20 H81         1.1840   -2.3320    0.5860 hc        1 CAH      0.041867
     21 H82         0.3860   -2.7400    2.1630 hc        1 CAH      0.041867
     22 H83        -0.5240   -2.9130    0.6020 hc        1 CAH      0.041867
     23 H91        -2.1460    0.0660    1.9920 hc        1 CAH      0.041867
     24 H92        -1.8560   -1.6120    2.5950 hc        1 CAH      0.041867
     25 H93        -2.3570   -1.3430    0.8700 hc        1 CAH      0.041867
     26 H101       -0.2640    0.2040   -2.0950 hc        1 CAH      0.045700
     27 H102       -1.7670   -0.2810   -1.1930 hc        1 CAH      0.045700
     28 H103       -0.4330   -1.4840   -1.4540 hc        1 CAH      0.045700
@<TRIPOS>BOND
     1    1    2 1   
     2    1    8 1   
     3    1    9 1   
     4    1   12 1   
     5    2    3 2   
     6    2    4 1   
     7    4    5 1   
     8    4   13 1   
     9    4   14 1   
    10    5    6 1   
    11    5    9 1   
    12    5   15 1   
    13    6    7 1   
    14    6    8 1   
    15    6   16 1   
    16    7   17 1   
    17    8   18 1   
    18    8   19 1   
    19    9   10 1   
    20    9   11 1   
    21   10   20 1   
    22   10   21 1   
    23   10   22 1   
    24   11   23 1   
    25   11   24 1   
    26   11   25 1   
    27   12   26 1   
    28   12   27 1   
    29   12   28 1   
@<TRIPOS>SUBSTRUCTURE
     1 CAH         1 TEMP              0 ****  ****    0 ROOT
