@<TRIPOS>MOLECULE
CAK
   29    29     1     0     0
SMALL
bcc


@<TRIPOS>ATOM
      1 OAN        -0.8590    0.9610    1.7750 o         1 CAK     -0.930500
      2 PAM        -1.9090   -0.0190    1.3100 p5        1 CAK      1.330900
      3 OAO        -3.3480    0.2830    1.5900 o         1 CAK     -0.930500
      4 OAP        -1.4530   -1.4570    1.4480 o         1 CAK     -0.930500
      5 OAL        -1.7480    0.2190   -0.4000 os        1 CAK     -0.577200
      6 CAK        -0.9850   -0.6730   -1.1060 c3        1 CAK      0.240400
      7 CAF         0.5470   -0.4150   -1.0470 c3        1 CAK     -0.109700
      8 CAA         1.1460   -1.0980    0.1860 c3        1 CAK      0.092100
      9 OAG         0.9290   -2.4980    0.1950 oh        1 CAK     -0.668800
     10 CAB         2.6630   -0.8680    0.2630 c3        1 CAK      0.156100
     11 OAH         3.2470   -1.5620    1.3560 oh        1 CAK     -0.620800
     12 CAC         2.9020    0.6410    0.4160 c3        1 CAK      0.088100
     13 OAI         4.3080    0.8780    0.4230 oh        1 CAK     -0.617800
     14 CAD         2.2560    1.4160   -0.7490 c3        1 CAK      0.120100
     15 OAJ         2.4460    2.8110   -0.5130 oh        1 CAK     -0.654800
     16 CAE         0.7880    1.0770   -0.9160 c3        1 CAK     -0.140400
     17 HAK1       -1.2780   -0.5930   -2.1970 h1        1 CAK     -0.014800
     18 HAK2       -1.1840   -1.7260   -0.7580 h1        1 CAK     -0.014800
     19 HAF         1.0190   -0.8260   -1.9760 hc        1 CAK      0.000700
     20 HAA         0.6210   -0.6360    1.0940 h1        1 CAK      0.144700
     21 HAG         0.0590   -2.6130    0.6310 ho        1 CAK      0.474000
     22 HAB         3.1920   -1.2510   -0.6520 h1        1 CAK      0.041700
     23 HAH         2.5200   -1.8460    1.9260 ho        1 CAK      0.413000
     24 HAC         2.4650    0.9920    1.3930 h1        1 CAK      0.070700
     25 HAI         4.4070    1.8370    0.3550 ho        1 CAK      0.387000
     26 HAD         2.8380    1.2180   -1.6920 h1        1 CAK      0.038700
     27 HAJ         1.7620    3.0770    0.1160 ho        1 CAK      0.417000
     28 HAE1        0.1860    1.4110   -0.0020 hc        1 CAK      0.097200
     29 HAE2        0.3840    1.6120   -1.8100 hc        1 CAK      0.097200
@<TRIPOS>BOND
     1    1    2 1   
     2    2    3 1   
     3    2    4 1   
     4    2    5 1   
     5    5    6 1   
     6    6    7 1   
     7    6   17 1   
     8    6   18 1   
     9    7    8 1   
    10    7   16 1   
    11    7   19 1   
    12    8    9 1   
    13    8   10 1   
    14    8   20 1   
    15    9   21 1   
    16   10   11 1   
    17   10   12 1   
    18   10   22 1   
    19   11   23 1   
    20   12   13 1   
    21   12   14 1   
    22   12   24 1   
    23   13   25 1   
    24   14   15 1   
    25   14   16 1   
    26   14   26 1   
    27   15   27 1   
    28   16   28 1   
    29   16   29 1   
@<TRIPOS>SUBSTRUCTURE
     1 CAK         1 TEMP              0 ****  ****    0 ROOT
