@<TRIPOS>MOLECULE
CAK
   29    28     1     0     0
SMALL
bcc


@<TRIPOS>ATOM
      1 OAN         0.4240   -3.4710    3.3540 o         1 CAK     -0.924500
      2 PAM        -0.2680   -2.1810    3.8070 p4        1 CAK      1.678200
      3 OAO        -1.7490   -2.4180    3.9090 os        1 CAK     -1.249000
      4 OAP         0.2790   -1.7610    5.1730 o         1 CAK     -0.973300
      5 OAL         0.0040   -1.0480    2.7630 os        1 CAK     -0.566200
      6 CAK        -0.3430   -1.2820    1.4250 c3        1 CAK      0.240400
      7 CAF         0.0640   -0.0850    0.5770 c3        1 CAK     -0.160700
      8 CAA        -1.1460    0.4110   -0.1870 c3        1 CAK      0.149100
      9 OAG        -2.1010    0.9380    0.7400 oh        1 CAK     -0.668800
     10 CAB        -0.7930    1.4840   -1.1940 c3        1 CAK      0.132100
     11 OAH        -1.9140    1.7620   -1.9630 oh        1 CAK     -0.623800
     12 CAC         0.3610    1.0600   -2.1280 c3        1 CAK      0.118100
     13 OAI         0.7520    2.1840   -2.9260 oh        1 CAK     -0.604800
     14 CAD         1.5660    0.5650   -1.3660 c3        1 CAK      0.095100
     15 OAJ         2.5080    0.0320   -2.2900 oh        1 CAK     -0.630800
     16 CAE         1.2140   -0.5080   -0.3550 c3        1 CAK     -0.086400
     17 HAK1        0.1490   -2.1260    1.0850 h1        1 CAK     -0.006300
     18 HAK2       -1.3370   -1.4220    1.3550 h1        1 CAK     -0.006300
     19 HAF         0.3850    0.6410    1.1770 hc        1 CAK      0.118700
     20 HAA        -1.5370   -0.3210   -0.6480 h1        1 CAK      0.016700
     21 HAG        -2.9130    0.5880    0.5650 ho        1 CAK      0.491000
     22 HAB        -0.5210    2.3180   -0.7000 h1        1 CAK      0.054700
     23 HAH        -2.0400    2.6190   -1.9900 ho        1 CAK      0.416000
     24 HAC         0.0580    0.3770   -2.6950 h1        1 CAK      0.030700
     25 HAI         0.6120    1.9940   -3.8160 ho        1 CAK      0.393000
     26 HAD         1.9630    1.3020   -0.9090 h1        1 CAK      0.088700
     27 HAJ         3.3670    0.3920   -2.1100 ho        1 CAK      0.391000
     28 HAE1        0.9460   -1.3400   -0.8450 hc        1 CAK      0.044200
     29 HAE2        2.0100   -0.7040    0.1920 hc        1 CAK      0.044200
@<TRIPOS>BOND
     1    1    2 1   
     2    2    4 2   
     3    2    5 1   
     4    5    6 1   
     5    6    7 1   
     6    6   17 1   
     7    6   18 1   
     8    7    8 1   
     9    7   16 1   
    10    7   19 1   
    11    8    9 1   
    12    8   10 1   
    13    8   20 1   
    14    9   21 1   
    15   10   11 1   
    16   10   12 1   
    17   10   22 1   
    18   11   23 1   
    19   12   13 1   
    20   12   14 1   
    21   12   24 1   
    22   13   25 1   
    23   14   15 1   
    24   14   16 1   
    25   14   26 1   
    26   15   27 1   
    27   16   28 1   
    28   16   29 1   
@<TRIPOS>SUBSTRUCTURE
     1 CAK         1 TEMP              0 ****  ****    0 ROOT
