@<TRIPOS>MOLECULE
CAK
   29    29     1     0     0
SMALL
bcc


@<TRIPOS>ATOM
      1 OAN         0.9770    1.1550   -0.7910 o         1 CAK     -0.852500
      2 PAM         1.8380    0.0650   -0.2780 p5        1 CAK      1.432800
      3 OAO         2.2310   -0.0880    1.1390 o         1 CAK     -0.852500
      4 OAP         3.1800    0.1220   -1.2120 oh        1 CAK     -0.788400
      5 OAL         1.2300   -1.3700   -0.7970 os        1 CAK     -0.602200
      6 CAK         0.7890   -1.4580   -2.1250 c3        1 CAK      0.205400
      7 CAF         1.5440   -2.5430   -2.8940 c3        1 CAK     -0.139700
      8 CAA         0.9910   -2.6500   -4.3430 c3        1 CAK      0.398800
      9 OAG         1.0250   -1.5670   -5.0880 o         1 CAK     -0.882500
     10 CAB         1.8420   -3.7950   -5.0280 c3        1 CAK      0.022100
     11 OAH         1.4770   -3.9130   -6.3960 oh        1 CAK     -0.673800
     12 CAC         1.6190   -5.1370   -4.3380 c3        1 CAK      0.114100
     13 OAI         2.3260   -6.2040   -4.9700 oh        1 CAK     -0.637800
     14 CAD         2.1080   -5.0240   -2.8840 c3        1 CAK      0.139100
     15 OAJ         1.8990   -6.2460   -2.1800 oh        1 CAK     -0.618800
     16 CAE         1.4050   -3.8730   -2.1720 c3        1 CAK     -0.084400
     17 HAK1       -0.3070   -1.7250   -2.1070 h1        1 CAK      0.025700
     18 HAK2        0.9100   -0.4700   -2.6470 h1        1 CAK      0.025700
     19 HAF         2.6280   -2.2570   -2.9390 hc        1 CAK      0.039700
     20 HAA        -0.0620   -3.0940   -4.2440 h1        1 CAK     -0.101300
     21 HAG         2.9800    0.2790   -2.1270 ho        1 CAK      0.427000
     22 HAB         2.9350   -3.5330   -4.9950 h1        1 CAK      0.021700
     23 HAH         1.0770   -3.0530   -6.6190 ho        1 CAK      0.436000
     24 HAC         0.5260   -5.4100   -4.3540 h1        1 CAK      0.024700
     25 HAI         2.4240   -5.9480   -5.8950 ho        1 CAK      0.401000
     26 HAD         3.2240   -4.8910   -2.8670 h1        1 CAK      0.068700
     27 HAJ         0.9520   -6.4150   -2.2020 ho        1 CAK      0.379000
     28 HAE1        0.3150   -4.1240   -2.0730 hc        1 CAK      0.036700
     29 HAE2        1.8210   -3.7760   -1.1350 hc        1 CAK      0.036700
@<TRIPOS>BOND
     1    1    2 1   
     2    2    3 1   
     3    2    4 1   
     4    2    5 1   
     5    4   21 1   
     6    5    6 1   
     7    6    7 1   
     8    6   17 1   
     9    6   18 1   
    10    7    8 1   
    11    7   16 1   
    12    7   19 1   
    13    8    9 1   
    14    8   10 1   
    15    8   20 1   
    16   10   11 1   
    17   10   12 1   
    18   10   22 1   
    19   11   23 1   
    20   12   13 1   
    21   12   14 1   
    22   12   24 1   
    23   13   25 1   
    24   14   15 1   
    25   14   16 1   
    26   14   26 1   
    27   15   27 1   
    28   16   28 1   
    29   16   29 1   
@<TRIPOS>SUBSTRUCTURE
     1 CAK         1 TEMP              0 ****  ****    0 ROOT
