@<TRIPOS>MOLECULE
CAK
   29    29     1     0     0
SMALL
bcc


@<TRIPOS>ATOM
      1 OAN        -0.3170   -2.2810   -1.2350 o         1 CAK     -0.930500
      2 PAM         0.2210   -0.8720   -1.1670 p5        1 CAK      1.330900
      3 OAO        -0.0960   -0.0390    0.0350 o         1 CAK     -0.930500
      4 OAP         0.2090   -0.1880   -2.5190 o         1 CAK     -0.930500
      5 OAL         1.9060   -1.2430   -0.9970 os        1 CAK     -0.577200
      6 CAK         2.6910   -1.2040   -2.1180 c3        1 CAK      0.240400
      7 CAF         2.6240   -2.4760   -3.0100 c3        1 CAK     -0.109700
      8 CAA         1.4580   -2.3620   -3.9970 c3        1 CAK      0.092100
      9 OAG         1.5660   -1.2300   -4.8420 oh        1 CAK     -0.668800
     10 CAB         1.3750   -3.6030   -4.9000 c3        1 CAK      0.156100
     11 OAH         0.3500   -3.4780   -5.8740 oh        1 CAK     -0.620800
     12 CAC         1.0970   -4.8180   -4.0020 c3        1 CAK      0.088100
     13 OAI         1.0820   -5.9880   -4.8180 oh        1 CAK     -0.617800
     14 CAD         2.1860   -4.9580   -2.9220 c3        1 CAK      0.120100
     15 OAJ         1.8350   -6.0550   -2.0770 oh        1 CAK     -0.654800
     16 CAE         2.3690   -3.6820   -2.1260 c3        1 CAK     -0.140400
     17 HAK1        3.7690   -1.1080   -1.7840 h1        1 CAK     -0.014800
     18 HAK2        2.4320   -0.3100   -2.7510 h1        1 CAK     -0.014800
     19 HAF         3.5880   -2.5760   -3.5700 hc        1 CAK      0.000700
     20 HAA         0.5100   -2.2610   -3.3610 h1        1 CAK      0.144700
     21 HAG         1.1340   -0.5050   -4.3440 ho        1 CAK      0.474000
     22 HAB         2.3230   -3.7620   -5.4810 h1        1 CAK      0.041700
     23 HAH        -0.2010   -2.7300   -5.6050 ho        1 CAK      0.413000
     24 HAC         0.0900   -4.6980   -3.5120 h1        1 CAK      0.070700
     25 HAI         1.0690   -6.7300   -4.2000 ho        1 CAK      0.387000
     26 HAD         3.1480   -5.2870   -3.4070 h1        1 CAK      0.038700
     27 HAJ         1.1800   -5.7180   -1.4510 ho        1 CAK      0.417000
     28 HAE1        1.4240   -3.4360   -1.5270 hc        1 CAK      0.097200
     29 HAE2        3.2110   -3.8140   -1.4020 hc        1 CAK      0.097200
@<TRIPOS>BOND
     1    1    2 1   
     2    2    3 1   
     3    2    4 1   
     4    2    5 1   
     5    5    6 1   
     6    6    7 1   
     7    6   17 1   
     8    6   18 1   
     9    7    8 1   
    10    7   16 1   
    11    7   19 1   
    12    8    9 1   
    13    8   10 1   
    14    8   20 1   
    15    9   21 1   
    16   10   11 1   
    17   10   12 1   
    18   10   22 1   
    19   11   23 1   
    20   12   13 1   
    21   12   14 1   
    22   12   24 1   
    23   13   25 1   
    24   14   15 1   
    25   14   16 1   
    26   14   26 1   
    27   15   27 1   
    28   16   28 1   
    29   16   29 1   
@<TRIPOS>SUBSTRUCTURE
     1 CAK         1 TEMP              0 ****  ****    0 ROOT
