@<TRIPOS>MOLECULE
CAL
   50    50     1     0     0
SMALL
bcc


@<TRIPOS>ATOM
      1 N          -1.8850    0.9620   -1.1570 n3        1 CAL     -0.893800
      2 CA         -0.5880    0.3110   -1.0520 c3        1 CAL      0.156500
      3 CB          0.3240    0.6150   -2.2490 c3        1 CAL     -0.070400
      4 CG         -0.2420    0.1770   -3.5890 c3        1 CAL     -0.060700
      5 CD1         0.5740    0.8030   -4.7160 c3        1 CAL     -0.073900
      6 CD2        -0.2380   -1.3390   -3.7250 c3        1 CAL     -0.073900
      7 CE1         0.0680    0.3670   -6.0750 c3        1 CAL     -0.073900
      8 CE2        -0.7450   -1.7760   -5.0840 c3        1 CAL     -0.073900
      9 CZ          0.0570   -1.1420   -6.2020 c3        1 CAL     -0.074400
     10 CH          0.2050    0.6470    0.2440 c3        1 CAL      0.115100
     11 OH          0.1640    2.0550    0.4150 oh        1 CAL     -0.656800
     12 CM         -0.3790   -0.0860    1.4490 c3        1 CAL     -0.079400
     13 CA2         0.2470    0.3590    2.7590 c3        1 CAL     -0.190700
     14 CB2        -0.2180   -0.5040    3.9170 c3        1 CAL     -0.055400
     15 CG2        -1.6200   -0.1640    4.4070 c3        1 CAL     -0.073700
     16 CD3        -2.2070   -1.3320    5.1740 c3        1 CAL     -0.084100
     17 CD4        -1.6120    1.0750    5.2770 c3        1 CAL     -0.084100
     18 C           1.7940    0.3410    2.6570 c         1 CAL      0.911600
     19 O           2.4390   -0.6290    3.1350 o         1 CAL     -0.844800
     20 OXT         2.3380    1.3370    2.0860 o         1 CAL     -0.844800
     21 H          -1.7460    1.9480   -1.2850 hn        1 CAL      0.341300
     22 H2         -2.3760    0.8400   -0.2900 hn        1 CAL      0.341300
     23 HA         -0.7870   -0.8010   -1.0290 h1        1 CAL      0.046700
     24 HB2         0.5300    1.7190   -2.2700 hc        1 CAL      0.049200
     25 HB3         1.3040    0.0970   -2.0780 hc        1 CAL      0.049200
     26 HG         -1.3040    0.5380   -3.6840 hc        1 CAL      0.062700
     27 HD12        0.5200    1.9200   -4.6380 hc        1 CAL      0.040200
     28 HD13        1.6500    0.5080   -4.6030 hc        1 CAL      0.040200
     29 HD23        0.8040   -1.7250   -3.5710 hc        1 CAL      0.040200
     30 HD22       -0.8860   -1.7850   -2.9260 hc        1 CAL      0.040200
     31 HE12       -0.9720    0.7610   -6.2300 hc        1 CAL      0.030950
     32 HE13        0.7170    0.8070   -6.8770 hc        1 CAL      0.030950
     33 HE23       -1.8240   -1.4870   -5.1890 hc        1 CAL      0.030950
     34 HE22       -0.6850   -2.8920   -5.1660 hc        1 CAL      0.030950
     35 HZ2        -0.3790   -1.4350   -7.1930 hc        1 CAL      0.029700
     36 HZ3         1.1100   -1.5260   -6.1700 hc        1 CAL      0.029700
     37 HH          1.2790    0.3210    0.1220 h1        1 CAL      0.071700
     38 HO          0.8710    2.2640    1.0540 ho        1 CAL      0.460000
     39 HM1        -0.2070   -1.1850    1.3050 hc        1 CAL      0.021700
     40 HM2        -1.4880    0.0790    1.4990 hc        1 CAL      0.021700
     41 HA2        -0.0520    1.4270    2.9470 hc        1 CAL      0.040700
     42 HB21        0.5120   -0.3900    4.7620 hc        1 CAL      0.047200
     43 HB22       -0.1800   -1.5810    3.6050 hc        1 CAL      0.047200
     44 HG2        -2.2760    0.0360    3.5130 hc        1 CAL      0.038700
     45 HD31       -3.2220   -1.0760    5.5620 hc        1 CAL      0.023533
     46 HD32       -2.2950   -2.2270    4.5120 hc        1 CAL      0.023533
     47 HD33       -1.5530   -1.5970    6.0390 hc        1 CAL      0.023533
     48 HD41       -1.0000    0.9040    6.1960 hc        1 CAL      0.023533
     49 HD42       -1.1750    1.9380    4.7200 hc        1 CAL      0.023533
     50 HD43       -2.6510    1.3410    5.5900 hc        1 CAL      0.023533
@<TRIPOS>BOND
     1    1    2 1   
     2    1   21 1   
     3    1   22 1   
     4    2    3 1   
     5    2   10 1   
     6    2   23 1   
     7    3    4 1   
     8    3   24 1   
     9    3   25 1   
    10    4    5 1   
    11    4    6 1   
    12    4   26 1   
    13    5    7 1   
    14    5   27 1   
    15    5   28 1   
    16    6    8 1   
    17    6   29 1   
    18    6   30 1   
    19    7    9 1   
    20    7   31 1   
    21    7   32 1   
    22    8    9 1   
    23    8   33 1   
    24    8   34 1   
    25    9   35 1   
    26    9   36 1   
    27   10   11 1   
    28   10   12 1   
    29   10   37 1   
    30   11   38 1   
    31   12   13 1   
    32   12   39 1   
    33   12   40 1   
    34   13   14 1   
    35   13   18 1   
    36   13   41 1   
    37   14   15 1   
    38   14   42 1   
    39   14   43 1   
    40   15   16 1   
    41   15   17 1   
    42   15   44 1   
    43   16   45 1   
    44   16   46 1   
    45   16   47 1   
    46   17   48 1   
    47   17   49 1   
    48   17   50 1   
    49   18   19 1   
    50   18   20 1   
@<TRIPOS>SUBSTRUCTURE
     1 CAL         1 TEMP              0 ****  ****    0 ROOT
