@<TRIPOS>MOLECULE
CAL
   50    50     1     0     0
SMALL
bcc


@<TRIPOS>ATOM
      1 N          -2.0410    0.4110    0.6160 n3        1 CAL     -0.893800
      2 CA         -0.6190    0.4040    0.6550 c3        1 CAL      0.157500
      3 CB         -0.1540    0.4270    2.0930 c3        1 CAL     -0.070400
      4 CG         -0.4070    1.8110    2.6880 c3        1 CAL     -0.060700
      5 CD1        -1.1700    1.6520    3.9900 c3        1 CAL     -0.074900
      6 CD2         0.9250    2.5140    2.8790 c3        1 CAL     -0.074900
      7 CE1        -1.3070    2.9580    4.7420 c3        1 CAL     -0.073900
      8 CE2         0.7870    3.8190    3.6310 c3        1 CAL     -0.073900
      9 CZ          0.0250    3.6610    4.9320 c3        1 CAL     -0.074400
     10 CH         -0.1030   -0.8440   -0.0220 c3        1 CAL      0.114100
     11 OH         -1.0520   -1.8760    0.1090 oh        1 CAL     -0.655800
     12 CM          0.1350   -0.5620   -1.4880 c3        1 CAL     -0.080400
     13 CA2         0.4630   -1.8530   -2.2040 c3        1 CAL     -0.190700
     14 CB2         0.6730   -1.5750   -3.6760 c3        1 CAL     -0.059400
     15 CG2         0.2110   -2.7660   -4.4860 c3        1 CAL     -0.060700
     16 CD3        -0.7550   -2.3060   -5.5560 c3        1 CAL     -0.088600
     17 CD4         1.4060   -3.4280   -5.1370 c3        1 CAL     -0.088600
     18 C           1.7250   -2.4480   -1.6190 c         1 CAL      0.907600
     19 O           2.8020   -1.7960   -1.6530 o         1 CAL     -0.844800
     20 OXT         1.7000   -3.5960   -1.1030 o         1 CAL     -0.844800
     21 H          -2.3330    1.2100    0.2750 hn        1 CAL      0.341300
     22 H2         -2.3700    0.3020    1.4630 hn        1 CAL      0.341300
     23 HA         -0.2760    1.1920    0.1890 h1        1 CAL      0.047700
     24 HB2         0.8030    0.2260    2.1290 hc        1 CAL      0.049200
     25 HB3        -0.6480   -0.2440    2.6060 hc        1 CAL      0.049200
     26 HG         -0.9510    2.3290    2.0650 hc        1 CAL      0.062700
     27 HD12       -0.6980    1.0090    4.5560 hc        1 CAL      0.040450
     28 HD13       -2.0630    1.3060    3.7930 hc        1 CAL      0.040450
     29 HD23        1.5260    1.9240    3.3760 hc        1 CAL      0.040450
     30 HD22        1.3150    2.6960    2.0000 hc        1 CAL      0.040450
     31 HE12       -1.6970    2.7770    5.6210 hc        1 CAL      0.030950
     32 HE13       -1.9080    3.5480    4.2450 hc        1 CAL      0.030950
     33 HE23        0.3160    4.4630    3.0650 hc        1 CAL      0.030950
     34 HE22        1.6800    4.1660    3.8280 hc        1 CAL      0.030950
     35 HZ2        -0.1370    4.5460    5.3140 hc        1 CAL      0.029700
     36 HZ3         0.5700    3.1410    5.5570 hc        1 CAL      0.029700
     37 HH          0.7370   -1.1190    0.3970 h1        1 CAL      0.069700
     38 HO         -0.6920   -2.5550    0.5570 ho        1 CAL      0.460000
     39 HM1        -0.6710   -0.1680   -1.8790 hc        1 CAL      0.023700
     40 HM2         0.8820    0.0630   -1.5830 hc        1 CAL      0.023700
     41 HA2        -0.2750   -2.4830   -2.0940 hc        1 CAL      0.041700
     42 HB21        1.6230   -1.4140   -3.8460 hc        1 CAL      0.037200
     43 HB22        0.1570   -0.7850   -3.9360 hc        1 CAL      0.037200
     44 HG2        -0.2350   -3.4060   -3.8990 hc        1 CAL      0.031700
     45 HD31       -1.5250   -1.8690   -5.1350 hc        1 CAL      0.028200
     46 HD32       -1.0610   -3.0790   -6.0750 hc        1 CAL      0.028200
     47 HD33       -0.3040   -1.6700   -6.1510 hc        1 CAL      0.028200
     48 HD41        1.0980   -4.0520   -5.8270 hc        1 CAL      0.028200
     49 HD42        1.9760   -2.7430   -5.5450 hc        1 CAL      0.028200
     50 HD43        1.9170   -3.9170   -4.4590 hc        1 CAL      0.028200
@<TRIPOS>BOND
     1    1    2 1   
     2    1   21 1   
     3    1   22 1   
     4    2    3 1   
     5    2   10 1   
     6    2   23 1   
     7    3    4 1   
     8    3   24 1   
     9    3   25 1   
    10    4    5 1   
    11    4    6 1   
    12    4   26 1   
    13    5    7 1   
    14    5   27 1   
    15    5   28 1   
    16    6    8 1   
    17    6   29 1   
    18    6   30 1   
    19    7    9 1   
    20    7   31 1   
    21    7   32 1   
    22    8    9 1   
    23    8   33 1   
    24    8   34 1   
    25    9   35 1   
    26    9   36 1   
    27   10   11 1   
    28   10   12 1   
    29   10   37 1   
    30   11   38 1   
    31   12   13 1   
    32   12   39 1   
    33   12   40 1   
    34   13   14 1   
    35   13   18 1   
    36   13   41 1   
    37   14   15 1   
    38   14   42 1   
    39   14   43 1   
    40   15   16 1   
    41   15   17 1   
    42   15   44 1   
    43   16   45 1   
    44   16   46 1   
    45   16   47 1   
    46   17   48 1   
    47   17   49 1   
    48   17   50 1   
    49   18   19 1   
    50   18   20 1   
@<TRIPOS>SUBSTRUCTURE
     1 CAL         1 TEMP              0 ****  ****    0 ROOT
