@<TRIPOS>MOLECULE
CAM
   27    28     1     0     0
SMALL
bcc


@<TRIPOS>ATOM
      1 C1         -0.5150    0.5540   -0.2380 c3        1 CAM     -0.153000
      2 C2          0.1890   -0.1750   -1.3930 c         1 CAM      0.576100
      3 O          -0.1080   -0.1410   -2.5820 o         1 CAM     -0.520100
      4 C3          1.3480   -0.9400   -0.7680 c3        1 CAM     -0.185400
      5 C4          1.2350   -0.5630    0.7220 c3        1 CAM     -0.066700
      6 C5          1.6510    0.9180    0.8180 c3        1 CAM     -0.084400
      7 C6          0.4820    1.6720    0.1600 c3        1 CAM     -0.072400
      8 C7         -0.3160   -0.4870    0.9220 c3        1 CAM     -0.051000
      9 C8         -1.0160   -1.8050    0.6670 c3        1 CAM     -0.083600
     10 C9         -0.7310    0.0200    2.2830 c3        1 CAM     -0.083600
     11 C10        -1.9080    1.0120   -0.5140 c3        1 CAM     -0.069100
     12 H31         2.3210   -0.6230   -1.2130 hc        1 CAM      0.074700
     13 H32         1.2290   -2.0390   -0.9280 hc        1 CAM      0.074700
     14 H4          1.7670   -1.2430    1.4130 hc        1 CAM      0.073700
     15 H51         1.7880    1.2270    1.8820 hc        1 CAM      0.048200
     16 H52         2.6110    1.1040    0.2810 hc        1 CAM      0.048200
     17 H61        -0.0000    2.3840    0.8710 hc        1 CAM      0.053200
     18 H62         0.8140    2.2470   -0.7370 hc        1 CAM      0.053200
     19 H81        -0.5720   -2.5990    1.3150 hc        1 CAM      0.039200
     20 H82        -2.1040   -1.7140    0.9100 hc        1 CAM      0.039200
     21 H83        -0.9300   -2.1260   -0.3980 hc        1 CAM      0.039200
     22 H91        -0.4830   -0.7440    3.0600 hc        1 CAM      0.039200
     23 H92        -0.2210    0.9740    2.5550 hc        1 CAM      0.039200
     24 H93        -1.8340    0.2010    2.2990 hc        1 CAM      0.039200
     25 H101       -1.9290    1.6480   -1.4330 hc        1 CAM      0.044700
     26 H102       -2.5790    0.1330   -0.6770 hc        1 CAM      0.044700
     27 H103       -2.3010    1.6060    0.3470 hc        1 CAM      0.044700
@<TRIPOS>BOND
     1    1    2 1   
     2    1    7 1   
     3    1    8 1   
     4    1   11 1   
     5    2    3 2   
     6    2    4 1   
     7    4    5 1   
     8    4   12 1   
     9    4   13 1   
    10    5    6 1   
    11    5    8 1   
    12    5   14 1   
    13    6    7 1   
    14    6   15 1   
    15    6   16 1   
    16    7   17 1   
    17    7   18 1   
    18    8    9 1   
    19    8   10 1   
    20    9   19 1   
    21    9   20 1   
    22    9   21 1   
    23   10   22 1   
    24   10   23 1   
    25   10   24 1   
    26   11   25 1   
    27   11   26 1   
    28   11   27 1   
@<TRIPOS>SUBSTRUCTURE
     1 CAM         1 TEMP              0 ****  ****    0 ROOT
