@<TRIPOS>MOLECULE
CAM
   27    28     1     0     0
SMALL
bcc


@<TRIPOS>ATOM
      1 C1         -0.0300    0.0140    0.0070 c3        1 CAM     -0.153000
      2 C2          1.5070    0.0020    0.0070 c         1 CAM      0.576100
      3 O           2.2480   -0.0020   -0.9700 o         1 CAM     -0.520100
      4 C3          1.9310    0.0150    1.4690 c3        1 CAM     -0.185400
      5 C4          0.5810    0.0620    2.2110 c3        1 CAM     -0.066700
      6 C5          0.0070    1.4700    1.9610 c3        1 CAM     -0.084400
      7 C6         -0.3920    1.4460    0.4750 c3        1 CAM     -0.072400
      8 C7         -0.3230   -0.8330    1.2970 c3        1 CAM     -0.051000
      9 C8          0.1630   -2.2640    1.1960 c3        1 CAM     -0.083600
     10 C9         -1.7760   -0.8500    1.7080 c3        1 CAM     -0.083600
     11 C10        -0.6820   -0.4260   -1.2610 c3        1 CAM     -0.069100
     12 H31         2.5110   -0.9050    1.7210 hc        1 CAM      0.074700
     13 H32         2.5680    0.9050    1.6920 hc        1 CAM      0.074700
     14 H4          0.6270   -0.2420    3.2730 hc        1 CAM      0.073700
     15 H51        -0.8740    1.6650    2.6170 hc        1 CAM      0.048200
     16 H52         0.7680    2.2600    2.1670 hc        1 CAM      0.048200
     17 H61        -1.4840    1.6320    0.3400 hc        1 CAM      0.053200
     18 H62         0.1670    2.2110   -0.1150 hc        1 CAM      0.053200
     19 H81         1.1550   -2.3340    0.6890 hc        1 CAM      0.039200
     20 H82         0.2540   -2.7050    2.2170 hc        1 CAM      0.039200
     21 H83        -0.5650   -2.8740    0.6070 hc        1 CAM      0.039200
     22 H91        -1.8880   -1.4020    2.6730 hc        1 CAM      0.039200
     23 H92        -2.3840   -1.3700    0.9270 hc        1 CAM      0.039200
     24 H93        -2.1920    0.1770    1.8410 hc        1 CAM      0.039200
     25 H101       -0.4580   -1.5030   -1.4580 hc        1 CAM      0.044700
     26 H102       -0.2970    0.1780   -2.1200 hc        1 CAM      0.044700
     27 H103       -1.7900   -0.2980   -1.1950 hc        1 CAM      0.044700
@<TRIPOS>BOND
     1    1    2 1   
     2    1    7 1   
     3    1    8 1   
     4    1   11 1   
     5    2    3 2   
     6    2    4 1   
     7    4    5 1   
     8    4   12 1   
     9    4   13 1   
    10    5    6 1   
    11    5    8 1   
    12    5   14 1   
    13    6    7 1   
    14    6   15 1   
    15    6   16 1   
    16    7   17 1   
    17    7   18 1   
    18    8    9 1   
    19    8   10 1   
    20    9   19 1   
    21    9   20 1   
    22    9   21 1   
    23   10   22 1   
    24   10   23 1   
    25   10   24 1   
    26   11   25 1   
    27   11   26 1   
    28   11   27 1   
@<TRIPOS>SUBSTRUCTURE
     1 CAM         1 TEMP              0 ****  ****    0 ROOT
