@<TRIPOS>MOLECULE
CAM
   27    28     1     0     0
SMALL
bcc


@<TRIPOS>ATOM
      1 C1         -0.0150    0.3680   -0.8230 c3        1 CAM     -0.153000
      2 C2          1.4740    0.3680   -0.8230 c         1 CAM      0.576100
      3 O           2.0840    1.0150   -1.6600 o         1 CAM     -0.520100
      4 C3          1.9070    0.3680    0.5280 c3        1 CAM     -0.185400
      5 C4          0.7390    0.3660    1.3820 c3        1 CAM     -0.066700
      6 C5         -0.1670    1.4800    1.2370 c3        1 CAM     -0.084400
      7 C6         -0.6400    1.5000   -0.1000 c3        1 CAM     -0.072400
      8 C7         -0.1440   -0.6400    0.3810 c3        1 CAM     -0.051000
      9 C8          0.5720   -1.9780    0.1090 c3        1 CAM     -0.083600
     10 C9         -1.6010   -0.8120    0.8530 c3        1 CAM     -0.083600
     11 C10        -0.8360   -0.1540   -2.4010 c3        1 CAM     -0.069100
     12 H31         2.4420   -0.4300    0.7010 hc        1 CAM      0.074700
     13 H32         2.4410    1.1660    0.7020 hc        1 CAM      0.074700
     14 H4          0.8590    0.0170    2.2860 hc        1 CAM      0.073700
     15 H51         0.3020    2.3130    1.4330 hc        1 CAM      0.048200
     16 H52        -0.9190    1.3740    1.8500 hc        1 CAM      0.048200
     17 H61        -0.3900    2.3420   -0.5270 hc        1 CAM      0.053200
     18 H62        -1.6110    1.4010   -0.1090 hc        1 CAM      0.053200
     19 H81        -0.0710   -2.6270   -0.2340 hc        1 CAM      0.039200
     20 H82         1.2790   -1.8410   -0.5500 hc        1 CAM      0.039200
     21 H83         0.9610   -2.3130    0.9390 hc        1 CAM      0.039200
     22 H91        -1.6850   -0.4910    1.7710 hc        1 CAM      0.039200
     23 H92        -2.1950   -0.2980    0.2730 hc        1 CAM      0.039200
     24 H93        -1.8460   -1.7560    0.8150 hc        1 CAM      0.039200
     25 H101       -0.8610    0.6010   -3.0200 hc        1 CAM      0.044700
     26 H102       -0.3330   -0.8880   -2.8030 hc        1 CAM      0.044700
     27 H103       -1.7470   -0.4490   -2.2120 hc        1 CAM      0.044700
@<TRIPOS>BOND
     1    1    2 1   
     2    1    7 1   
     3    1    8 1   
     4    1   11 1   
     5    2    3 2   
     6    2    4 1   
     7    4    5 1   
     8    4   12 1   
     9    4   13 1   
    10    5    6 1   
    11    5    8 1   
    12    5   14 1   
    13    6    7 1   
    14    6   15 1   
    15    6   16 1   
    16    7   17 1   
    17    7   18 1   
    18    8    9 1   
    19    8   10 1   
    20    9   19 1   
    21    9   20 1   
    22    9   21 1   
    23   10   22 1   
    24   10   23 1   
    25   10   24 1   
    26   11   25 1   
    27   11   26 1   
    28   11   27 1   
@<TRIPOS>SUBSTRUCTURE
     1 CAM         1 TEMP              0 ****  ****    0 ROOT
