@<TRIPOS>MOLECULE
CAM
   27    28     1     0     0
SMALL
bcc


@<TRIPOS>ATOM
      1 C1         -0.0280    0.0130    0.0070 c3        1 CAM     -0.153000
      2 C2          1.5090    0.0010    0.0100 c         1 CAM      0.576100
      3 O           2.2520   -0.0040   -0.9650 o         1 CAM     -0.520100
      4 C3          1.9300    0.0150    1.4730 c3        1 CAM     -0.185400
      5 C4          0.5780    0.0620    2.2120 c3        1 CAM     -0.066700
      6 C5          0.0050    1.4700    1.9600 c3        1 CAM     -0.084400
      7 C6         -0.3910    1.4460    0.4730 c3        1 CAM     -0.072400
      8 C7         -0.3240   -0.8330    1.2970 c3        1 CAM     -0.051000
      9 C8          0.1610   -2.2630    1.1970 c3        1 CAM     -0.083600
     10 C9         -1.7780   -0.8490    1.7050 c3        1 CAM     -0.083600
     11 C10        -0.6770   -0.4260   -1.2630 c3        1 CAM     -0.069100
     12 H31         2.5670    0.9040    1.6970 hc        1 CAM      0.074700
     13 H32         2.5100   -0.9050    1.7270 hc        1 CAM      0.074700
     14 H4          0.6220   -0.2410    3.2740 hc        1 CAM      0.073700
     15 H51        -0.8770    1.6660    2.6140 hc        1 CAM      0.048200
     16 H52         0.7660    2.2600    2.1670 hc        1 CAM      0.048200
     17 H61         0.1700    2.2110   -0.1160 hc        1 CAM      0.053200
     18 H62        -1.4820    1.6320    0.3360 hc        1 CAM      0.053200
     19 H81        -0.5660   -2.8740    0.6070 hc        1 CAM      0.039200
     20 H82         0.2500   -2.7050    2.2190 hc        1 CAM      0.039200
     21 H83         1.1550   -2.3350    0.6920 hc        1 CAM      0.039200
     22 H91        -2.3840   -1.3690    0.9220 hc        1 CAM      0.039200
     23 H92        -2.1930    0.1780    1.8370 hc        1 CAM      0.039200
     24 H93        -1.8920   -1.4000    2.6700 hc        1 CAM      0.039200
     25 H101       -0.4530   -1.5040   -1.4580 hc        1 CAM      0.044700
     26 H102       -1.7860   -0.2990   -1.1980 hc        1 CAM      0.044700
     27 H103       -0.2910    0.1770   -2.1210 hc        1 CAM      0.044700
@<TRIPOS>BOND
     1    1    2 1   
     2    1    7 1   
     3    1    8 1   
     4    1   11 1   
     5    2    3 2   
     6    2    4 1   
     7    4    5 1   
     8    4   12 1   
     9    4   13 1   
    10    5    6 1   
    11    5    8 1   
    12    5   14 1   
    13    6    7 1   
    14    6   15 1   
    15    6   16 1   
    16    7   17 1   
    17    7   18 1   
    18    8    9 1   
    19    8   10 1   
    20    9   19 1   
    21    9   20 1   
    22    9   21 1   
    23   10   22 1   
    24   10   23 1   
    25   10   24 1   
    26   11   25 1   
    27   11   26 1   
    28   11   27 1   
@<TRIPOS>SUBSTRUCTURE
     1 CAM         1 TEMP              0 ****  ****    0 ROOT
