@<TRIPOS>MOLECULE
CAN
   18    17     1     0     0
SMALL
bcc


@<TRIPOS>ATOM
      1 N          -2.1260   -0.4940   -1.0540 n3        1 CAN     -0.893800
      2 CA         -0.7030   -0.4940   -1.0540 c3        1 CAN      0.018500
      3 CB         -0.2000   -0.4940    0.3710 c3        1 CAN     -0.070400
      4 CG          0.6080    0.7600    0.6200 c3        1 CAN      0.146400
      5 OG          1.0930    0.7520    1.9430 os        1 CAN     -0.286100
      6 NZ          1.8210    1.8870    2.1780 n3        1 CAN     -0.655300
      7 C          -0.2000   -1.7280   -1.7660 c         1 CAN      0.889600
      8 O          -0.5900   -2.8690   -1.4020 o         1 CAN     -0.842300
      9 OXT         0.6100   -1.6160   -2.7240 o         1 CAN     -0.842300
     10 HN1        -2.4300   -0.9270   -1.7970 hn        1 CAN      0.331300
     11 HN2        -2.4300    0.3660   -1.0570 hn        1 CAN      0.331300
     12 HA         -0.3780    0.3030   -1.5140 h1        1 CAN      0.041700
     13 HB1         0.3630   -1.2780    0.5170 hc        1 CAN      0.058200
     14 HB2        -0.9580   -0.5200    0.9850 hc        1 CAN      0.058200
     15 HG1         0.0420    1.5440    0.4860 h1        1 CAN      0.035200
     16 HG2         1.3610    0.7920   -0.0010 h1        1 CAN      0.035200
     17 HNZ1        1.4410    2.3570    2.8620 hn        1 CAN      0.322800
     18 HNZ2        2.6750    1.6590    2.4040 hn        1 CAN      0.322800
@<TRIPOS>BOND
     1    1    2 1   
     2    1   10 1   
     3    1   11 1   
     4    2    3 1   
     5    2    7 1   
     6    2   12 1   
     7    3    4 1   
     8    3   13 1   
     9    3   14 1   
    10    4    5 1   
    11    4   15 1   
    12    4   16 1   
    13    5    6 1   
    14    6   17 1   
    15    6   18 1   
    16    7    8 1   
    17    7    9 1   
@<TRIPOS>SUBSTRUCTURE
     1 CAN         1 TEMP              0 ****  ****    0 ROOT
