@<TRIPOS>MOLECULE
CAN
   20    19     1     0     0
SMALL
bcc


@<TRIPOS>ATOM
      1 N           0.4880   -1.0240   -0.3010 n4        1 CAN     -0.823600
      2 CA          0.6290    0.3040    0.3670 c3        1 CAN     -0.043500
      3 CB          0.2500    0.2580    1.8520 c3        1 CAN     -0.128400
      4 CG          0.6350    1.5430    2.5660 c3        1 CAN      0.107400
      5 OG          1.8010    1.3660    3.4160 os        1 CAN     -0.223100
      6 NZ          3.0440    1.5030    2.8680 n4        1 CAN     -0.641100
      7 C           2.1340    0.7440    0.3160 c         1 CAN      0.893600
      8 O           2.9780   -0.1650    0.5460 o         1 CAN     -0.778300
      9 OXT         2.3590    1.9740    0.2270 o         1 CAN     -0.778300
     10 HN1         0.4400   -0.8900   -1.3140 hn        1 CAN      0.463133
     11 HN2         1.3390   -1.5750   -0.0820 hn        1 CAN      0.463133
     12 HA         -0.0110    1.0510   -0.1820 hx        1 CAN      0.124700
     13 HB1        -0.8590    0.1170    1.9570 hc        1 CAN      0.085200
     14 HB2         0.7580   -0.6080    2.3580 hc        1 CAN      0.085200
     15 HG1        -0.1300    1.8020    3.3560 h1        1 CAN      0.125200
     16 HG2         0.7740    2.4070    1.8590 h1        1 CAN      0.125200
     17 HNZ1        3.3400    0.6020    2.4260 hn        1 CAN      0.492800
     18 HNZ2        3.6670    1.7450    3.6550 hn        1 CAN      0.492800
     19 HN3        -0.3420   -1.5220    0.0220 hn        1 CAN      0.463133
     20 HZ3         3.0670    2.2450    2.1310 hn        1 CAN      0.492800
@<TRIPOS>BOND
     1    1    2 1   
     2    1   10 1   
     3    1   11 1   
     4    1   19 1   
     5    2    3 1   
     6    2    7 1   
     7    2   12 1   
     8    3    4 1   
     9    3   13 1   
    10    3   14 1   
    11    4    5 1   
    12    4   15 1   
    13    4   16 1   
    14    5    6 1   
    15    6   17 1   
    16    6   18 1   
    17    6   20 1   
    18    7    8 1   
    19    7    9 1   
@<TRIPOS>SUBSTRUCTURE
     1 CAN         1 TEMP              0 ****  ****    0 ROOT
