@<TRIPOS>MOLECULE
CAN
   18    17     1     0     0
SMALL
bcc


@<TRIPOS>ATOM
      1 N           1.8890   -0.1750   -0.7140 n3        1 CAN     -0.893800
      2 CA          0.4480   -0.3940   -0.7330 c3        1 CAN      0.018500
      3 CB         -0.2690    0.2140    0.4720 c3        1 CAN     -0.070400
      4 CG          0.1570   -0.4620    1.7600 c3        1 CAN      0.146400
      5 OG         -0.6570    0.1520    2.8010 os        1 CAN     -0.286100
      6 NZ         -0.4370   -0.3520    4.0300 n3        1 CAN     -0.655300
      7 C          -0.2670    0.1140   -2.0310 c         1 CAN      0.889600
      8 O           0.4430    0.6610   -2.9230 o         1 CAN     -0.842300
      9 OXT        -1.5110   -0.0750   -2.1210 o         1 CAN     -0.842300
     10 HN1         2.0600    0.8070   -0.5910 hn        1 CAN      0.331300
     11 HN2         2.2360   -0.4050   -1.6320 hn        1 CAN      0.331300
     12 HA          0.2950   -1.5130   -0.7070 h1        1 CAN      0.041700
     13 HB1        -1.3730    0.0830    0.3130 hc        1 CAN      0.058200
     14 HB2        -0.0680    1.3140    0.5390 hc        1 CAN      0.058200
     15 HG1         1.2390   -0.2880    1.9860 h1        1 CAN      0.035200
     16 HG2        -0.0480   -1.5630    1.7280 h1        1 CAN      0.035200
     17 HNZ1       -0.2140    0.4410    4.6280 hn        1 CAN      0.322800
     18 HNZ2       -1.3300   -0.7100    4.3600 hn        1 CAN      0.322800
@<TRIPOS>BOND
     1    1    2 1   
     2    1   10 1   
     3    1   11 1   
     4    2    3 1   
     5    2    7 1   
     6    2   12 1   
     7    3    4 1   
     8    3   13 1   
     9    3   14 1   
    10    4    5 1   
    11    4   15 1   
    12    4   16 1   
    13    5    6 1   
    14    6   17 1   
    15    6   18 1   
    16    7    8 1   
    17    7    9 1   
@<TRIPOS>SUBSTRUCTURE
     1 CAN         1 TEMP              0 ****  ****    0 ROOT
