@<TRIPOS>MOLECULE
CAN
   20    19     1     0     0
SMALL
bcc


@<TRIPOS>ATOM
      1 N           0.4950   -1.0320   -0.2970 nz        1 CAN     -0.823600
      2 CA          0.6670    0.3070    0.3420 c3        1 CAN     -0.043500
      3 CB          0.2140    0.3210    1.8060 c3        1 CAN     -0.128400
      4 CG          0.6250    1.6070    2.5050 c3        1 CAN      0.107400
      5 OG          1.7390    1.4000    3.4170 os        1 CAN     -0.223100
      6 NZ          3.0130    1.4630    2.9280 nz        1 CAN     -0.641100
      7 C           2.1930    0.6750    0.3550 c         1 CAN      0.893600
      8 O           2.9800   -0.2660    0.6510 o         1 CAN     -0.778300
      9 OXT         2.4800    1.8890    0.2450 o         1 CAN     -0.778300
     10 HN1         0.5040   -0.9240   -1.3150 hn        1 CAN      0.463133
     11 HN2         1.3070   -1.6150   -0.0220 hn        1 CAN      0.463133
     12 HA          0.0910    1.0670   -0.2580 hx        1 CAN      0.124700
     13 HB1         0.6550   -0.5530    2.3600 hc        1 CAN      0.085200
     14 HB2        -0.9040    0.2350    1.8600 hc        1 CAN      0.085200
     15 HG1        -0.1640    1.9240    3.2490 h1        1 CAN      0.125200
     16 HG2         0.8400    2.4420    1.7840 h1        1 CAN      0.125200
     17 HNZ1        3.6070    1.6980    3.7390 hn        1 CAN      0.492800
     18 HNZ2        3.2860    0.5370    2.5260 hn        1 CAN      0.492800
     19 HN3        -0.3720   -1.4800   -0.0030 hn        1 CAN      0.463133
     20 HZ3         3.1060    2.1820    2.1740 hn        1 CAN      0.492800
@<TRIPOS>BOND
     1    1    2 1   
     2    1   10 1   
     3    1   11 1   
     4    1   19 1   
     5    2    3 1   
     6    2    7 1   
     7    2   12 1   
     8    3    4 1   
     9    3   13 1   
    10    3   14 1   
    11    4    5 1   
    12    4   15 1   
    13    4   16 1   
    14    5    6 1   
    15    6   17 1   
    16    6   18 1   
    17    6   20 1   
    18    7    8 1   
    19    7    9 1   
@<TRIPOS>SUBSTRUCTURE
     1 CAN         1 TEMP              0 ****  ****    0 ROOT
