@<TRIPOS>MOLECULE
CAP
   30    29     1     0     0
SMALL
bcc


@<TRIPOS>ATOM
      1 C1         -0.2150   -0.3280   -2.3960 c3        1 CAP      0.189400
      2 C2          0.4790    0.2250   -1.1030 c3        1 CAP      0.009800
      3 C3         -0.1390   -0.4320    0.1720 c3        1 CAP      0.132100
      4 C4          0.4770   -0.0050    1.5410 c3        1 CAP      0.107100
      5 C5         -0.4620   -0.1930    2.7700 c3        1 CAP      0.220400
      6 C           2.0080    0.0020   -1.1970 c         1 CAP      0.907600
      7 O1         -0.3340    0.6520   -3.3680 os        1 CAP     -0.587200
      8 O2          0.2060    1.6190   -0.9850 oh        1 CAP     -0.636800
      9 O3         -1.5430   -0.2110    0.1790 oh        1 CAP     -0.623800
     10 O4          1.6170   -0.8170    1.8020 oh        1 CAP     -0.640800
     11 O5         -0.1280    0.6600    3.8070 os        1 CAP     -0.589200
     12 O6          2.7720    0.9920   -1.4180 o         1 CAP     -0.888300
     13 O7          2.4910   -1.1670   -1.0400 o         1 CAP     -0.888300
     14 P1         -1.1490    0.1810   -4.8020 p5        1 CAP      1.333900
     15 P2         -0.6370    0.2480    5.3920 p5        1 CAP      1.336900
     16 O1P        -2.6070    0.0620   -4.4210 o         1 CAP     -0.958167
     17 O2P        -0.8660    1.3400   -5.7370 o         1 CAP     -0.958167
     18 O3P        -0.5260   -1.1240   -5.2410 o         1 CAP     -0.958167
     19 O4P        -0.7450   -1.2590    5.4470 o         1 CAP     -0.959167
     20 O5P         0.4510    0.8230    6.2760 o         1 CAP     -0.959167
     21 O6P        -1.9650    0.9570    5.5550 o         1 CAP     -0.959167
     22 H11         0.3950   -1.1860   -2.7910 h1        1 CAP      0.008700
     23 H12        -1.2430   -0.7030   -2.1290 h1        1 CAP      0.008700
     24 H3         -0.0180   -1.5460    0.0640 h1        1 CAP      0.054700
     25 H4          0.7910    1.0710    1.4740 h1        1 CAP      0.040700
     26 H51        -1.5100    0.0260    2.4110 h1        1 CAP      0.005200
     27 H52        -0.4070   -1.2590    3.1230 h1        1 CAP      0.005200
     28 HO2         0.4510    1.9890   -1.8450 ho        1 CAP      0.427000
     29 HO3        -1.6730    0.7140   -0.0620 ho        1 CAP      0.407000
     30 HO4         2.1630   -0.8020    1.0040 ho        1 CAP      0.413000
@<TRIPOS>BOND
     1    1    2 1   
     2    1    7 1   
     3    1   22 1   
     4    1   23 1   
     5    2    3 1   
     6    2    6 1   
     7    2    8 1   
     8    3    4 1   
     9    3    9 1   
    10    3   24 1   
    11    4    5 1   
    12    4   10 1   
    13    4   25 1   
    14    5   11 1   
    15    5   26 1   
    16    5   27 1   
    17    6   12 1   
    18    6   13 1   
    19    7   14 1   
    20    8   28 1   
    21    9   29 1   
    22   10   30 1   
    23   11   15 1   
    24   14   16 1   
    25   14   17 1   
    26   14   18 1   
    27   15   19 1   
    28   15   20 1   
    29   15   21 1   
@<TRIPOS>SUBSTRUCTURE
     1 CAP         1 TEMP              0 ****  ****    0 ROOT
