@<TRIPOS>MOLECULE
CAQ
   14    14     1     0     0
SMALL
bcc


@<TRIPOS>ATOM
      1 C1          0.0240    0.0070    0.0080 ca        1 CAQ     -0.126000
      2 C2          1.4160   -0.0900    0.0010 ca        1 CAQ     -0.185000
      3 C3          2.1140   -0.1910    1.2080 ca        1 CAQ      0.101100
      4 O3          3.4840   -0.2890    1.2790 oh        1 CAQ     -0.475100
      5 C4          1.4040   -0.1930    2.4320 ca        1 CAQ      0.101100
      6 O4          2.1450   -0.2950    3.5860 oh        1 CAQ     -0.475100
      7 C5          0.0090   -0.0960    2.4240 ca        1 CAQ     -0.185000
      8 C6         -0.6750    0.0040    1.2120 ca        1 CAQ     -0.126000
      9 H1         -0.5190    0.0860   -0.9450 ha        1 CAQ      0.135000
     10 H2          1.9670   -0.0880   -0.9510 ha        1 CAQ      0.136000
     11 HO3         3.8250   -0.2740    0.3720 ho        1 CAQ      0.415000
     12 HO4         1.5270   -0.2830    4.3310 ho        1 CAQ      0.415000
     13 H5         -0.5440   -0.0980    3.3740 ha        1 CAQ      0.136000
     14 H6         -1.7720    0.0810    1.2140 ha        1 CAQ      0.135000
@<TRIPOS>BOND
     1    1    2 ar  
     2    1    8 ar  
     3    1    9 1   
     4    2    3 ar  
     5    2   10 1   
     6    3    4 1   
     7    3    5 ar  
     8    4   11 1   
     9    5    6 1   
    10    5    7 ar  
    11    6   12 1   
    12    7    8 ar  
    13    7   13 1   
    14    8   14 1   
@<TRIPOS>SUBSTRUCTURE
     1 CAQ         1 TEMP              0 ****  ****    0 ROOT
