@<TRIPOS>MOLECULE
CAQ
   14    11     1     0     0
SMALL
bcc


@<TRIPOS>ATOM
      1 C1         -1.0580    0.0000   -1.4110 c1        1 CAQ     -0.129000
      2 C2          0.3280    0.0000   -1.4110 c1        1 CAQ     -0.133000
      3 C3          1.0210    0.0000   -0.2110 c1        1 CAQ      0.066000
      4 O3          2.4280   -0.0260   -0.2110 o         1 CAQ     -0.249000
      5 C4          0.3280    0.0000    0.9900 c2        1 CAQ     -0.007000
      6 O4          1.0320    0.0250    2.2080 oh        1 CAQ     -0.272000
      7 C5         -1.0580    0.0000    0.9900 c1        1 CAQ     -0.169000
      8 C6         -1.7510    0.0000   -0.2110 c1        1 CAQ     -0.129000
      9 H1         -1.5460    0.0000   -2.2560 ha        1 CAQ      0.135500
     10 H2          0.8160    0.0000   -2.2560 ha        1 CAQ      0.153000
     11 HO3         2.7390    0.7750   -0.4360 ho        1 CAQ      0.236000
     12 HO4         0.9910   -0.7760    2.5900 ho        1 CAQ      0.228000
     13 H5         -1.5460    0.0000    1.8350 ha        1 CAQ      0.134000
     14 H6         -2.7270    0.0000   -0.2110 ha        1 CAQ      0.135500
@<TRIPOS>BOND
     1    1    8 1   
     2    1    9 1   
     3    2    3 1   
     4    2   10 1   
     5    3    5 1   
     6    4   11 1   
     7    5    6 1   
     8    5    7 1   
     9    6   12 1   
    10    7   13 1   
    11    8   14 1   
@<TRIPOS>SUBSTRUCTURE
     1 CAQ         1 TEMP              0 ****  ****    0 ROOT
