@<TRIPOS>MOLECULE
CAQ
   14    14     1     0     0
SMALL
bcc


@<TRIPOS>ATOM
      1 C1          0.6880   -0.0150   -1.9630 ca        1 CAQ     -0.129000
      2 C2          1.4680    0.0650   -0.8110 ca        1 CAQ     -0.151000
      3 C3          0.8460    0.0710    0.4440 ca        1 CAQ      0.074600
      4 O3          1.6550    0.1520    1.5520 oh        1 CAQ     -0.506600
      5 C4         -0.5610   -0.0050    0.5270 ca        1 CAQ      0.074600
      6 O4         -1.0970    0.0060    1.8000 oh        1 CAQ     -0.506600
      7 C5         -1.3340   -0.0850   -0.6340 ca        1 CAQ     -0.151000
      8 C6         -0.7020   -0.0900   -1.8770 ca        1 CAQ     -0.129000
      9 H1          1.1770   -0.0200   -2.9480 ha        1 CAQ      0.135500
     10 H2          2.5640    0.1250   -0.8670 ha        1 CAQ      0.143500
     11 HO3         1.0870    0.1460    2.3380 ho        1 CAQ      0.433000
     12 HO4        -2.0590   -0.0500    1.7150 ho        1 CAQ      0.433000
     13 H5         -2.4290   -0.1440   -0.5640 ha        1 CAQ      0.143500
     14 H6         -1.3070   -0.1540   -2.7930 ha        1 CAQ      0.135500
@<TRIPOS>BOND
     1    1    2 ar  
     2    1    8 ar  
     3    1    9 1   
     4    2    3 ar  
     5    2   10 1   
     6    3    4 1   
     7    3    5 ar  
     8    4   11 1   
     9    5    6 1   
    10    5    7 ar  
    11    6   12 1   
    12    7    8 ar  
    13    7   13 1   
    14    8   14 1   
@<TRIPOS>SUBSTRUCTURE
     1 CAQ         1 TEMP              0 ****  ****    0 ROOT
