@<TRIPOS>MOLECULE
CAR
   33    32     1     0     0
SMALL
bcc


@<TRIPOS>ATOM
      1 P           3.2750   -3.1970    1.6150 p3        1 CAR      2.533000
      2 OP1         4.2870   -3.9460    0.7860 o         1 CAR     -1.239000
      3 OP2         3.8680   -2.8470    2.9080 os        1 CAR     -1.230000
      4 OP3         2.0160   -4.1000    1.8470 o         1 CAR     -1.239000
      5 O5'         2.8420   -1.8700    0.8540 os        1 CAR     -0.735000
      6 C5'         1.7020   -1.1290    1.3560 c3        1 CAR      0.064000
      7 C4'         1.9080    0.3730    1.1010 c3        1 CAR     -0.030000
      8 O4'         1.4680    0.7420   -0.3260 os        1 CAR     -0.303000
      9 C3'         1.1550    1.0550    1.8690 c3        1 CAR     -0.071000
     10 O3'         1.7870    2.3140    2.1900 oh        1 CAR     -0.357000
     11 C2'        -0.2310    1.3240    1.0300 c3        1 CAR      0.041000
     12 O2'        -1.1270    0.1370    1.1210 oh        1 CAR     -0.381000
     13 C1'         0.1170    1.5170   -0.1610 c3        1 CAR      0.103000
     14 N1         -0.9000    0.9690   -1.0930 n         1 CAR     -0.231000
     15 C2         -0.5070   -0.0180   -2.0970 c2        1 CAR      0.340000
     16 O2          0.6410   -0.2880   -2.2480 o         1 CAR     -0.409000
     17 N3         -1.5170   -0.6100   -2.9750 n2        1 CAR     -0.338000
     18 C4         -2.8410   -0.1040   -2.9750 c1        1 CAR      0.178000
     19 N4         -3.7750   -0.5650   -3.9280 n2        1 CAR     -0.331000
     20 C5         -3.2250    0.9440   -2.0200 c2        1 CAR     -0.393000
     21 C6         -2.2270    1.4840   -1.0850 c2        1 CAR      0.106000
     22 H5'         0.8860   -1.4320    0.8970 h1        1 CAR      0.039500
     23 H5''        1.6110   -1.2850    2.3170 h1        1 CAR      0.039500
     24 H4'         2.8800    0.6270    1.2450 h1        1 CAR      0.083000
     25 H3'         0.9620    0.5490    2.6910 h1        1 CAR      0.226000
     26 HO3'        1.7300    2.4610    3.0600 ho        1 CAR      0.203000
     27 H2'        -0.7140    2.1690    1.4030 h1        1 CAR      0.092000
     28 HO2'       -1.5680    0.1410    1.9510 ho        1 CAR      0.302000
     29 H1'         0.2570    2.5210   -0.3330 h2        1 CAR      0.127000
     30 HN41       -3.5280   -1.2000   -4.5440 hn        1 CAR      0.179500
     31 HN42       -4.6260   -0.1850   -3.9670 hn        1 CAR      0.179500
     32 H5         -4.1340    1.2920   -2.0180 ha        1 CAR      0.155000
     33 H6         -2.4700    2.1550   -0.4730 h4        1 CAR      0.297000
@<TRIPOS>BOND
     1    1    2 1   
     2    1    4 1   
     3    1    5 1   
     4    5    6 1   
     5    6    7 1   
     6    6   22 1   
     7    6   23 1   
     8    7    8 1   
     9    7    9 1   
    10    7   24 1   
    11    8   13 1   
    12    9   10 1   
    13    9   11 1   
    14    9   25 1   
    15   10   26 1   
    16   11   12 1   
    17   11   13 1   
    18   11   27 1   
    19   12   28 1   
    20   13   14 1   
    21   13   29 1   
    22   14   15 1   
    23   14   21 1   
    24   15   16 1   
    25   15   17 1   
    26   17   18 1   
    27   18   20 1   
    28   19   30 1   
    29   19   31 1   
    30   20   21 1   
    31   20   32 1   
    32   21   33 1   
@<TRIPOS>SUBSTRUCTURE
     1 CAR         1 TEMP              0 ****  ****    0 ROOT
