@<TRIPOS>MOLECULE
CAR
   33    34     1     0     0
SMALL
bcc


@<TRIPOS>ATOM
      1 P           0.4930    1.2690   -2.6820 p5        1 CAR      1.340900
      2 OP1         0.7780    1.5900   -1.2240 o         1 CAR     -0.926167
      3 OP2         1.5870    1.5000   -3.6710 o         1 CAR     -0.926167
      4 OP3        -0.9360    1.6120   -3.0240 o         1 CAR     -0.926167
      5 O5'         0.2960   -0.4530   -2.6100 os        1 CAR     -0.569200
      6 C5'         0.2860   -1.0560   -1.3850 c3        1 CAR      0.225400
      7 C4'        -1.1370   -1.2270   -0.7960 c3        1 CAR      0.065100
      8 O4'        -1.0230   -1.7620    0.5440 os        1 CAR     -0.439600
      9 C3'        -1.9390    0.0840   -0.7070 c3        1 CAR      0.071100
     10 O3'        -3.0340    0.0830   -1.5950 oh        1 CAR     -0.646800
     11 C2'        -2.4250    0.1730    0.7490 c3        1 CAR      0.112100
     12 O2'        -2.4220    1.4790    1.2730 oh        1 CAR     -0.609800
     13 C1'        -1.4960   -0.8260    1.5140 c3        1 CAR      0.258500
     14 N1         -0.3820   -0.2180    2.2490 n         1 CAR     -0.357000
     15 C2         -0.1450   -0.6150    3.6130 c         1 CAR      0.825900
     16 O2         -0.9520   -1.4020    4.1670 o         1 CAR     -0.686500
     17 N3          0.9670   -0.1300    4.3190 nc        1 CAR     -0.761100
     18 C4          1.7800    0.7500    3.7030 cd        1 CAR      0.704500
     19 N4          2.8580    1.3090    4.4150 nh        1 CAR     -0.893800
     20 C5          1.5620    1.1800    2.3450 cd        1 CAR     -0.456600
     21 C6          0.4850    0.6580    1.6530 cc        1 CAR      0.079600
     22 H5'         0.9220   -0.4950   -0.6440 h1        1 CAR     -0.003800
     23 H5''        0.7070   -2.1010   -1.4900 h1        1 CAR     -0.003800
     24 H4'        -1.7080   -1.9990   -1.3760 h1        1 CAR      0.051700
     25 H3'        -1.2500    0.9600   -0.9620 h1        1 CAR      0.157700
     26 HO3'       -2.7050    0.5510   -2.3920 ho        1 CAR      0.477000
     27 H2'        -3.4860   -0.1820    0.8550 h1        1 CAR      0.071700
     28 HO2'       -1.6970    1.9640    0.8500 ho        1 CAR      0.428000
     29 H1'        -2.0860   -1.4390    2.2580 h2        1 CAR      0.097700
     30 HN41        3.1480    0.8060    5.2240 hn        1 CAR      0.388300
     31 HN42        3.6110    1.5810    3.8230 hn        1 CAR      0.388300
     32 H5          2.2250    1.8920    1.8410 ha        1 CAR      0.168000
     33 H6          0.3290    0.9560    0.5640 h4        1 CAR      0.296000
@<TRIPOS>BOND
     1    1    2 1   
     2    1    3 1   
     3    1    4 1   
     4    1    5 1   
     5    5    6 1   
     6    6    7 1   
     7    6   22 1   
     8    6   23 1   
     9    7    8 1   
    10    7    9 1   
    11    7   24 1   
    12    8   13 1   
    13    9   10 1   
    14    9   11 1   
    15    9   25 1   
    16   10   26 1   
    17   11   12 1   
    18   11   13 1   
    19   11   27 1   
    20   12   28 1   
    21   13   14 1   
    22   13   29 1   
    23   14   15 1   
    24   14   21 1   
    25   15   16 2   
    26   15   17 1   
    27   17   18 2   
    28   18   19 1   
    29   18   20 1   
    30   19   30 1   
    31   19   31 1   
    32   20   21 2   
    33   20   32 1   
    34   21   33 1   
@<TRIPOS>SUBSTRUCTURE
     1 CAR         1 TEMP              0 ****  ****    0 ROOT
