@<TRIPOS>MOLECULE
CAT
   50    49     1     0     0
SMALL
bcc


@<TRIPOS>ATOM
      1 C1          0.1090   -0.0010   -0.0530 c3        1 CAT      0.113800
      2 C2          1.6310    0.0000   -0.0580 c3        1 CAT     -0.103400
      3 C3          2.1270    0.0000    1.3770 c3        1 CAT     -0.080400
      4 C4          3.6420    0.0010    1.4160 c3        1 CAT     -0.079400
      5 C5          4.1450    0.0010    2.8440 c3        1 CAT     -0.079400
      6 C6          5.6590    0.0020    2.8880 c3        1 CAT     -0.079400
      7 C7          6.1640    0.0020    4.3150 c3        1 CAT     -0.079400
      8 C8          7.6770    0.0020    4.3590 c3        1 CAT     -0.079400
      9 C9          8.1830    0.0030    5.7860 c3        1 CAT     -0.079400
     10 C10         9.6960    0.0030    5.8310 c3        1 CAT     -0.079400
     11 C11        10.2040    0.0040    7.2580 c3        1 CAT     -0.079400
     12 C12        11.7100    0.0040    7.3080 c3        1 CAT     -0.093100
     13 CA1        -0.1550   -1.2180   -2.1820 c3        1 CAT      0.089100
     14 CB1        -2.0290   -0.0020   -1.2200 c3        1 CAT      0.089100
     15 CC1        -0.1580    1.2190   -2.1800 c3        1 CAT      0.089100
     16 NE1        -0.5460   -0.0000   -1.4140 n4        1 CAT     -0.604800
     17 H11        -0.2620   -0.9170    0.4900 hx        1 CAT      0.098700
     18 H12        -0.2630    0.9160    0.4910 hx        1 CAT      0.098700
     19 H21         2.0280   -0.9070   -0.5850 hc        1 CAT      0.064700
     20 H22         2.0270    0.9070   -0.5860 hc        1 CAT      0.064700
     21 H31         1.7380   -0.9040    1.9140 hc        1 CAT      0.054700
     22 H32         1.7380    0.9050    1.9140 hc        1 CAT      0.054700
     23 H41         4.0340    0.9040    0.8790 hc        1 CAT      0.047700
     24 H42         4.0350   -0.9030    0.8790 hc        1 CAT      0.047700
     25 H51         3.7540   -0.9020    3.3820 hc        1 CAT      0.045700
     26 H52         3.7530    0.9040    3.3820 hc        1 CAT      0.045700
     27 H61         6.0510    0.9050    2.3500 hc        1 CAT      0.042700
     28 H62         6.0510   -0.9010    2.3500 hc        1 CAT      0.042700
     29 H71         5.7720   -0.9010    4.8530 hc        1 CAT      0.042700
     30 H72         5.7710    0.9050    4.8530 hc        1 CAT      0.042700
     31 H81         8.0690    0.9050    3.8210 hc        1 CAT      0.041700
     32 H82         8.0700   -0.9000    3.8210 hc        1 CAT      0.041700
     33 H91         7.7900    0.9050    6.3240 hc        1 CAT      0.040700
     34 H92         7.7910   -0.9000    6.3250 hc        1 CAT      0.040700
     35 H101       10.0890   -0.8990    5.2930 hc        1 CAT      0.040700
     36 H102       10.0890    0.9060    5.2930 hc        1 CAT      0.040700
     37 H111        9.8090   -0.8990    7.7950 hc        1 CAT      0.039700
     38 H112        9.8080    0.9060    7.7950 hc        1 CAT      0.039700
     39 H121       12.1220   -0.9010    6.7990 hc        1 CAT      0.035033
     40 H122       12.0620    0.0040    8.3670 hc        1 CAT      0.035033
     41 H123       12.1210    0.9090    6.7990 hc        1 CAT      0.035033
     42 HA11       -0.3920   -2.1320   -1.5760 hx        1 CAT      0.101700
     43 HA12        0.9460   -1.1870   -2.4020 hx        1 CAT      0.101700
     44 HA13       -0.7260   -1.2460   -3.1480 hx        1 CAT      0.101700
     45 HB11       -2.3310    0.9140   -0.6470 hx        1 CAT      0.101700
     46 HB12       -2.5350   -0.0020   -2.2220 hx        1 CAT      0.101700
     47 HB13       -2.3290   -0.9200   -0.6490 hx        1 CAT      0.101700
     48 HC11       -0.3970    2.1320   -1.5740 hx        1 CAT      0.101700
     49 HC12       -0.7280    1.2480   -3.1470 hx        1 CAT      0.101700
     50 HC13        0.9430    1.1910   -2.4000 hx        1 CAT      0.101700
@<TRIPOS>BOND
     1    1    2 1   
     2    1   16 1   
     3    1   17 1   
     4    1   18 1   
     5    2    3 1   
     6    2   19 1   
     7    2   20 1   
     8    3    4 1   
     9    3   21 1   
    10    3   22 1   
    11    4    5 1   
    12    4   23 1   
    13    4   24 1   
    14    5    6 1   
    15    5   25 1   
    16    5   26 1   
    17    6    7 1   
    18    6   27 1   
    19    6   28 1   
    20    7    8 1   
    21    7   29 1   
    22    7   30 1   
    23    8    9 1   
    24    8   31 1   
    25    8   32 1   
    26    9   10 1   
    27    9   33 1   
    28    9   34 1   
    29   10   11 1   
    30   10   35 1   
    31   10   36 1   
    32   11   12 1   
    33   11   37 1   
    34   11   38 1   
    35   12   39 1   
    36   12   40 1   
    37   12   41 1   
    38   13   16 1   
    39   13   42 1   
    40   13   43 1   
    41   13   44 1   
    42   14   16 1   
    43   14   45 1   
    44   14   46 1   
    45   14   47 1   
    46   15   16 1   
    47   15   48 1   
    48   15   49 1   
    49   15   50 1   
@<TRIPOS>SUBSTRUCTURE
     1 CAT         1 TEMP              0 ****  ****    0 ROOT
