@<TRIPOS>MOLECULE
CAT
   50    49     1     0     0
SMALL
bcc


@<TRIPOS>ATOM
      1 C1          0.1080   -0.0000   -0.0530 c3        1 CAT      0.113800
      2 C2          1.6310   -0.0000   -0.0580 c3        1 CAT     -0.103400
      3 C3          2.1270    0.0000    1.3770 c3        1 CAT     -0.080400
      4 C4          3.6410    0.0010    1.4170 c3        1 CAT     -0.079400
      5 C5          4.1440    0.0010    2.8450 c3        1 CAT     -0.079400
      6 C6          5.6580    0.0020    2.8890 c3        1 CAT     -0.079400
      7 C7          6.1630    0.0010    4.3160 c3        1 CAT     -0.079400
      8 C8          7.6760    0.0030    4.3600 c3        1 CAT     -0.079400
      9 C9          8.1830    0.0010    5.7860 c3        1 CAT     -0.079400
     10 C10         9.6960    0.0040    5.8310 c3        1 CAT     -0.079400
     11 C11        10.2050    0.0020    7.2570 c3        1 CAT     -0.079400
     12 C12        11.7110    0.0040    7.3060 c3        1 CAT     -0.093100
     13 CA1        -0.1540   -1.2180   -2.1820 c3        1 CAT      0.089100
     14 CB1        -2.0290   -0.0020   -1.2210 c3        1 CAT      0.089100
     15 CC1        -0.1570    1.2190   -2.1810 c3        1 CAT      0.089100
     16 NE1        -0.5460   -0.0000   -1.4140 n4        1 CAT     -0.604800
     17 H11        -0.2630   -0.9160    0.4910 hx        1 CAT      0.098700
     18 H12        -0.2630    0.9160    0.4900 hx        1 CAT      0.098700
     19 H21         2.0270   -0.9080   -0.5840 hc        1 CAT      0.064700
     20 H22         2.0270    0.9070   -0.5850 hc        1 CAT      0.064700
     21 H31         1.7370   -0.9040    1.9150 hc        1 CAT      0.054700
     22 H32         1.7370    0.9050    1.9150 hc        1 CAT      0.054700
     23 H41         4.0330    0.9050    0.8800 hc        1 CAT      0.047700
     24 H42         4.0340   -0.9020    0.8800 hc        1 CAT      0.047700
     25 H51         3.7520    0.9040    3.3840 hc        1 CAT      0.045700
     26 H52         3.7540   -0.9030    3.3830 hc        1 CAT      0.045700
     27 H61         6.0510   -0.9000    2.3500 hc        1 CAT      0.042700
     28 H62         6.0500    0.9060    2.3520 hc        1 CAT      0.042700
     29 H71         5.7700    0.9030    4.8550 hc        1 CAT      0.042700
     30 H72         5.7720   -0.9030    4.8530 hc        1 CAT      0.042700
     31 H81         8.0680    0.9070    3.8230 hc        1 CAT      0.041700
     32 H82         8.0700   -0.8980    3.8200 hc        1 CAT      0.041700
     33 H91         7.7900    0.9030    6.3260 hc        1 CAT      0.040700
     34 H92         7.7920   -0.9030    6.3230 hc        1 CAT      0.040700
     35 H101       10.0900   -0.8970    5.2910 hc        1 CAT      0.040700
     36 H102       10.0870    0.9080    5.2940 hc        1 CAT      0.040700
     37 H111        9.8120   -0.9020    7.7920 hc        1 CAT      0.039700
     38 H112        9.8080    0.9030    7.7960 hc        1 CAT      0.039700
     39 H121       12.0640    0.0030    8.3650 hc        1 CAT      0.035033
     40 H122       12.1240   -0.8990    6.7950 hc        1 CAT      0.035033
     41 H123       12.1210    0.9110    6.7990 hc        1 CAT      0.035033
     42 HA11       -0.7250   -1.2470   -3.1480 hx        1 CAT      0.101700
     43 HA12        0.9460   -1.1870   -2.4020 hx        1 CAT      0.101700
     44 HA13       -0.3920   -2.1320   -1.5760 hx        1 CAT      0.101700
     45 HB11       -2.5350   -0.0010   -2.2230 hx        1 CAT      0.101700
     46 HB12       -2.3310    0.9150   -0.6480 hx        1 CAT      0.101700
     47 HB13       -2.3300   -0.9200   -0.6500 hx        1 CAT      0.101700
     48 HC11       -0.7270    1.2470   -3.1480 hx        1 CAT      0.101700
     49 HC12       -0.3970    2.1320   -1.5750 hx        1 CAT      0.101700
     50 HC13        0.9440    1.1910   -2.4000 hx        1 CAT      0.101700
@<TRIPOS>BOND
     1    1    2 1   
     2    1   16 1   
     3    1   17 1   
     4    1   18 1   
     5    2    3 1   
     6    2   19 1   
     7    2   20 1   
     8    3    4 1   
     9    3   21 1   
    10    3   22 1   
    11    4    5 1   
    12    4   23 1   
    13    4   24 1   
    14    5    6 1   
    15    5   25 1   
    16    5   26 1   
    17    6    7 1   
    18    6   27 1   
    19    6   28 1   
    20    7    8 1   
    21    7   29 1   
    22    7   30 1   
    23    8    9 1   
    24    8   31 1   
    25    8   32 1   
    26    9   10 1   
    27    9   33 1   
    28    9   34 1   
    29   10   11 1   
    30   10   35 1   
    31   10   36 1   
    32   11   12 1   
    33   11   37 1   
    34   11   38 1   
    35   12   39 1   
    36   12   40 1   
    37   12   41 1   
    38   13   16 1   
    39   13   42 1   
    40   13   43 1   
    41   13   44 1   
    42   14   16 1   
    43   14   45 1   
    44   14   46 1   
    45   14   47 1   
    46   15   16 1   
    47   15   48 1   
    48   15   49 1   
    49   15   50 1   
@<TRIPOS>SUBSTRUCTURE
     1 CAT         1 TEMP              0 ****  ****    0 ROOT
