@<TRIPOS>MOLECULE
CAT
   50    49     1     0     0
SMALL
bcc


@<TRIPOS>ATOM
      1 C1          0.1080    0.0000   -0.0520 c3        1 CAT      0.113800
      2 C2          1.6300   -0.0010   -0.0570 c3        1 CAT     -0.103400
      3 C3          2.1270    0.0010    1.3770 c3        1 CAT     -0.080400
      4 C4          3.6410    0.0000    1.4160 c3        1 CAT     -0.079400
      5 C5          4.1450    0.0020    2.8440 c3        1 CAT     -0.079400
      6 C6          5.6590    0.0010    2.8870 c3        1 CAT     -0.079400
      7 C7          6.1640    0.0030    4.3140 c3        1 CAT     -0.079400
      8 C8          7.6770    0.0020    4.3580 c3        1 CAT     -0.079400
      9 C9          8.1840    0.0030    5.7850 c3        1 CAT     -0.079400
     10 C10         9.6970    0.0030    5.8300 c3        1 CAT     -0.079400
     11 C11        10.2050    0.0040    7.2560 c3        1 CAT     -0.079400
     12 C12        11.7110    0.0030    7.3050 c3        1 CAT     -0.093100
     13 CA1        -0.1550   -1.2180   -2.1810 c3        1 CAT      0.089100
     14 CB1        -2.0300   -0.0020   -1.2180 c3        1 CAT      0.089100
     15 CC1        -0.1590    1.2200   -2.1790 c3        1 CAT      0.089100
     16 NE1        -0.5470   -0.0000   -1.4120 n4        1 CAT     -0.604800
     17 H11        -0.2630   -0.9160    0.4920 hx        1 CAT      0.098700
     18 H12        -0.2630    0.9170    0.4920 hx        1 CAT      0.098700
     19 H21         2.0260   -0.9090   -0.5830 hc        1 CAT      0.064700
     20 H22         2.0270    0.9050   -0.5860 hc        1 CAT      0.064700
     21 H31         1.7370   -0.9020    1.9170 hc        1 CAT      0.054700
     22 H32         1.7380    0.9070    1.9140 hc        1 CAT      0.054700
     23 H41         4.0340    0.9030    0.8780 hc        1 CAT      0.047700
     24 H42         4.0330   -0.9050    0.8810 hc        1 CAT      0.047700
     25 H51         3.7530   -0.9000    3.3840 hc        1 CAT      0.045700
     26 H52         3.7550    0.9060    3.3810 hc        1 CAT      0.045700
     27 H61         6.0520    0.9030    2.3480 hc        1 CAT      0.042700
     28 H62         6.0500   -0.9030    2.3510 hc        1 CAT      0.042700
     29 H71         5.7720   -0.8990    4.8540 hc        1 CAT      0.042700
     30 H72         5.7730    0.9060    4.8520 hc        1 CAT      0.042700
     31 H81         8.0700    0.9030    3.8190 hc        1 CAT      0.041700
     32 H82         8.0690   -0.9020    3.8210 hc        1 CAT      0.041700
     33 H91         7.7920    0.9070    6.3220 hc        1 CAT      0.040700
     34 H92         7.7910   -0.8980    6.3250 hc        1 CAT      0.040700
     35 H101       10.0890   -0.9010    5.2920 hc        1 CAT      0.040700
     36 H102       10.0900    0.9040    5.2900 hc        1 CAT      0.040700
     37 H111        9.8100   -0.8980    7.7940 hc        1 CAT      0.039700
     38 H112        9.8110    0.9070    7.7920 hc        1 CAT      0.039700
     39 H121       12.1220   -0.9030    6.7970 hc        1 CAT      0.035033
     40 H122       12.0640    0.0040    8.3640 hc        1 CAT      0.035033
     41 H123       12.1230    0.9070    6.7950 hc        1 CAT      0.035033
     42 HA11       -0.3910   -2.1320   -1.5750 hx        1 CAT      0.101700
     43 HA12        0.9450   -1.1860   -2.4010 hx        1 CAT      0.101700
     44 HA13       -0.7270   -1.2470   -3.1470 hx        1 CAT      0.101700
     45 HB11       -2.3330    0.9140   -0.6450 hx        1 CAT      0.101700
     46 HB12       -2.5370   -0.0020   -2.2200 hx        1 CAT      0.101700
     47 HB13       -2.3300   -0.9210   -0.6480 hx        1 CAT      0.101700
     48 HC11       -0.3990    2.1330   -1.5730 hx        1 CAT      0.101700
     49 HC12       -0.7300    1.2480   -3.1460 hx        1 CAT      0.101700
     50 HC13        0.9410    1.1920   -2.3980 hx        1 CAT      0.101700
@<TRIPOS>BOND
     1    1    2 1   
     2    1   16 1   
     3    1   17 1   
     4    1   18 1   
     5    2    3 1   
     6    2   19 1   
     7    2   20 1   
     8    3    4 1   
     9    3   21 1   
    10    3   22 1   
    11    4    5 1   
    12    4   23 1   
    13    4   24 1   
    14    5    6 1   
    15    5   25 1   
    16    5   26 1   
    17    6    7 1   
    18    6   27 1   
    19    6   28 1   
    20    7    8 1   
    21    7   29 1   
    22    7   30 1   
    23    8    9 1   
    24    8   31 1   
    25    8   32 1   
    26    9   10 1   
    27    9   33 1   
    28    9   34 1   
    29   10   11 1   
    30   10   35 1   
    31   10   36 1   
    32   11   12 1   
    33   11   37 1   
    34   11   38 1   
    35   12   39 1   
    36   12   40 1   
    37   12   41 1   
    38   13   16 1   
    39   13   42 1   
    40   13   43 1   
    41   13   44 1   
    42   14   16 1   
    43   14   45 1   
    44   14   46 1   
    45   14   47 1   
    46   15   16 1   
    47   15   48 1   
    48   15   49 1   
    49   15   50 1   
@<TRIPOS>SUBSTRUCTURE
     1 CAT         1 TEMP              0 ****  ****    0 ROOT
