@<TRIPOS>MOLECULE
CAT
   50    49     1     0     0
SMALL
bcc


@<TRIPOS>ATOM
      1 C1         -4.6620    0.6120   -0.0020 c3        1 CAT      0.113800
      2 C2         -3.4450   -0.3010    0.0010 c3        1 CAT     -0.103400
      3 C3         -2.1890    0.5540   -0.0020 c3        1 CAT     -0.080400
      4 C4         -0.9510   -0.3190    0.0010 c3        1 CAT     -0.079400
      5 C5          0.3050    0.5260   -0.0020 c3        1 CAT     -0.079400
      6 C6          1.5450   -0.3430    0.0010 c3        1 CAT     -0.079400
      7 C7          2.8030    0.5000   -0.0020 c3        1 CAT     -0.079400
      8 C8          4.0430   -0.3670    0.0010 c3        1 CAT     -0.079400
      9 C9          5.3010    0.4750   -0.0020 c3        1 CAT     -0.079400
     10 C10         6.5420   -0.3920    0.0020 c3        1 CAT     -0.079400
     11 C11         7.8010    0.4490   -0.0020 c3        1 CAT     -0.079400
     12 C12         9.0380   -0.4100    0.0020 c3        1 CAT     -0.093100
     13 CA1        -6.1460   -0.9320    1.2220 c3        1 CAT      0.089100
     14 CB1        -7.0740    0.9530   -0.0040 c3        1 CAT      0.089100
     15 CC1        -6.1460   -0.9410   -1.2150 c3        1 CAT      0.089100
     16 NE1        -6.0000   -0.0880    0.0000 n4        1 CAT     -0.604800
     17 H11        -4.6350    1.2730    0.9120 hx        1 CAT      0.098700
     18 H12        -4.6350    1.2670   -0.9210 hx        1 CAT      0.098700
     19 H21        -3.4410   -0.9640   -0.9040 hc        1 CAT      0.064700
     20 H22        -3.4410   -0.9570    0.9110 hc        1 CAT      0.064700
     21 H31        -2.1810    1.2210    0.9000 hc        1 CAT      0.054700
     22 H32        -2.1810    1.2140   -0.9090 hc        1 CAT      0.054700
     23 H41        -0.9570   -0.9870   -0.9000 hc        1 CAT      0.047700
     24 H42        -0.9570   -0.9810    0.9070 hc        1 CAT      0.047700
     25 H51         0.3130    1.1950    0.8990 hc        1 CAT      0.045700
     26 H52         0.3130    1.1880   -0.9070 hc        1 CAT      0.045700
     27 H61         1.5390   -1.0120   -0.8990 hc        1 CAT      0.042700
     28 H62         1.5390   -1.0050    0.9070 hc        1 CAT      0.042700
     29 H71         2.8100    1.1700    0.8990 hc        1 CAT      0.042700
     30 H72         2.8100    1.1630   -0.9070 hc        1 CAT      0.042700
     31 H81         4.0370   -1.0370   -0.8990 hc        1 CAT      0.041700
     32 H82         4.0370   -1.0300    0.9070 hc        1 CAT      0.041700
     33 H91         5.3080    1.1450    0.8990 hc        1 CAT      0.040700
     34 H92         5.3080    1.1380   -0.9070 hc        1 CAT      0.040700
     35 H101        6.5350   -1.0620   -0.8990 hc        1 CAT      0.040700
     36 H102        6.5350   -1.0550    0.9060 hc        1 CAT      0.040700
     37 H111        7.8040    1.1190    0.8990 hc        1 CAT      0.039700
     38 H112        7.8040    1.1130   -0.9060 hc        1 CAT      0.039700
     39 H121        9.0650   -1.0610    0.9090 hc        1 CAT      0.035033
     40 H122        9.0650   -1.0670   -0.9010 hc        1 CAT      0.035033
     41 H123        9.9540    0.2290   -0.0010 hc        1 CAT      0.035033
     42 HA11       -5.9750   -0.3000    2.1330 hx        1 CAT      0.101700
     43 HA12       -7.1810   -1.3660    1.2520 hx        1 CAT      0.101700
     44 HA13       -5.3940   -1.7660    1.1950 hx        1 CAT      0.101700
     45 HB11       -6.9740    1.5880   -0.9230 hx        1 CAT      0.101700
     46 HB12       -8.0790    0.4510   -0.0020 hx        1 CAT      0.101700
     47 HB13       -6.9740    1.5950    0.9120 hx        1 CAT      0.101700
     48 HC11       -5.3940   -1.7740   -1.1830 hx        1 CAT      0.101700
     49 HC12       -7.1810   -1.3750   -1.2420 hx        1 CAT      0.101700
     50 HC13       -5.9750   -0.3160   -2.1310 hx        1 CAT      0.101700
@<TRIPOS>BOND
     1    1    2 1   
     2    1   16 1   
     3    1   17 1   
     4    1   18 1   
     5    2    3 1   
     6    2   19 1   
     7    2   20 1   
     8    3    4 1   
     9    3   21 1   
    10    3   22 1   
    11    4    5 1   
    12    4   23 1   
    13    4   24 1   
    14    5    6 1   
    15    5   25 1   
    16    5   26 1   
    17    6    7 1   
    18    6   27 1   
    19    6   28 1   
    20    7    8 1   
    21    7   29 1   
    22    7   30 1   
    23    8    9 1   
    24    8   31 1   
    25    8   32 1   
    26    9   10 1   
    27    9   33 1   
    28    9   34 1   
    29   10   11 1   
    30   10   35 1   
    31   10   36 1   
    32   11   12 1   
    33   11   37 1   
    34   11   38 1   
    35   12   39 1   
    36   12   40 1   
    37   12   41 1   
    38   13   16 1   
    39   13   42 1   
    40   13   43 1   
    41   13   44 1   
    42   14   16 1   
    43   14   45 1   
    44   14   46 1   
    45   14   47 1   
    46   15   16 1   
    47   15   48 1   
    48   15   49 1   
    49   15   50 1   
@<TRIPOS>SUBSTRUCTURE
     1 CAT         1 TEMP              0 ****  ****    0 ROOT
