@<TRIPOS>MOLECULE
CAT
   50    49     1     0     0
SMALL
bcc


@<TRIPOS>ATOM
      1 C1         -4.3350   -0.0180   -2.3140 c3        1 CAT      0.113800
      2 C2         -2.7900   -0.0180   -2.3140 c3        1 CAT     -0.103400
      3 C3         -2.2710   -0.0180   -0.8450 c3        1 CAT     -0.080400
      4 C4         -0.7240   -0.0270   -0.8430 c3        1 CAT     -0.079400
      5 C5         -0.2110   -0.0110    0.6150 c3        1 CAT     -0.079400
      6 C6          1.3360   -0.0270    0.6180 c3        1 CAT     -0.079400
      7 C7          1.8490    0.0040    2.0760 c3        1 CAT     -0.079400
      8 C8          3.3940   -0.0160    2.0780 c3        1 CAT     -0.079400
      9 C9          3.9080    0.0300    3.5310 c3        1 CAT     -0.079400
     10 C10         5.4430    0.0080    3.5330 c3        1 CAT     -0.079400
     11 C11         5.9510    0.0680    4.9740 c3        1 CAT     -0.079400
     12 C12         7.4760    0.0440    4.9780 c3        1 CAT     -0.093100
     13 CA1        -4.3380   -1.1680   -4.3610 c3        1 CAT      0.089100
     14 CB1        -6.2500   -0.0150   -3.6820 c3        1 CAT      0.089100
     15 CC1        -4.3460    1.1600   -4.3450 c3        1 CAT      0.089100
     16 NE1        -4.8180   -0.0100   -3.6810 n4        1 CAT     -0.604800
     17 H11        -4.6600   -0.8180   -1.8590 hx        1 CAT      0.098700
     18 H12        -4.6600    0.7760   -1.8500 hx        1 CAT      0.098700
     19 H21        -2.4650   -0.8150   -2.7750 hc        1 CAT      0.064700
     20 H22        -2.4650    0.7790   -2.7750 hc        1 CAT      0.064700
     21 H31        -2.6010   -0.8120   -0.3830 hc        1 CAT      0.054700
     22 H32        -2.5920    0.7810   -0.3860 hc        1 CAT      0.054700
     23 H41        -0.3940    0.7620   -1.3130 hc        1 CAT      0.047700
     24 H42        -0.4030   -0.8310   -1.2930 hc        1 CAT      0.047700
     25 H51        -0.5450   -0.7980    1.0860 hc        1 CAT      0.045700
     26 H52        -0.5290    0.7950    1.0630 hc        1 CAT      0.045700
     27 H61         1.6540   -0.8390    0.1790 hc        1 CAT      0.042700
     28 H62         1.6700    0.7550    0.1390 hc        1 CAT      0.042700
     29 H71         1.5130   -0.7760    2.5560 hc        1 CAT      0.042700
     30 H72         1.5340    0.8170    2.5150 hc        1 CAT      0.042700
     31 H81         3.7300    0.7600    1.5900 hc        1 CAT      0.041700
     32 H82         3.7090   -0.8330    1.6470 hc        1 CAT      0.041700
     33 H91         3.5710   -0.7450    4.0200 hc        1 CAT      0.040700
     34 H92         3.5940    0.8470    3.9620 hc        1 CAT      0.040700
     35 H101        5.7810    0.7770    3.0360 hc        1 CAT      0.040700
     36 H102        5.7580   -0.8150    3.1110 hc        1 CAT      0.040700
     37 H111        5.6120   -0.7010    5.4700 hc        1 CAT      0.039700
     38 H112        5.6370    0.8910    5.3950 hc        1 CAT      0.039700
     39 H121        7.7890   -0.7790    4.5580 hc        1 CAT      0.035033
     40 H122        7.7990    0.0830    5.8990 hc        1 CAT      0.035033
     41 H123        7.8150    0.8130    4.4810 hc        1 CAT      0.035033
     42 HA11       -3.4160   -1.0200   -4.6460 hx        1 CAT      0.101700
     43 HA12       -4.3740   -1.9370   -3.7610 hx        1 CAT      0.101700
     44 HA13       -4.8970   -1.3400   -5.1440 hx        1 CAT      0.101700
     45 HB11       -6.5730   -0.8160   -3.2290 hx        1 CAT      0.101700
     46 HB12       -6.5740   -0.0090   -4.6030 hx        1 CAT      0.101700
     47 HB13       -6.5780    0.7780   -3.2170 hx        1 CAT      0.101700
     48 HC11       -3.4240    1.0220   -4.6330 hx        1 CAT      0.101700
     49 HC12       -4.9060    1.3410   -5.1230 hx        1 CAT      0.101700
     50 HC13       -4.3850    1.9200   -3.7330 hx        1 CAT      0.101700
@<TRIPOS>BOND
     1    1    2 1   
     2    1   16 1   
     3    1   17 1   
     4    1   18 1   
     5    2    3 1   
     6    2   19 1   
     7    2   20 1   
     8    3    4 1   
     9    3   21 1   
    10    3   22 1   
    11    4    5 1   
    12    4   23 1   
    13    4   24 1   
    14    5    6 1   
    15    5   25 1   
    16    5   26 1   
    17    6    7 1   
    18    6   27 1   
    19    6   28 1   
    20    7    8 1   
    21    7   29 1   
    22    7   30 1   
    23    8    9 1   
    24    8   31 1   
    25    8   32 1   
    26    9   10 1   
    27    9   33 1   
    28    9   34 1   
    29   10   11 1   
    30   10   35 1   
    31   10   36 1   
    32   11   12 1   
    33   11   37 1   
    34   11   38 1   
    35   12   39 1   
    36   12   40 1   
    37   12   41 1   
    38   13   16 1   
    39   13   42 1   
    40   13   43 1   
    41   13   44 1   
    42   14   16 1   
    43   14   45 1   
    44   14   46 1   
    45   14   47 1   
    46   15   16 1   
    47   15   48 1   
    48   15   49 1   
    49   15   50 1   
@<TRIPOS>SUBSTRUCTURE
     1 CAT         1 TEMP              0 ****  ****    0 ROOT
