@<TRIPOS>MOLECULE
CAU
   44    46     1     0     0
SMALL
bcc


@<TRIPOS>ATOM
      1 O17         2.6210   -0.4990   -2.1860 oh        1 CAU     -0.586800
      2 C16         2.5530    0.2190   -0.9680 c3        1 CAU      0.090100
      3 C18         3.8970    0.9140   -0.6620 c3        1 CAU      0.132800
      4 N19         5.0670    0.0750   -0.7070 n3        1 CAU     -0.811200
      5 C20         5.2860   -0.7350    0.4940 c3        1 CAU      0.170500
      6 C21         6.1050   -1.9920    0.1950 c3        1 CAU     -0.094600
      7 C22         5.9950    0.0620    1.5900 c3        1 CAU     -0.094600
      8 C15         1.4340    1.2650   -0.9900 c3        1 CAU      0.099400
      9 O14         0.2600    0.5840   -0.5340 os        1 CAU     -0.317900
     10 C13        -0.8880    1.3470   -0.4560 ca        1 CAU      0.180100
     11 C12        -0.9670    2.7060   -0.7890 ca        1 CAU     -0.240000
     12 C11        -2.1780    3.3930   -0.6680 ca        1 CAU     -0.067000
     13 C10        -3.3390    2.7760   -0.2160 ca        1 CAU     -0.190000
     14 C8         -3.2680    1.4180    0.1200 ca        1 CAU      0.015800
     15 C9         -2.0330    0.6810   -0.0060 cp        1 CAU     -0.106000
     16 N7         -4.2650    0.5810    0.6560 na        1 CAU     -0.180300
     17 C3         -3.7170   -0.7160    0.7610 ca        1 CAU     -0.025200
     18 C4         -2.3180   -0.6820    0.4000 cp        1 CAU     -0.056000
     19 C2         -4.3140   -1.9050    1.1880 ca        1 CAU     -0.155000
     20 C1         -3.5150   -3.0460    1.2560 ca        1 CAU     -0.106000
     21 C6         -2.1600   -3.0150    0.9120 ca        1 CAU     -0.159000
     22 C5         -1.5510   -1.8360    0.4820 ca        1 CAU     -0.072000
     23 H17         2.8030    0.1370   -2.8890 ho        1 CAU      0.397000
     24 H16         2.3210   -0.5740   -0.2000 h1        1 CAU      0.100700
     25 H181        4.0530    1.7260   -1.4310 h1        1 CAU      0.056200
     26 H182        3.8210    1.4000    0.3500 h1        1 CAU      0.056200
     27 H191        5.0310   -0.5190   -1.5170 hn        1 CAU      0.370800
     28 H20         4.2910   -1.0790    0.9190 h1        1 CAU      0.020700
     29 H211        7.1110   -1.7250   -0.2070 hc        1 CAU      0.039200
     30 H212        6.2410   -2.5710    1.1400 hc        1 CAU      0.039200
     31 H213        5.5830   -2.6430   -0.5470 hc        1 CAU      0.039200
     32 H221        7.0050    0.3920    1.2500 hc        1 CAU      0.039200
     33 H222        5.4040    0.9640    1.8750 hc        1 CAU      0.039200
     34 H223        6.1130   -0.5860    2.4920 hc        1 CAU      0.039200
     35 H151        1.6660    2.1150   -0.2950 h1        1 CAU      0.047200
     36 H152        1.2660    1.6530   -2.0280 h1        1 CAU      0.047200
     37 H12        -0.0820    3.2470   -1.1500 ha        1 CAU      0.135000
     38 H11        -2.2100    4.4600   -0.9400 ha        1 CAU      0.132000
     39 H10        -4.2780    3.3360   -0.1220 ha        1 CAU      0.138000
     40 H7         -5.2280    0.7380    0.4980 hn        1 CAU      0.287700
     41 H2         -5.3750   -1.9430    1.4660 ha        1 CAU      0.135000
     42 H1         -3.9650   -3.9930    1.5890 ha        1 CAU      0.130000
     43 H6         -1.5650   -3.9380    0.9790 ha        1 CAU      0.132000
     44 H5         -0.4850   -1.8070    0.2080 ha        1 CAU      0.151000
@<TRIPOS>BOND
     1    1    2 1   
     2    1   23 1   
     3    2    3 1   
     4    2    8 1   
     5    2   24 1   
     6    3    4 1   
     7    3   25 1   
     8    3   26 1   
     9    4    5 1   
    10    4   27 1   
    11    5    6 1   
    12    5    7 1   
    13    5   28 1   
    14    6   29 1   
    15    6   30 1   
    16    6   31 1   
    17    7   32 1   
    18    7   33 1   
    19    7   34 1   
    20    8    9 1   
    21    8   35 1   
    22    8   36 1   
    23    9   10 1   
    24   10   11 ar  
    25   10   15 ar  
    26   11   12 ar  
    27   11   37 1   
    28   12   13 ar  
    29   12   38 1   
    30   13   14 ar  
    31   13   39 1   
    32   14   15 ar  
    33   14   16 1   
    34   15   18 1   
    35   16   17 1   
    36   16   40 1   
    37   17   18 ar  
    38   17   19 ar  
    39   18   22 ar  
    40   19   20 ar  
    41   19   41 1   
    42   20   21 ar  
    43   20   42 1   
    44   21   22 ar  
    45   21   43 1   
    46   22   44 1   
@<TRIPOS>SUBSTRUCTURE
     1 CAU         1 TEMP              0 ****  ****    0 ROOT
