@<TRIPOS>MOLECULE
CAU
   45    47     1     0     0
SMALL
bcc


@<TRIPOS>ATOM
      1 O17         1.0750   -0.3610   -0.8940 oh        1 CAU     -0.639800
      2 C16         2.3880    0.0300   -0.5340 c3        1 CAU      0.097100
      3 C18         2.3840    0.2090    0.9960 c3        1 CAU      0.101800
      4 N19         1.2480    1.0590    1.4500 ny        1 CAU     -0.762000
      5 C20         1.1530    1.1620    2.9560 c3        1 CAU      0.133500
      6 C21         0.4080    2.4280    3.3590 c3        1 CAU     -0.133600
      7 C22         0.4740   -0.0610    3.5550 c3        1 CAU     -0.133600
      8 C15         3.4360   -1.0260   -0.9130 c3        1 CAU      0.098400
      9 O14         3.4750   -1.0980   -2.3360 os        1 CAU     -0.325900
     10 C13         2.9270   -2.2630   -2.8730 ca        1 CAU      0.112100
     11 C12         3.4560   -3.5200   -2.5630 ca        1 CAU     -0.185000
     12 C11         2.9490   -4.6660   -3.1840 ca        1 CAU     -0.080000
     13 C10         1.9130   -4.6020   -4.1120 ca        1 CAU     -0.151000
     14 C8          1.3840   -3.3450   -4.4260 ca        1 CAU      0.012800
     15 C9          1.8950   -2.1410   -3.8020 cp        1 CAU     -0.100000
     16 N7          0.3220   -3.0110   -5.2820 na        1 CAU     -0.180300
     17 C3          0.2100   -1.6090   -5.3040 ca        1 CAU     -0.003200
     18 C4          1.1520   -1.0330   -4.3700 cp        1 CAU     -0.092000
     19 C2         -0.6570   -0.7920   -6.0380 ca        1 CAU     -0.144000
     20 C1         -0.5760    0.5830   -5.8430 ca        1 CAU     -0.091000
     21 C6          0.3400    1.1470   -4.9450 ca        1 CAU     -0.155000
     22 C5          1.2080    0.3460   -4.2070 ca        1 CAU     -0.094000
     23 H17         1.1010   -0.6700   -1.8180 ho        1 CAU      0.471000
     24 H16         2.6360    1.0030   -1.0480 h1        1 CAU      0.072700
     25 H181        2.2800   -0.7980    1.4920 hx        1 CAU      0.108700
     26 H182        3.3510    0.6860    1.3170 hx        1 CAU      0.108700
     27 H191        0.3760    0.6540    1.0770 hn        1 CAU      0.459800
     28 H20         2.2180    1.2240    3.3360 hx        1 CAU      0.102700
     29 H211        0.4060    2.4910    4.4760 hc        1 CAU      0.078867
     30 H212       -0.6540    2.4060    3.0110 hc        1 CAU      0.078867
     31 H213        0.9060    3.3460    2.9620 hc        1 CAU      0.078867
     32 H221       -0.5880   -0.1460    3.2160 hc        1 CAU      0.078867
     33 H222        0.4760    0.0490    4.6700 hc        1 CAU      0.078867
     34 H223        1.0150   -1.0040    3.2990 hc        1 CAU      0.078867
     35 H151        4.4580   -0.6790   -0.6030 h1        1 CAU      0.074700
     36 H152        3.1960   -2.0130   -0.4440 h1        1 CAU      0.074700
     37 H12         4.2840   -3.6040   -1.8450 ha        1 CAU      0.143000
     38 H11         3.3870   -5.6460   -2.9350 ha        1 CAU      0.148000
     39 H10         1.5270   -5.5150   -4.5870 ha        1 CAU      0.153000
     40 H7         -0.0030   -3.5990   -6.0070 hn        1 CAU      0.306700
     41 H2         -1.3760   -1.2200   -6.7510 ha        1 CAU      0.149000
     42 H1         -1.2440    1.2460   -6.4160 ha        1 CAU      0.144000
     43 H6          0.3810    2.2400   -4.8350 ha        1 CAU      0.136000
     44 H5          1.9440    0.7880   -3.5200 ha        1 CAU      0.129000
     45 H192        1.3510    1.9990    1.0530 hn        1 CAU      0.459800
@<TRIPOS>BOND
     1    1    2 1   
     2    1   23 1   
     3    2    3 1   
     4    2    8 1   
     5    2   24 1   
     6    3    4 1   
     7    3   25 1   
     8    3   26 1   
     9    4    5 1   
    10    4   27 1   
    11    4   45 1   
    12    5    6 1   
    13    5    7 1   
    14    5   28 1   
    15    6   29 1   
    16    6   30 1   
    17    6   31 1   
    18    7   32 1   
    19    7   33 1   
    20    7   34 1   
    21    8    9 1   
    22    8   35 1   
    23    8   36 1   
    24    9   10 1   
    25   10   11 ar  
    26   10   15 ar  
    27   11   12 ar  
    28   11   37 1   
    29   12   13 ar  
    30   12   38 1   
    31   13   14 ar  
    32   13   39 1   
    33   14   15 ar  
    34   14   16 1   
    35   15   18 1   
    36   16   17 1   
    37   16   40 1   
    38   17   18 ar  
    39   17   19 ar  
    40   18   22 ar  
    41   19   20 ar  
    42   19   41 1   
    43   20   21 ar  
    44   20   42 1   
    45   21   22 ar  
    46   21   43 1   
    47   22   44 1   
@<TRIPOS>SUBSTRUCTURE
     1 CAU         1 TEMP              0 ****  ****    0 ROOT
