@<TRIPOS>MOLECULE
CAU
   44    37     1     0     0
SMALL
bcc


@<TRIPOS>ATOM
      1 O17        -1.8930    0.4980    1.6260 oh        1 CAU     -0.333000
      2 C16        -0.5200    0.5480    1.4790 c3        1 CAU      0.033000
      3 C18         0.1450    0.6800    2.8720 c3        1 CAU     -0.115000
      4 N19        -0.2040    1.9340    3.4590 n3        1 CAU     -0.312000
      5 C20         0.5330    2.1010    4.7000 c3        1 CAU     -0.021000
      6 C21         1.3110    3.4370    4.6610 c3        1 CAU     -0.213000
      7 C22        -0.4550    2.1030    5.8790 c3        1 CAU     -0.213000
      8 C15        -0.0350   -0.7340    0.8030 c3        1 CAU     -0.025000
      9 O14        -0.5690   -0.7950   -0.5580 os        1 CAU     -0.214000
     10 C13         0.0070   -1.8060   -1.3550 c1        1 CAU      0.139000
     11 C12         0.4220   -3.0020   -0.6710 c1        1 CAU     -0.142250
     12 C11         0.8040   -4.1390   -1.4080 c1        1 CAU     -0.142250
     13 C10         0.7800   -4.1050   -2.7950 c1        1 CAU     -0.133000
     14 C8          0.3640   -2.9060   -3.4780 c1        1 CAU      0.003500
     15 C9         -0.0170   -1.7720   -2.7370 c1        1 CAU     -0.109000
     16 N7          0.3540   -2.5690   -4.7940 n1        1 CAU     -0.222000
     17 C3         -0.0380   -1.2060   -4.8950 c1        1 CAU      0.022000
     18 C4         -0.2610   -0.7360   -3.6310 c1        1 CAU      0.003500
     19 C2         -0.3260   -0.3780   -6.0230 c1        1 CAU     -0.155000
     20 C1         -0.8310    0.9040   -5.8340 c1        1 CAU     -0.142250
     21 C6         -1.0560    1.3760   -4.5510 c1        1 CAU     -0.142250
     22 C5         -0.7720    0.5590   -3.4400 c1        1 CAU     -0.133000
     23 H17        -2.2410    1.1700    1.2510 ho        1 CAU      0.224000
     24 H16        -0.2860    1.3030    0.9380 h1        1 CAU      0.092000
     25 H181        1.0690    0.6280    2.7820 h1        1 CAU      0.088000
     26 H182       -0.1560   -0.0250    3.4310 h1        1 CAU      0.088000
     27 H191        0.0060    2.6030    2.8910 hn        1 CAU      0.156000
     28 H20         1.1600    1.3680    4.8050 h1        1 CAU      0.061000
     29 H211        2.0430    3.3460    4.1080 hc        1 CAU      0.079000
     30 H212        0.7350    4.1400    4.3200 hc        1 CAU      0.079000
     31 H213        1.6090    3.6670    5.5620 hc        1 CAU      0.079000
     32 H221       -1.1030    2.7680    5.7430 hc        1 CAU      0.079000
     33 H222       -0.9460    1.1220    5.9490 hc        1 CAU      0.079000
     34 H223        0.0220    2.2820    6.6960 hc        1 CAU      0.079000
     35 H151       -0.3450   -1.4910    1.3030 h1        1 CAU      0.097000
     36 H152        1.0050   -0.7410    0.7710 h1        1 CAU      0.097000
     37 H12         0.4430   -3.0250    0.3220 ha        1 CAU      0.133500
     38 H11         1.0820   -4.9470   -0.9460 ha        1 CAU      0.133500
     39 H10         1.0530   -4.9130   -3.3210 ha        1 CAU      0.141500
     40 H7          0.6200   -3.1110   -5.4950 DU        1 CAU      0.239000
     41 H2         -0.1630   -0.7200   -6.9510 ha        1 CAU      0.135000
     42 H1         -1.0180    1.4420   -6.5660 ha        1 CAU      0.133500
     43 H6         -1.3910    2.2280   -4.4240 ha        1 CAU      0.133500
     44 H5         -0.9430    0.9140   -2.4780 ha        1 CAU      0.141500
@<TRIPOS>BOND
     1    1    2 1   
     2    1   23 1   
     3    2    3 1   
     4    2    8 1   
     5    2   24 1   
     6    3    4 1   
     7    3   25 1   
     8    3   26 1   
     9    4    5 1   
    10    4   27 1   
    11    5    6 1   
    12    5    7 1   
    13    5   28 1   
    14    6   29 1   
    15    6   30 1   
    16    6   31 1   
    17    7   32 1   
    18    7   33 1   
    19    7   34 1   
    20    8    9 1   
    21    8   35 1   
    22    8   36 1   
    23    9   10 1   
    24   10   15 1   
    25   11   12 1   
    26   11   37 1   
    27   12   38 1   
    28   13   14 1   
    29   13   39 1   
    30   16   17 1   
    31   17   19 1   
    32   18   22 1   
    33   19   41 1   
    34   20   21 1   
    35   20   42 1   
    36   21   43 1   
    37   22   44 1   
@<TRIPOS>SUBSTRUCTURE
     1 CAU         1 TEMP              0 ****  ****    0 ROOT
