@<TRIPOS>MOLECULE
CAU
   45    47     1     0     0
SMALL
bcc


@<TRIPOS>ATOM
      1 O17         0.2080    0.1630   -0.1220 oh        1 CAU     -0.637800
      2 C16         1.6180    0.0130   -0.1150 c3        1 CAU      0.123100
      3 C18         2.0620    0.1010    1.3580 c3        1 CAU      0.097800
      4 N19         1.4870    1.2960    2.0370 n4        1 CAU     -0.762000
      5 C20         1.8210    1.3550    3.5100 c3        1 CAU      0.133500
      6 C21         1.7350    2.7890    4.0190 c3        1 CAU     -0.134100
      7 C22         0.9060    0.4530    4.3250 c3        1 CAU     -0.134100
      8 C15         2.0580   -1.3400   -0.6860 c3        1 CAU      0.100400
      9 O14         1.5110   -1.3500   -2.0030 os        1 CAU     -0.344900
     10 C13         1.9320   -2.3920   -2.8230 ca        1 CAU      0.159100
     11 C12         2.6400   -3.5090   -2.3710 ca        1 CAU     -0.234000
     12 C11         3.0030   -4.5190   -3.2710 ca        1 CAU     -0.065000
     13 C10         2.6810   -4.4560   -4.6210 ca        1 CAU     -0.172000
     14 C8          1.9680   -3.3370   -5.0770 ca        1 CAU      0.033800
     15 C9          1.5790   -2.2770   -4.1700 cp        1 CAU     -0.100000
     16 N7          1.5360   -3.0200   -6.3660 na        1 CAU     -0.189300
     17 C3          0.8480   -1.7970   -6.3160 ca        1 CAU     -0.002200
     18 C4          0.8630   -1.2960   -4.9580 cp        1 CAU     -0.072000
     19 C2          0.2230   -1.0750   -7.3390 ca        1 CAU     -0.148000
     20 C1         -0.3810    0.1330   -7.0040 ca        1 CAU     -0.093000
     21 C6         -0.3700    0.6230   -5.6910 ca        1 CAU     -0.158000
     22 C5          0.2490   -0.0850   -4.6640 ca        1 CAU     -0.079000
     23 H17        -0.1250   -0.1890   -0.9630 ho        1 CAU      0.472000
     24 H16         2.0750    0.8470   -0.7210 h1        1 CAU      0.076700
     25 H181        3.1860    0.1580    1.4050 hx        1 CAU      0.110200
     26 H182        1.7100   -0.8140    1.9150 hx        1 CAU      0.110200
     27 H191        1.8340    2.1450    1.5770 hn        1 CAU      0.459800
     28 H20         2.8900    0.9920    3.6070 hx        1 CAU      0.103700
     29 H211        2.0410    2.7950    5.0960 hc        1 CAU      0.079200
     30 H212        0.6930    3.1860    3.9510 hc        1 CAU      0.079200
     31 H213        2.4250    3.4680    3.4610 hc        1 CAU      0.079200
     32 H221       -0.1580    0.7910    4.2680 hc        1 CAU      0.079200
     33 H222        1.2300    0.5010    5.3960 hc        1 CAU      0.079200
     34 H223        0.9690   -0.6110    3.9920 hc        1 CAU      0.079200
     35 H151        1.6230   -2.1880   -0.0940 h1        1 CAU      0.064700
     36 H152        3.1760   -1.4140   -0.7160 h1        1 CAU      0.064700
     37 H12         2.9150   -3.6160   -1.3140 ha        1 CAU      0.129000
     38 H11         3.5600   -5.3900   -2.8920 ha        1 CAU      0.143000
     39 H10         2.9770   -5.2590   -5.3100 ha        1 CAU      0.151000
     40 H7          1.6050   -3.6070   -7.1550 hn        1 CAU      0.312700
     41 H2          0.2060   -1.4480   -8.3720 ha        1 CAU      0.146000
     42 H1         -0.8800    0.7190   -7.7920 ha        1 CAU      0.141000
     43 H6         -0.8600    1.5830   -5.4730 ha        1 CAU      0.134000
     44 H5          0.2580    0.2970   -3.6340 ha        1 CAU      0.124000
     45 H192        0.4630    1.2700    1.9170 hn        1 CAU      0.459800
@<TRIPOS>BOND
     1    1    2 1   
     2    1   23 1   
     3    2    3 1   
     4    2    8 1   
     5    2   24 1   
     6    3    4 1   
     7    3   25 1   
     8    3   26 1   
     9    4    5 1   
    10    4   27 1   
    11    4   45 1   
    12    5    6 1   
    13    5    7 1   
    14    5   28 1   
    15    6   29 1   
    16    6   30 1   
    17    6   31 1   
    18    7   32 1   
    19    7   33 1   
    20    7   34 1   
    21    8    9 1   
    22    8   35 1   
    23    8   36 1   
    24    9   10 1   
    25   10   11 ar  
    26   10   15 ar  
    27   11   12 ar  
    28   11   37 1   
    29   12   13 ar  
    30   12   38 1   
    31   13   14 ar  
    32   13   39 1   
    33   14   15 ar  
    34   14   16 1   
    35   15   18 1   
    36   16   17 1   
    37   16   40 1   
    38   17   18 ar  
    39   17   19 ar  
    40   18   22 ar  
    41   19   20 ar  
    42   19   41 1   
    43   20   21 ar  
    44   20   42 1   
    45   21   22 ar  
    46   21   43 1   
    47   22   44 1   
@<TRIPOS>SUBSTRUCTURE
     1 CAU         1 TEMP              0 ****  ****    0 ROOT
