@<TRIPOS>MOLECULE
CAU
   45    47     1     0     0
SMALL
bcc


@<TRIPOS>ATOM
      1 O17         1.0770   -0.3560   -0.8960 oh        1 CAU     -0.639800
      2 C16         2.3940    0.0250   -0.5380 c3        1 CAU      0.097100
      3 C18         2.3930    0.2120    0.9900 c3        1 CAU      0.101800
      4 N19         1.2650    1.0750    1.4420 n4        1 CAU     -0.762000
      5 C20         1.1730    1.1870    2.9460 c3        1 CAU      0.133500
      6 C21         0.4380    2.4610    3.3430 c3        1 CAU     -0.133600
      7 C22         0.4840   -0.0270    3.5540 c3        1 CAU     -0.133600
      8 C15         3.4330   -1.0410   -0.9130 c3        1 CAU      0.098400
      9 O14         3.4700   -1.1210   -2.3350 os        1 CAU     -0.325900
     10 C13         2.9110   -2.2840   -2.8660 ca        1 CAU      0.112100
     11 C12         3.4290   -3.5450   -2.5500 ca        1 CAU     -0.185000
     12 C11         2.9110   -4.6890   -3.1640 ca        1 CAU     -0.080000
     13 C10         1.8750   -4.6210   -4.0920 ca        1 CAU     -0.151000
     14 C8          1.3570   -3.3600   -4.4120 ca        1 CAU      0.012800
     15 C9          1.8790   -2.1590   -3.7950 cp        1 CAU     -0.100000
     16 N7          0.2980   -3.0220   -5.2690 na        1 CAU     -0.180300
     17 C3          0.1990   -1.6190   -5.2980 ca        1 CAU     -0.003200
     18 C4          1.1460   -1.0470   -4.3680 cp        1 CAU     -0.092000
     19 C2         -0.6620   -0.7980   -6.0360 ca        1 CAU     -0.144000
     20 C1         -0.5690    0.5780   -5.8480 ca        1 CAU     -0.091000
     21 C6          0.3530    1.1370   -4.9540 ca        1 CAU     -0.155000
     22 C5          1.2140    0.3330   -4.2120 ca        1 CAU     -0.094000
     23 H17         1.1010   -0.6700   -1.8170 ho        1 CAU      0.471000
     24 H16         2.6500    0.9930   -1.0580 h1        1 CAU      0.072700
     25 H181        2.2810   -0.7910    1.4920 hx        1 CAU      0.108700
     26 H182        3.3650    0.6830    1.3080 hx        1 CAU      0.108700
     27 H191        1.3760    2.0120    1.0390 hn        1 CAU      0.459800
     28 H20         2.2390    1.2420    3.3250 hx        1 CAU      0.102700
     29 H211        0.9440    3.3730    2.9400 hc        1 CAU      0.078867
     30 H212       -0.6240    2.4470    2.9960 hc        1 CAU      0.078867
     31 H213        0.4390    2.5310    4.4600 hc        1 CAU      0.078867
     32 H221        0.4880    0.0900    4.6670 hc        1 CAU      0.078867
     33 H222        1.0180   -0.9750    3.3020 hc        1 CAU      0.078867
     34 H223       -0.5780   -0.1050    3.2160 hc        1 CAU      0.078867
     35 H151        4.4580   -0.7020   -0.6050 h1        1 CAU      0.074700
     36 H152        3.1840   -2.0240   -0.4380 h1        1 CAU      0.074700
     37 H12         4.2570   -3.6320   -1.8320 ha        1 CAU      0.143000
     38 H11         3.3400   -5.6720   -2.9110 ha        1 CAU      0.148000
     39 H10         1.4800   -5.5330   -4.5610 ha        1 CAU      0.153000
     40 H7         -0.0330   -3.6110   -5.9900 hn        1 CAU      0.306700
     41 H2         -1.3860   -1.2230   -6.7450 ha        1 CAU      0.149000
     42 H1         -1.2320    1.2430   -6.4230 ha        1 CAU      0.144000
     43 H6          0.4040    2.2310   -4.8490 ha        1 CAU      0.136000
     44 H5          1.9560    0.7710   -3.5270 ha        1 CAU      0.129000
     45 H192        0.3900    0.6750    1.0710 hn        1 CAU      0.459800
@<TRIPOS>BOND
     1    1    2 1   
     2    1   23 1   
     3    2    3 1   
     4    2    8 1   
     5    2   24 1   
     6    3    4 1   
     7    3   25 1   
     8    3   26 1   
     9    4    5 1   
    10    4   27 1   
    11    4   45 1   
    12    5    6 1   
    13    5    7 1   
    14    5   28 1   
    15    6   29 1   
    16    6   30 1   
    17    6   31 1   
    18    7   32 1   
    19    7   33 1   
    20    7   34 1   
    21    8    9 1   
    22    8   35 1   
    23    8   36 1   
    24    9   10 1   
    25   10   11 ar  
    26   10   15 ar  
    27   11   12 ar  
    28   11   37 1   
    29   12   13 ar  
    30   12   38 1   
    31   13   14 ar  
    32   13   39 1   
    33   14   15 ar  
    34   14   16 1   
    35   15   18 1   
    36   16   17 1   
    37   16   40 1   
    38   17   18 ar  
    39   17   19 ar  
    40   18   22 ar  
    41   19   20 ar  
    42   19   41 1   
    43   20   21 ar  
    44   20   42 1   
    45   21   22 ar  
    46   21   43 1   
    47   22   44 1   
@<TRIPOS>SUBSTRUCTURE
     1 CAU         1 TEMP              0 ****  ****    0 ROOT
