@<TRIPOS>MOLECULE
CAV
   48    48     1     0     0
SMALL
bcc


@<TRIPOS>ATOM
      1 N           2.3410   -0.7350   -1.1850 n3        1 CAV     -0.894800
      2 CA          0.9520   -0.6720   -0.7710 c3        1 CAV      0.107500
      3 CB         -0.0690   -1.0710   -1.8490 c3        1 CAV     -0.111400
      4 CG          0.0450   -0.2800   -3.1420 c3        1 CAV     -0.056700
      5 CD1        -0.9640   -0.8150   -4.1530 c3        1 CAV     -0.079900
      6 CD2        -0.1830    1.2060   -2.9070 c3        1 CAV     -0.079900
      7 CE1        -0.9150   -0.0370   -5.4510 c3        1 CAV     -0.072900
      8 CE2        -0.1450    1.9860   -4.2050 c3        1 CAV     -0.072900
      9 CZ         -1.1370    1.4420   -5.2120 c3        1 CAV     -0.075400
     10 CH          0.6730   -1.5370    0.4850 c3        1 CAV      0.122100
     11 OH          1.2170   -2.8430    0.3710 oh        1 CAV     -0.628800
     12 CB1         1.1850   -0.8370    1.7640 c3        1 CAV      0.125100
     13 CA'         0.0260   -0.2560    2.5700 c3        1 CAV     -0.208700
     14 CB'         0.5060    0.3510    3.8860 c3        1 CAV     -0.035700
     15 CG1         1.3940    1.5600    3.6820 c3        1 CAV     -0.090600
     16 CG2        -0.6900    0.7080    4.7480 c3        1 CAV     -0.090600
     17 OB1         1.9400   -1.7790    2.5220 oh        1 CAV     -0.623800
     18 C          -0.7780    0.7640    1.7230 c         1 CAV      0.913600
     19 O          -2.0360    0.6500    1.7280 o         1 CAV     -0.842300
     20 OXT        -0.1600    1.6490    1.0610 o         1 CAV     -0.842300
     21 H           2.5020   -0.0670   -1.9140 hn        1 CAV      0.330800
     22 H2          2.5520   -1.6480   -1.5400 hn        1 CAV      0.330800
     23 HA          0.7320    0.4020   -0.4560 h1        1 CAV      0.139700
     24 HB2         0.0440   -2.1640   -2.0750 hc        1 CAV      0.049700
     25 HB3        -1.0950   -0.9150   -1.4210 hc        1 CAV      0.049700
     26 HG          1.0730   -0.4180   -3.5810 hc        1 CAV      0.024700
     27 HD12       -0.7520   -1.8970   -4.3550 hc        1 CAV      0.051950
     28 HD13       -1.9940   -0.7480   -3.7140 hc        1 CAV      0.051950
     29 HD23       -1.1740    1.3550   -2.4010 hc        1 CAV      0.051950
     30 HD22        0.6020    1.6020   -2.2100 hc        1 CAV      0.051950
     31 HE12        0.0830   -0.1890   -5.9410 hc        1 CAV      0.028450
     32 HE13       -1.6970   -0.4270   -6.1530 hc        1 CAV      0.028450
     33 HE23        0.8880    1.9400   -4.6400 hc        1 CAV      0.028450
     34 HE22       -0.3740    3.0630   -3.9970 hc        1 CAV      0.028450
     35 HZ2        -1.0400    2.0000   -6.1790 hc        1 CAV      0.030700
     36 HZ3        -2.1800    1.6050   -4.8310 hc        1 CAV      0.030700
     37 HH         -0.4400   -1.7060    0.5620 h1        1 CAV      0.085700
     38 HO          2.1590   -2.7820    0.5800 ho        1 CAV      0.408000
     39 HB1         1.9240   -0.0280    1.5080 h1        1 CAV      0.104700
     40 HA'        -0.6790   -1.0970    2.8270 hc        1 CAV      0.037700
     41 HB'         1.1100   -0.4370    4.4240 hc        1 CAV      0.015700
     42 HG11        1.5880    2.0710    4.6560 hc        1 CAV      0.031367
     43 HG12        2.3730    1.2490    3.2450 hc        1 CAV      0.031367
     44 HG13        0.9080    2.2800    2.9760 hc        1 CAV      0.031367
     45 HG21       -1.3950    1.3550    4.1680 hc        1 CAV      0.031367
     46 HG22       -1.2380   -0.2170    5.0530 hc        1 CAV      0.031367
     47 HG23       -0.3660    1.2480    5.6690 hc        1 CAV      0.031367
     48 HOB1        1.3170   -2.4400    2.8450 ho        1 CAV      0.390000
@<TRIPOS>BOND
     1    1    2 1   
     2    1   21 1   
     3    1   22 1   
     4    2    3 1   
     5    2   10 1   
     6    2   23 1   
     7    3    4 1   
     8    3   24 1   
     9    3   25 1   
    10    4    5 1   
    11    4    6 1   
    12    4   26 1   
    13    5    7 1   
    14    5   27 1   
    15    5   28 1   
    16    6    8 1   
    17    6   29 1   
    18    6   30 1   
    19    7    9 1   
    20    7   31 1   
    21    7   32 1   
    22    8    9 1   
    23    8   33 1   
    24    8   34 1   
    25    9   35 1   
    26    9   36 1   
    27   10   11 1   
    28   10   12 1   
    29   10   37 1   
    30   11   38 1   
    31   12   13 1   
    32   12   17 1   
    33   12   39 1   
    34   13   14 1   
    35   13   18 1   
    36   13   40 1   
    37   14   15 1   
    38   14   16 1   
    39   14   41 1   
    40   15   42 1   
    41   15   43 1   
    42   15   44 1   
    43   16   45 1   
    44   16   46 1   
    45   16   47 1   
    46   17   48 1   
    47   18   19 1   
    48   18   20 1   
@<TRIPOS>SUBSTRUCTURE
     1 CAV         1 TEMP              0 ****  ****    0 ROOT
