@<TRIPOS>MOLECULE
CAV
   48    48     1     0     0
SMALL
bcc


@<TRIPOS>ATOM
      1 N          -1.8740    0.3630    0.3450 n3        1 CAV     -0.904800
      2 CA         -0.4550    0.2640    0.3450 c3        1 CAV      0.157500
      3 CB          0.0500    0.2560    1.7700 c3        1 CAV     -0.116400
      4 CG          0.1600    1.5220    2.2140 c3        1 CAV     -0.062700
      5 CD1        -0.5760    1.7280    3.6060 c3        1 CAV     -0.074400
      6 CD2         1.6470    1.8480    2.7380 c3        1 CAV     -0.074400
      7 CE1        -0.4440    3.1430    4.1470 c3        1 CAV     -0.073900
      8 CE2         1.7940    3.2530    3.2640 c3        1 CAV     -0.073900
      9 CZ          0.5870    3.8000    3.5700 c3        1 CAV     -0.073400
     10 CH         -0.0390   -1.0160   -0.3430 c3        1 CAV      0.100100
     11 OH         -0.5660   -2.1180    0.3580 oh        1 CAV     -0.638800
     12 CB1        -0.5670   -1.0210   -1.7590 c3        1 CAV      0.134100
     13 CA'         0.2850   -1.9350   -2.6110 c3        1 CAV     -0.182700
     14 CB'        -0.5840   -2.6110   -3.6510 c3        1 CAV     -0.049700
     15 CG1        -0.1160   -2.2150   -5.0340 c3        1 CAV     -0.081100
     16 CG2        -0.4830   -4.1120   -3.4940 c3        1 CAV     -0.081100
     17 OB1        -1.8980   -1.4810   -1.7620 oh        1 CAV     -0.625800
     18 C           1.3580   -1.1240   -3.3020 c         1 CAV      0.906600
     19 O           2.5410   -1.5550   -3.3460 o         1 CAV     -0.840800
     20 OXT         1.0720   -0.0150   -3.8250 o         1 CAV     -0.840800
     21 H          -2.1230    1.1830    0.0210 hn        1 CAV      0.337800
     22 H2         -2.1870    0.2650    1.2000 hn        1 CAV      0.337800
     23 HA         -0.0750    1.0280   -0.1310 h1        1 CAV      0.084700
     24 HB2         0.9270   -0.1790    1.8040 hc        1 CAV      0.058700
     25 HB3        -0.5810   -0.2350    2.3370 hc        1 CAV      0.058700
     26 HG         -0.1390    2.1720    1.5480 hc        1 CAV      0.049700
     27 HD12       -1.5260    1.5230    3.4930 hc        1 CAV      0.041200
     28 HD13       -0.1950    1.1070    4.2580 hc        1 CAV      0.041200
     29 HD23        1.8730    1.2200    3.4530 hc        1 CAV      0.041200
     30 HD22        2.2750    1.7220    1.9990 hc        1 CAV      0.041200
     31 HE12       -0.2970    3.1030    5.1150 hc        1 CAV      0.029700
     32 HE13       -1.2740    3.6320    3.9690 hc        1 CAV      0.029700
     33 HE23        2.2320    3.8050    2.5840 hc        1 CAV      0.029700
     34 HE22        2.3500    3.2360    4.0700 hc        1 CAV      0.029700
     35 HZ2         0.2370    4.1660    2.7290 hc        1 CAV      0.033200
     36 HZ3         0.7790    4.5660    4.1530 hc        1 CAV      0.033200
     37 HH          0.9360   -1.0750   -0.3590 h1        1 CAV      0.103700
     38 HO          0.1010   -2.6120    0.6790 ho        1 CAV      0.417000
     39 HB1        -0.5350   -0.1130   -2.1220 h1        1 CAV      0.058700
     40 HA'         0.7010   -2.6120   -2.0460 hc        1 CAV      0.046700
     41 HB'        -1.5120   -2.3330   -3.5300 hc        1 CAV      0.062700
     42 HG11       -0.5460   -2.7910   -5.7010 hc        1 CAV      0.022367
     43 HG12       -0.3560   -1.2810   -5.2060 hc        1 CAV      0.022367
     44 HG13        0.8570   -2.3180   -5.0910 hc        1 CAV      0.022367
     45 HG21       -0.8070   -4.3710   -2.6060 hc        1 CAV      0.022367
     46 HG22        0.4520   -4.3890   -3.5940 hc        1 CAV      0.022367
     47 HG23       -1.0290   -4.5500   -4.1810 hc        1 CAV      0.022367
     48 HOB1       -2.4310   -0.8430   -2.0770 ho        1 CAV      0.395000
@<TRIPOS>BOND
     1    1    2 1   
     2    1   21 1   
     3    1   22 1   
     4    2    3 1   
     5    2   10 1   
     6    2   23 1   
     7    3    4 1   
     8    3   24 1   
     9    3   25 1   
    10    4    5 1   
    11    4    6 1   
    12    4   26 1   
    13    5    7 1   
    14    5   27 1   
    15    5   28 1   
    16    6    8 1   
    17    6   29 1   
    18    6   30 1   
    19    7    9 1   
    20    7   31 1   
    21    7   32 1   
    22    8    9 1   
    23    8   33 1   
    24    8   34 1   
    25    9   35 1   
    26    9   36 1   
    27   10   11 1   
    28   10   12 1   
    29   10   37 1   
    30   11   38 1   
    31   12   13 1   
    32   12   17 1   
    33   12   39 1   
    34   13   14 1   
    35   13   18 1   
    36   13   40 1   
    37   14   15 1   
    38   14   16 1   
    39   14   41 1   
    40   15   42 1   
    41   15   43 1   
    42   15   44 1   
    43   16   45 1   
    44   16   46 1   
    45   16   47 1   
    46   17   48 1   
    47   18   19 1   
    48   18   20 1   
@<TRIPOS>SUBSTRUCTURE
     1 CAV         1 TEMP              0 ****  ****    0 ROOT
