@<TRIPOS>MOLECULE
CAW
   49    50     1     0     0
SMALL
bcc


@<TRIPOS>ATOM
      1 C9        528.2350 -198.7120  559.5630 ca        1 CAW      0.049000
      2 C14       529.1360 -198.9800  560.5880 ca        1 CAW     -0.181000
      3 C13       529.8530 -200.1730  560.6040 ca        1 CAW      0.064000
      4 C12       529.6870 -201.1390  559.5860 ca        1 CAW     -0.090000
      5 C18       530.4190 -202.3590  559.6000 ca        1 CAW     -0.060000
      6 C17       530.2460 -203.2900  558.6010 ca        1 CAW     -0.122000
      7 C16       529.3370 -203.0420  557.5480 ca        1 CAW     -0.020000
      8 C15       528.6130 -201.8660  557.5080 ca        1 CAW     -0.182000
      9 C11       528.7730 -200.8960  558.5210 ca        1 CAW      0.058000
     10 C10       528.0440 -199.6550  558.5290 ca        1 CAW     -0.206000
     11 C8        527.1510 -199.3880  557.5150 c1        1 CAW      0.450000
     12 O8        526.3970 -199.1610  556.6590 o         1 CAW      0.052000
     13 N2       -338.5380  128.8730 -352.8110 n         1 CAW     -0.373000
     14 C7       -338.6420  127.5310 -352.6600 c2        1 CAW      0.345000
     15 O7       -338.1510  126.8220 -351.7760 o         1 CAW     -0.245000
     16 N1       -339.4500  126.7400 -353.6990 n4        1 CAW     -0.103000
     17 C1       -340.8990  127.1410 -353.7500 c3        1 CAW      0.064000
     18 O5       -341.6080  125.9060 -353.7600 os        1 CAW     -0.274000
     19 C5       -343.0350  126.0820 -353.6640 c3        1 CAW     -0.032000
     20 C6       -343.6000  124.6530 -353.6660 c3        1 CAW     -0.013000
     21 O6       -343.3660  124.0180 -352.4350 oh        1 CAW     -0.296000
     22 C4       -343.5490  126.9060 -354.8560 c3        1 CAW     -0.032000
     23 O4       -344.8920  127.2940 -354.6350 oh        1 CAW     -0.312000
     24 C3       -342.7650  128.2280 -354.9740 c3        1 CAW      0.005000
     25 O3       -343.0660  128.9000 -356.1800 oh        1 CAW     -0.324000
     26 C2       -341.2590  127.9290 -355.0360 c3        1 CAW     -0.001000
     27 O2       -340.4760  129.1050 -355.0340 oh        1 CAW     -0.371000
     28 H9        527.6710 -197.7620  559.5610 ha        1 CAW      0.171000
     29 H14       529.2800 -198.2380  561.3930 ha        1 CAW      0.187000
     30 H13       530.5670 -200.3750  561.4250 ha        1 CAW      0.178000
     31 H18       531.1270 -202.5440  560.4260 ha        1 CAW      0.167000
     32 H17       530.8140 -204.2360  558.6110 ha        1 CAW      0.174000
     33 H16       529.2110 -203.7990  556.7550 ha        1 CAW      0.171000
     34 H15       527.9080 -201.6860  556.6820 ha        1 CAW      0.141000
     35 H2       -338.9710  129.3780 -353.5510 hn        1 CAW      0.289000
     36 H1       -339.3910  125.7420 -353.4230 hn        1 CAW      0.275000
     37 HA       -341.1440  127.7380 -352.8220 hx        1 CAW      0.155000
     38 HB       -341.0300  127.3250 -355.9590 h1        1 CAW      0.131000
     39 H5       -343.2770  126.6020 -352.6970 h1        1 CAW      0.119000
     40 H61C     -343.0610  124.0220 -354.4260 h1        1 CAW      0.113500
     41 H62C     -344.6940  124.7080 -353.9100 h1        1 CAW      0.113500
     42 H4       -343.4460  126.3180 -355.8100 h1        1 CAW      0.119000
     43 H6       -344.0080  124.3560 -351.7970 ho        1 CAW      0.212000
     44 HC       -345.4590  126.5650 -354.9180 ho        1 CAW      0.230000
     45 H3       -343.0030  128.8930 -354.0960 h1        1 CAW      0.117000
     46 HD       -344.0220  129.0660 -356.1800 ho        1 CAW      0.251000
     47 H2A      -340.8810  129.7250 -355.6630 ho        1 CAW      0.274000
     48 H22      -337.9800  129.3630 -352.1420 hn        1 CAW      0.289000
     49 H12      -339.0330  126.8520 -354.6280 hn        1 CAW      0.275000
@<TRIPOS>BOND
     1    1    2 1   
     2    1   10 1   
     3    1   28 1   
     4    2    3 1   
     5    2   29 1   
     6    3    4 1   
     7    3   30 1   
     8    4    5 1   
     9    4    9 1   
    10    5    6 1   
    11    5   31 1   
    12    6    7 1   
    13    6   32 1   
    14    7    8 1   
    15    7   33 1   
    16    8    9 1   
    17    8   34 1   
    18    9   10 1   
    19   10   11 1   
    20   11   12 1   
    21   13   14 1   
    22   13   35 1   
    23   13   48 1   
    24   14   15 1   
    25   14   16 1   
    26   16   17 1   
    27   16   36 1   
    28   16   49 1   
    29   17   18 1   
    30   17   26 1   
    31   17   37 1   
    32   18   19 1   
    33   19   20 1   
    34   19   22 1   
    35   19   39 1   
    36   20   21 1   
    37   20   40 1   
    38   20   41 1   
    39   21   43 1   
    40   22   23 1   
    41   22   24 1   
    42   22   42 1   
    43   23   44 1   
    44   24   25 1   
    45   24   26 1   
    46   24   45 1   
    47   25   46 1   
    48   26   27 1   
    49   26   38 1   
    50   27   47 1   
@<TRIPOS>SUBSTRUCTURE
     1 CAW         1 TEMP              0 ****  ****    0 ROOT
