@<TRIPOS>MOLECULE
CAW
   47    49     1     0     0
SMALL
bcc


@<TRIPOS>ATOM
      1 C9         -3.4250    0.4210   -2.0440 ca        1 CAW     -0.095000
      2 C14        -4.5850   -0.0100   -2.7260 ca        1 CAW     -0.141000
      3 C13        -5.7150   -0.3500   -2.0220 ca        1 CAW     -0.090000
      4 C12        -5.7360   -0.2640   -0.6030 ca        1 CAW     -0.043000
      5 C18        -6.8990   -0.6120    0.1380 ca        1 CAW     -0.118000
      6 C17        -6.9100   -0.5120    1.5070 ca        1 CAW     -0.122000
      7 C16        -5.7620   -0.0540    2.1970 ca        1 CAW     -0.116000
      8 C15        -4.6250    0.2860    1.5080 ca        1 CAW     -0.119000
      9 C11        -4.5800    0.1840    0.0900 ca        1 CAW     -0.004000
     10 C10        -3.4200    0.5160   -0.6690 ca        1 CAW     -0.138600
     11 C8         -2.1910    0.9930    0.0370 c         1 CAW      0.685700
     12 O8         -2.1590    2.0130    0.7340 o         1 CAW     -0.506100
     13 N2         -1.0600    0.1840   -0.1720 n         1 CAW     -0.610500
     14 C7          0.1970    0.4210    0.4270 c         1 CAW      0.751100
     15 O7          0.4040    1.4110    1.1530 o         1 CAW     -0.555100
     16 N1          1.2110   -0.5660    0.2390 n         1 CAW     -0.530900
     17 C1          2.5810   -0.1450    0.4470 c3        1 CAW      0.244500
     18 O5          3.1110    0.2130   -0.8470 os        1 CAW     -0.463600
     19 C5          4.4380    0.7360   -0.7810 c3        1 CAW      0.109100
     20 C6          4.8020    1.1290   -2.2160 c3        1 CAW      0.139400
     21 O6          4.0630    2.2490   -2.6470 oh        1 CAW     -0.591800
     22 C4          5.3950   -0.3410   -0.2480 c3        1 CAW      0.122100
     23 O4          6.6770    0.2520   -0.1460 oh        1 CAW     -0.592800
     24 C3          4.9100   -0.8180    1.1300 c3        1 CAW      0.108100
     25 O3          5.7580   -1.8880    1.5060 oh        1 CAW     -0.606800
     26 C2          3.4490   -1.2900    1.0420 c3        1 CAW      0.091100
     27 O2          3.0690   -1.5910    2.3720 oh        1 CAW     -0.599800
     28 H9         -2.5330    0.6930   -2.6300 ha        1 CAW      0.140000
     29 H14        -4.5680   -0.0670   -3.8240 ha        1 CAW      0.140000
     30 H13        -6.6220   -0.6910   -2.5430 ha        1 CAW      0.139000
     31 H18        -7.7880   -0.9600   -0.4110 ha        1 CAW      0.136000
     32 H17        -7.8090   -0.7810    2.0820 ha        1 CAW      0.137000
     33 H16        -5.7960    0.0300    3.2940 ha        1 CAW      0.139000
     34 H15        -3.7360    0.6640    2.0400 ha        1 CAW      0.155000
     35 H2         -1.1920   -0.6420   -0.7100 hn        1 CAW      0.320500
     36 H1          1.1060   -1.1610   -0.5560 hn        1 CAW      0.292500
     37 HA          2.6130    0.7520    1.1370 h2        1 CAW      0.111700
     38 HB          3.3820   -2.2120    0.4030 h1        1 CAW      0.059700
     39 H5          4.4580    1.6410   -0.1130 h1        1 CAW      0.078700
     40 H61C        5.8790    1.4500   -2.2430 h1        1 CAW      0.064200
     41 H62C        4.6350    0.2600   -2.9050 h1        1 CAW      0.064200
     42 H4          5.4350   -1.2150   -0.9560 h1        1 CAW      0.060700
     43 H6          3.1280    2.0230   -2.5620 ho        1 CAW      0.408000
     44 HC          7.2430   -0.3980    0.2950 ho        1 CAW      0.426000
     45 H3          4.9950    0.0150    1.8830 h1        1 CAW      0.069700
     46 HD          5.4290   -2.2170    2.3540 ho        1 CAW      0.429000
     47 H2A         2.1340   -1.8310    2.3630 ho        1 CAW      0.425000
@<TRIPOS>BOND
     1    1    2 ar  
     2    1   10 ar  
     3    1   28 1   
     4    2    3 ar  
     5    2   29 1   
     6    3    4 ar  
     7    3   30 1   
     8    4    5 ar  
     9    4    9 ar  
    10    5    6 ar  
    11    5   31 1   
    12    6    7 ar  
    13    6   32 1   
    14    7    8 ar  
    15    7   33 1   
    16    8    9 ar  
    17    8   34 1   
    18    9   10 ar  
    19   10   11 1   
    20   11   12 2   
    21   11   13 1   
    22   13   14 1   
    23   13   35 1   
    24   14   15 2   
    25   14   16 1   
    26   16   17 1   
    27   16   36 1   
    28   17   18 1   
    29   17   26 1   
    30   17   37 1   
    31   18   19 1   
    32   19   20 1   
    33   19   22 1   
    34   19   39 1   
    35   20   21 1   
    36   20   40 1   
    37   20   41 1   
    38   21   43 1   
    39   22   23 1   
    40   22   24 1   
    41   22   42 1   
    42   23   44 1   
    43   24   25 1   
    44   24   26 1   
    45   24   45 1   
    46   25   46 1   
    47   26   27 1   
    48   26   38 1   
    49   27   47 1   
@<TRIPOS>SUBSTRUCTURE
     1 CAW         1 TEMP              0 ****  ****    0 ROOT
