@<TRIPOS>MOLECULE
CAW
   49    49     1     0     0
SMALL
bcc


@<TRIPOS>ATOM
      1 C9       1294.2380 -338.6350    0.0350 cc        1 CAW      0.049000
      2 C14      1295.4670 -339.2530    0.2410 cd        1 CAW     -0.181000
      3 C13      1295.6970 -340.5410    0.7670 cd        1 CAW      0.064000
      4 C12      1294.6960 -341.2530    0.0690 cc        1 CAW     -0.090000
      5 C18      1294.9290 -342.5710    0.5830 ce        1 CAW     -0.060000
      6 C17      1293.9440 -343.2510    0.9050 cf        1 CAW     -0.122000
      7 C16      1292.6860 -342.6460    0.6840 cf        1 CAW     -0.083100
      8 C15      1292.4310 -341.3680    0.1430 c1        1 CAW     -0.055800
      9 C11      1293.4260 -340.6500    0.8410 cc        1 CAW     -0.005100
     10 C10      1293.2140 -339.3180    0.3410 cc        1 CAW     -0.269100
     11 C8       1291.9980 -338.7040    0.1390 c1        1 CAW      0.746600
     12 O8       1290.9700 -338.1850    0.9690 o         1 CAW     -0.181500
     13 N2       -827.7590  213.8080 -762.1000 n         1 CAW     -0.613000
     14 C7       -827.9330  213.3260 -763.3540 c         1 CAW      0.651100
     15 O7       -828.9010  212.7040 -763.8050 o         1 CAW     -0.484100
     16 N1       -826.8120  213.5390 -764.3810 n4        1 CAW     -0.670800
     17 C1       -826.5440  214.9920 -764.6690 c3        1 CAW      0.333300
     18 O5       -826.4660  215.0620 -766.0880 os        1 CAW     -0.417600
     19 C5       -826.3520  216.4130 -766.5750 c3        1 CAW      0.079100
     20 C6       -826.3060  216.2690 -768.1040 c3        1 CAW      0.137400
     21 O6       -827.5740  215.9550 -768.6190 oh        1 CAW     -0.568800
     22 C4       -825.0790  217.0720 -766.0190 c3        1 CAW      0.079100
     23 O4       -825.0970  218.4620 -766.2830 oh        1 CAW     -0.584800
     24 C3       -825.0410  216.9580 -764.4820 c3        1 CAW      0.116100
     25 O3       -823.7880  217.3580 -763.9670 oh        1 CAW     -0.596800
     26 C2       -825.2010  215.4840 -764.0730 c3        1 CAW      0.110100
     27 O2       -825.2830  215.3210 -762.6720 oh        1 CAW     -0.643800
     28 H9       1294.0660 -337.6130    0.4160 ha        1 CAW      0.171000
     29 H14      1296.2620 -338.7140    0.7840 ha        1 CAW      0.187000
     30 H13      1296.6790 -341.0220    0.9370 ha        1 CAW      0.178000
     31 H18      1295.9140 -343.0350    0.7610 ha        1 CAW      0.167000
     32 H17      1294.1240 -344.2720    0.5290 ha        1 CAW      0.174000
     33 H16      1291.9070 -343.2060    0.1380 ha        1 CAW      0.171000
     34 H15      1291.4460 -340.9090    0.9630 DU        1 CAW      0.141000
     35 H2       -828.4880  213.6300 -761.4400 hn        1 CAW      0.375500
     36 H1       -827.1200  213.0780 -765.2570 hn        1 CAW      0.479800
     37 HA       -827.4120  215.6040 -764.2830 hx        1 CAW      0.115700
     38 HB       -824.3350  214.8840 -764.4730 h1        1 CAW      0.091700
     39 H5       -827.2620  216.9950 -766.2600 h1        1 CAW      0.079700
     40 H61C     -825.9030  217.2240 -768.5350 h1        1 CAW      0.074200
     41 H62C     -825.6500  215.4030 -768.3940 h1        1 CAW      0.074200
     42 H4       -824.1650  216.5850 -766.4590 h1        1 CAW      0.079700
     43 H6       -828.1020  216.7640 -768.6310 ho        1 CAW      0.413000
     44 HC       -824.7550  218.5970 -767.1770 ho        1 CAW      0.431000
     45 H3       -825.8590  217.5870 -764.0320 h1        1 CAW      0.077700
     46 HD       -823.6480  218.2760 -764.2470 ho        1 CAW      0.452000
     47 H2A      -824.5880  215.8720 -762.2740 ho        1 CAW      0.475000
     48 H22      -826.9490  214.3110 -761.8120 hn        1 CAW      0.375500
     49 H12      -825.9480  213.0920 -764.0570 hn        1 CAW      0.479800
@<TRIPOS>BOND
     1    1    2 2   
     2    1   10 1   
     3    1   28 1   
     4    2    3 1   
     5    2   29 1   
     6    3    4 2   
     7    3   30 1   
     8    4    5 1   
     9    4    9 1   
    10    5    6 2   
    11    5   31 1   
    12    6    7 1   
    13    6   32 1   
    14    7    8 2   
    15    7   33 1   
    16    8    9 2   
    17    9   10 1   
    18   10   11 2   
    19   11   12 2   
    20   13   14 1   
    21   13   35 1   
    22   13   48 1   
    23   14   15 2   
    24   14   16 1   
    25   16   17 1   
    26   16   36 1   
    27   16   49 1   
    28   17   18 1   
    29   17   26 1   
    30   17   37 1   
    31   18   19 1   
    32   19   20 1   
    33   19   22 1   
    34   19   39 1   
    35   20   21 1   
    36   20   40 1   
    37   20   41 1   
    38   21   43 1   
    39   22   23 1   
    40   22   24 1   
    41   22   42 1   
    42   23   44 1   
    43   24   25 1   
    44   24   26 1   
    45   24   45 1   
    46   25   46 1   
    47   26   27 1   
    48   26   38 1   
    49   27   47 1   
@<TRIPOS>SUBSTRUCTURE
     1 CAW         1 TEMP              0 ****  ****    0 ROOT
