@<TRIPOS>MOLECULE
CAW
   47    44     1     0     0
SMALL
bcc


@<TRIPOS>ATOM
      1 C9          4.0070   -1.1160    0.1380 c1        1 CAW     -0.061333
      2 C14         5.3300   -1.4990    0.0720 c1        1 CAW     -0.061333
      3 C13         6.1140   -1.5110    1.2260 c1        1 CAW     -0.034500
      4 C12         5.5570   -1.1340    2.4530 cg        1 CAW     -0.042000
      5 C18         6.3370   -1.1770    3.6240 c1        1 CAW     -0.061333
      6 C17         5.7800   -0.8380    4.8390 c1        1 CAW     -0.061333
      7 C16         4.4580   -0.4550    4.9080 c1        1 CAW     -0.061333
      8 C15         3.6830   -0.4100    3.7480 c1        1 CAW     -0.061333
      9 C11         4.2480   -0.7540    2.5190 cg        1 CAW     -0.005000
     10 C10         3.4560   -0.7440    1.3410 ch        1 CAW     -0.083200
     11 C8          2.0330   -0.2470    1.3790 c         1 CAW      0.634300
     12 O8          1.5420    0.0770    2.4210 o         1 CAW     -0.513100
     13 N2          1.2910   -0.0570    0.1350 n         1 CAW     -0.612500
     14 C7         -0.1780    0.1420    0.1760 c         1 CAW      0.768100
     15 O7         -0.7980   -0.0840    1.2100 o         1 CAW     -0.566100
     16 N1         -0.8960    0.5420   -1.0320 n         1 CAW     -0.527900
     17 C1         -2.3010    0.6690   -1.0080 c3        1 CAW      0.296500
     18 O5         -2.8890   -0.4840   -1.6750 os        1 CAW     -0.463600
     19 C5         -4.3300   -0.3660   -1.8490 c3        1 CAW      0.112100
     20 C6         -4.8000   -1.4910   -2.6880 c3        1 CAW      0.140400
     21 O6         -4.5600   -2.7160   -2.0150 oh        1 CAW     -0.591800
     22 C4         -4.7370    0.9620   -2.5200 c3        1 CAW      0.084100
     23 O4         -6.1640    1.0800   -2.4920 oh        1 CAW     -0.588800
     24 C3         -4.1510    2.1310   -1.8460 c3        1 CAW      0.065100
     25 O3         -4.4340    3.3470   -2.6550 oh        1 CAW     -0.605800
     26 C2         -2.6960    2.0010   -1.6740 c3        1 CAW      0.127100
     27 O2         -2.2290    3.0790   -0.8640 oh        1 CAW     -0.579800
     28 H9          3.4580   -1.1100   -0.6760 ha        1 CAW      0.083000
     29 H14         5.7050   -1.7550   -0.7560 ha        1 CAW      0.083000
     30 H13         7.0250   -1.7760    1.1780 ha        1 CAW      0.080500
     31 H18         7.2500   -1.4430    3.5770 ha        1 CAW      0.083000
     32 H17         6.3310   -0.8680    5.6640 ha        1 CAW      0.083000
     33 H16         4.0740   -0.2190    5.7470 ha        1 CAW      0.083000
     34 H15         2.7730   -0.1480    3.7940 ha        1 CAW      0.083000
     35 H2          1.7400    0.0010   -0.6660 hn        1 CAW      0.321500
     36 H1         -0.4540    0.6420   -1.7990 hn        1 CAW      0.300500
     37 HA         -2.5990    0.6810   -0.0850 h2        1 CAW      0.109700
     38 HB         -2.2610    2.0570   -2.5660 h1        1 CAW      0.057700
     39 H5         -4.7580   -0.4220   -0.9770 h1        1 CAW      0.078700
     40 H61C       -4.3200   -1.4860   -3.5320 h1        1 CAW      0.060700
     41 H62C       -5.7370   -1.3950   -2.8540 h1        1 CAW      0.060700
     42 H4         -4.4350    0.9520   -3.4600 h1        1 CAW      0.061700
     43 H6         -4.6470   -3.4010   -2.5940 ho        1 CAW      0.414000
     44 HC         -6.4800    1.0460   -3.3200 ho        1 CAW      0.407000
     45 H3         -4.5630    2.2300   -0.9730 h1        1 CAW      0.070700
     46 HD         -5.0750    3.8630   -2.2260 ho        1 CAW      0.412000
     47 H2A        -1.7020    3.6030   -1.3480 ho        1 CAW      0.420000
@<TRIPOS>BOND
     1    1    2 3   
     2    1   28 1   
     3    2   29 1   
     4    3    4 3   
     5    3   30 1   
     6    4    9 1   
     7    5    6 3   
     8    5   31 1   
     9    6   32 1   
    10    7    8 3   
    11    7   33 1   
    12    8   34 1   
    13    9   10 3   
    14   10   11 1   
    15   11   12 2   
    16   11   13 1   
    17   13   14 1   
    18   13   35 1   
    19   14   15 2   
    20   14   16 1   
    21   16   17 1   
    22   16   36 1   
    23   17   18 1   
    24   17   26 1   
    25   17   37 1   
    26   18   19 1   
    27   19   20 1   
    28   19   22 1   
    29   19   39 1   
    30   20   21 1   
    31   20   40 1   
    32   20   41 1   
    33   21   43 1   
    34   22   23 1   
    35   22   24 1   
    36   22   42 1   
    37   23   44 1   
    38   24   25 1   
    39   24   26 1   
    40   24   45 1   
    41   25   46 1   
    42   26   27 1   
    43   26   38 1   
    44   27   47 1   
@<TRIPOS>SUBSTRUCTURE
     1 CAW         1 TEMP              0 ****  ****    0 ROOT
