@<TRIPOS>MOLECULE
CAX
   31    31     1     0     0
SMALL
bcc


@<TRIPOS>ATOM
      1 O3         -2.5270    1.5910    2.2050 oh        1 CAX     -0.632300
      2 C10        -1.1120    1.5910    2.2050 c3        1 CAX      0.327900
      3 O2         -0.6400    1.5910    3.5410 oh        1 CAX     -0.632300
      4 C9         -0.5970    0.3340    1.4780 c3        1 CAX     -0.095400
      5 C1         -0.1520    0.7200    0.0070 c3        1 CAX     -0.060700
      6 C2         -0.1910   -0.5730   -0.9360 c3        1 CAX     -0.044000
      7 C8         -1.3620   -0.4680   -1.9220 c3        1 CAX     -0.086100
      8 C7         -0.3370   -1.8380   -0.0810 c3        1 CAX     -0.086100
      9 C3          1.1680   -0.6140   -1.7240 c3        1 CAX     -0.165700
     10 C6          2.0440   -1.7850   -1.1850 c3        1 CAX     -0.080100
     11 C4          1.6790    0.6230   -1.4800 c         1 CAX      0.574100
     12 O1          2.3650    1.2780   -2.2450 o         1 CAX     -0.525100
     13 C5          1.0840    1.1410    0.0110 c3        1 CAX     -0.191400
     14 HO3        -2.8230    2.3820    2.4780 ho        1 CAX      0.415000
     15 H10        -0.7860    2.3890    1.7460 h2        1 CAX      0.072700
     16 HO2        -0.6650    2.4180    3.8640 ho        1 CAX      0.415000
     17 H91        -1.3080   -0.3340    1.4380 hc        1 CAX      0.063200
     18 H92         0.1670   -0.0330    1.9630 hc        1 CAX      0.063200
     19 H1         -0.7400    1.4130   -0.3500 hc        1 CAX      0.070700
     20 H81        -1.2590    0.3380   -2.4640 hc        1 CAX      0.039033
     21 H82        -1.3690   -1.2520   -2.5030 hc        1 CAX      0.039033
     22 H83        -2.2010   -0.4220   -1.4260 hc        1 CAX      0.039033
     23 H71        -1.2300   -1.8640    0.3120 hc        1 CAX      0.039033
     24 H72        -0.2060   -2.6270   -0.6420 hc        1 CAX      0.039033
     25 H73         0.3320   -1.8300    0.6300 hc        1 CAX      0.039033
     26 H3          1.1450   -0.8110   -2.6800 hc        1 CAX      0.077700
     27 H61         2.9250   -1.7520   -1.6040 hc        1 CAX      0.044367
     28 H62         2.1420   -1.7000   -0.2170 hc        1 CAX      0.044367
     29 H63         1.6150   -2.6360   -1.3950 hc        1 CAX      0.044367
     30 H51         1.3040    2.0640    0.2390 hc        1 CAX      0.076700
     31 H52         1.5330    0.6660    0.7360 hc        1 CAX      0.076700
@<TRIPOS>BOND
     1    1    2 1   
     2    1   14 1   
     3    2    3 1   
     4    2    4 1   
     5    2   15 1   
     6    3   16 1   
     7    4    5 1   
     8    4   17 1   
     9    4   18 1   
    10    5    6 1   
    11    5   13 1   
    12    5   19 1   
    13    6    7 1   
    14    6    8 1   
    15    6    9 1   
    16    7   20 1   
    17    7   21 1   
    18    7   22 1   
    19    8   23 1   
    20    8   24 1   
    21    8   25 1   
    22    9   10 1   
    23    9   11 1   
    24    9   26 1   
    25   10   27 1   
    26   10   28 1   
    27   10   29 1   
    28   11   12 2   
    29   11   13 1   
    30   13   30 1   
    31   13   31 1   
@<TRIPOS>SUBSTRUCTURE
     1 CAX         1 TEMP              0 ****  ****    0 ROOT
