@<TRIPOS>MOLECULE
CAX
   31    31     1     0     0
SMALL
bcc


@<TRIPOS>ATOM
      1 O3          0.0520    0.2190   -0.1810 oh        1 CAX     -0.632300
      2 C10         1.4490    0.1150    0.0010 c3        1 CAX      0.328900
      3 O2          1.6200   -0.1230    1.3780 oh        1 CAX     -0.632300
      4 C9          1.9460   -1.0140   -0.8990 c3        1 CAX     -0.096400
      5 C1          3.4540   -1.1160   -0.8470 c3        1 CAX     -0.062700
      6 C2          4.0160   -2.4000   -1.5080 c3        1 CAX     -0.045000
      7 C8          3.2000   -2.7990   -2.7290 c3        1 CAX     -0.087100
      8 C7          4.0100   -3.5500   -0.5210 c3        1 CAX     -0.087100
      9 C3          5.4400   -2.0120   -1.9720 c3        1 CAX     -0.164700
     10 C6          6.5460   -2.4100   -1.0220 c3        1 CAX     -0.082100
     11 C4          5.4170   -0.5020   -2.1280 c         1 CAX      0.575100
     12 O1          6.3010    0.1640   -2.6640 o         1 CAX     -0.525100
     13 C5          4.1490    0.0550   -1.5390 c3        1 CAX     -0.189400
     14 HO3        -0.2620    0.9260    0.3960 ho        1 CAX      0.415500
     15 H10         1.9810    1.0870   -0.2030 h2        1 CAX      0.071700
     16 HO2         1.2330   -0.9820    1.5860 ho        1 CAX      0.415500
     17 H91         1.4870   -1.9800   -0.5600 hc        1 CAX      0.064700
     18 H92         1.5890   -0.8170   -1.9430 hc        1 CAX      0.064700
     19 H1          3.7620   -1.1220    0.2370 hc        1 CAX      0.066700
     20 H81         2.1690   -3.1070   -2.4320 hc        1 CAX      0.039033
     21 H82         3.6840   -3.6610   -3.2490 hc        1 CAX      0.039033
     22 H83         3.1270   -1.9450   -3.4440 hc        1 CAX      0.039033
     23 H71         4.4780   -4.4550   -0.9800 hc        1 CAX      0.039033
     24 H72         2.9590   -3.8000   -0.2360 hc        1 CAX      0.039033
     25 H73         4.5720   -3.2910    0.4080 hc        1 CAX      0.039033
     26 H3          5.6510   -2.4750   -2.9760 hc        1 CAX      0.080700
     27 H61         6.6200   -3.5220   -0.9560 hc        1 CAX      0.044367
     28 H62         7.5200   -2.0080   -1.3950 hc        1 CAX      0.044367
     29 H63         6.3620   -2.0020    0.0010 hc        1 CAX      0.044367
     30 H51         3.5170    0.4810   -2.3600 hc        1 CAX      0.078200
     31 H52         4.3790    0.8800   -0.8190 hc        1 CAX      0.078200
@<TRIPOS>BOND
     1    1    2 1   
     2    1   14 1   
     3    2    3 1   
     4    2    4 1   
     5    2   15 1   
     6    3   16 1   
     7    4    5 1   
     8    4   17 1   
     9    4   18 1   
    10    5    6 1   
    11    5   13 1   
    12    5   19 1   
    13    6    7 1   
    14    6    8 1   
    15    6    9 1   
    16    7   20 1   
    17    7   21 1   
    18    7   22 1   
    19    8   23 1   
    20    8   24 1   
    21    8   25 1   
    22    9   10 1   
    23    9   11 1   
    24    9   26 1   
    25   10   27 1   
    26   10   28 1   
    27   10   29 1   
    28   11   12 2   
    29   11   13 1   
    30   13   30 1   
    31   13   31 1   
@<TRIPOS>SUBSTRUCTURE
     1 CAX         1 TEMP              0 ****  ****    0 ROOT
