@<TRIPOS>MOLECULE
CAX
   31    31     1     0     0
SMALL
bcc


@<TRIPOS>ATOM
      1 O3          0.0660    0.2340   -0.1470 oh        1 CAX     -0.632300
      2 C10         1.4630    0.1210    0.0240 c3        1 CAX      0.328900
      3 O2          1.6430   -0.1250    1.3990 oh        1 CAX     -0.632300
      4 C9          1.9460   -1.0080   -0.8850 c3        1 CAX     -0.096400
      5 C1          3.4540   -1.1200   -0.8450 c3        1 CAX     -0.062700
      6 C2          4.0020   -2.4040   -1.5150 c3        1 CAX     -0.045000
      7 C8          3.1750   -2.7920   -2.7330 c3        1 CAX     -0.087100
      8 C7          3.9950   -3.5600   -0.5340 c3        1 CAX     -0.087100
      9 C3          5.4250   -2.0240   -1.9880 c3        1 CAX     -0.164700
     10 C6          6.5350   -2.4340   -1.0470 c3        1 CAX     -0.082100
     11 C4          5.4120   -0.5130   -2.1360 c         1 CAX      0.575100
     12 O1          6.2970    0.1500   -2.6750 o         1 CAX     -0.525100
     13 C5          4.1520    0.0500   -1.5350 c3        1 CAX     -0.189400
     14 HO3        -0.2390    0.9410    0.4350 ho        1 CAX      0.415500
     15 H10         2.0000    1.0900   -0.1800 h2        1 CAX      0.071700
     16 HO2         1.2520   -0.9830    1.6050 ho        1 CAX      0.415500
     17 H91         1.4830   -1.9720   -0.5480 hc        1 CAX      0.064700
     18 H92         1.5830   -0.8020   -1.9260 hc        1 CAX      0.064700
     19 H1          3.7690   -1.1340    0.2380 hc        1 CAX      0.066700
     20 H81         3.1030   -1.9330   -3.4430 hc        1 CAX      0.039033
     21 H82         3.6500   -3.6540   -3.2610 hc        1 CAX      0.039033
     22 H83         2.1430   -3.0940   -2.4310 hc        1 CAX      0.039033
     23 H71         4.5650   -3.3090    0.3920 hc        1 CAX      0.039033
     24 H72         4.4530   -4.4650   -1.0010 hc        1 CAX      0.039033
     25 H73         2.9440   -3.8040   -0.2440 hc        1 CAX      0.039033
     26 H3          5.6270   -2.4840   -2.9950 hc        1 CAX      0.080700
     27 H61         6.3610   -2.0300   -0.0210 hc        1 CAX      0.044367
     28 H62         6.6020   -3.5470   -0.9870 hc        1 CAX      0.044367
     29 H63         7.5100   -2.0370   -1.4240 hc        1 CAX      0.044367
     30 H51         4.3920    0.8690   -0.8120 hc        1 CAX      0.078200
     31 H52         3.5170    0.4840   -2.3490 hc        1 CAX      0.078200
@<TRIPOS>BOND
     1    1    2 1   
     2    1   14 1   
     3    2    3 1   
     4    2    4 1   
     5    2   15 1   
     6    3   16 1   
     7    4    5 1   
     8    4   17 1   
     9    4   18 1   
    10    5    6 1   
    11    5   13 1   
    12    5   19 1   
    13    6    7 1   
    14    6    8 1   
    15    6    9 1   
    16    7   20 1   
    17    7   21 1   
    18    7   22 1   
    19    8   23 1   
    20    8   24 1   
    21    8   25 1   
    22    9   10 1   
    23    9   11 1   
    24    9   26 1   
    25   10   27 1   
    26   10   28 1   
    27   10   29 1   
    28   11   12 2   
    29   11   13 1   
    30   13   30 1   
    31   13   31 1   
@<TRIPOS>SUBSTRUCTURE
     1 CAX         1 TEMP              0 ****  ****    0 ROOT
