@<TRIPOS>MOLECULE
CAX
   31    31     1     0     0
SMALL
bcc


@<TRIPOS>ATOM
      1 O3         -0.0810    0.5680   -3.8600 oh        1 CAX     -0.632300
      2 C10        -0.4450   -0.0960   -2.6680 c3        1 CAX      0.328900
      3 O2         -0.2530   -1.4640   -2.9390 oh        1 CAX     -0.632300
      4 C9          0.4400    0.4540   -1.5500 c3        1 CAX     -0.096400
      5 C1          0.0350   -0.1260   -0.2130 c3        1 CAX     -0.062700
      6 C2          1.0480    0.1620    0.9240 c3        1 CAX     -0.045000
      7 C8          1.6740    1.5410    0.7740 c3        1 CAX     -0.087100
      8 C7          2.1520   -0.8770    0.9270 c3        1 CAX     -0.087100
      9 C3          0.2000    0.1430    2.2180 c3        1 CAX     -0.164700
     10 C6          0.2250   -1.1660    2.9720 c3        1 CAX     -0.082100
     11 C4         -1.2180    0.4540    1.7780 c         1 CAX      0.575100
     12 O1         -2.1500    0.7180    2.5360 o         1 CAX     -0.525100
     13 C5         -1.3120    0.4010    0.2760 c3        1 CAX     -0.189400
     14 HO3        -0.6330    0.2120   -4.5680 ho        1 CAX      0.415500
     15 H10        -1.5410    0.0130   -2.4340 h2        1 CAX      0.071700
     16 HO2         0.6900   -1.6140   -3.0820 ho        1 CAX      0.415500
     17 H91         0.3530    1.5720   -1.5490 hc        1 CAX      0.064700
     18 H92         1.5090    0.1950   -1.7700 hc        1 CAX      0.064700
     19 H1         -0.0420   -1.2450   -0.3320 hc        1 CAX      0.066700
     20 H81         2.3170    1.7680    1.6590 hc        1 CAX      0.039033
     21 H82         2.3120    1.5880   -0.1400 hc        1 CAX      0.039033
     22 H83         0.8800    2.3220    0.6980 hc        1 CAX      0.039033
     23 H71         2.8410   -0.7050    1.7880 hc        1 CAX      0.039033
     24 H72         1.7360   -1.9110    1.0020 hc        1 CAX      0.039033
     25 H73         2.7420   -0.8050   -0.0200 hc        1 CAX      0.039033
     26 H3          0.5500    0.9580    2.9120 hc        1 CAX      0.080700
     27 H61        -0.4850   -1.1140    3.8340 hc        1 CAX      0.044367
     28 H62        -0.0810   -2.0140    2.3130 hc        1 CAX      0.044367
     29 H63         1.2500   -1.3710    3.3640 hc        1 CAX      0.044367
     30 H51        -2.1540   -0.2640   -0.0430 hc        1 CAX      0.078200
     31 H52        -1.5180    1.4290   -0.1180 hc        1 CAX      0.078200
@<TRIPOS>BOND
     1    1    2 1   
     2    1   14 1   
     3    2    3 1   
     4    2    4 1   
     5    2   15 1   
     6    3   16 1   
     7    4    5 1   
     8    4   17 1   
     9    4   18 1   
    10    5    6 1   
    11    5   13 1   
    12    5   19 1   
    13    6    7 1   
    14    6    8 1   
    15    6    9 1   
    16    7   20 1   
    17    7   21 1   
    18    7   22 1   
    19    8   23 1   
    20    8   24 1   
    21    8   25 1   
    22    9   10 1   
    23    9   11 1   
    24    9   26 1   
    25   10   27 1   
    26   10   28 1   
    27   10   29 1   
    28   11   12 2   
    29   11   13 1   
    30   13   30 1   
    31   13   31 1   
@<TRIPOS>SUBSTRUCTURE
     1 CAX         1 TEMP              0 ****  ****    0 ROOT
