@<TRIPOS>MOLECULE
CAY
   18    17     1     0     0
SMALL
bcc


@<TRIPOS>ATOM
      1 N           0.5640    1.7350   -2.3460 n3        1 CAY     -0.905800
      2 CA          0.0200    0.6040   -1.6760 c3        1 CAY      0.050500
      3 CB          0.5300    0.5670   -0.2540 c3        1 CAY     -0.017300
      4 CG          0.3690   -0.8700    2.2540 c3        1 CAY     -0.103300
      5 SD         -0.4020   -0.6190    0.6780 ss        1 CAY     -0.359200
      6 CE         -0.1410   -2.1560    2.8660 c         1 CAY      0.925600
      7 C          -1.4890    0.7010   -1.6680 c         1 CAY      0.914600
      8 O          -2.1860   -0.3180   -1.9160 o         1 CAY     -0.853800
      9 OXT        -2.0480    1.8000   -1.4140 o         1 CAY     -0.853800
     10 OF1         0.6170   -3.1580    2.9490 o         1 CAY     -0.850800
     11 OF2        -1.3230   -2.2240    3.2930 o         1 CAY     -0.850800
     12 HN1         1.4770    1.7200   -2.2780 hn        1 CAY      0.338800
     13 HN2         0.3240    1.7110   -3.2300 hn        1 CAY      0.338800
     14 HA          0.2910   -0.2120   -2.1410 h1        1 CAY      0.051700
     15 HB1         1.4740    0.3140   -0.2530 h1        1 CAY      0.052700
     16 HB2         0.4290    1.4520    0.1510 h1        1 CAY      0.052700
     17 HG1         0.1550   -0.1200    2.8450 h1        1 CAY      0.036200
     18 HG2         1.3390   -0.9260    2.1380 h1        1 CAY      0.036200
@<TRIPOS>BOND
     1    1    2 1   
     2    1   12 1   
     3    1   13 1   
     4    2    3 1   
     5    2    7 1   
     6    2   14 1   
     7    3    5 1   
     8    3   15 1   
     9    3   16 1   
    10    4    5 1   
    11    4    6 1   
    12    4   17 1   
    13    4   18 1   
    14    6   10 1   
    15    6   11 1   
    16    7    8 1   
    17    7    9 1   
@<TRIPOS>SUBSTRUCTURE
     1 CAY         1 TEMP              0 ****  ****    0 ROOT
