@<TRIPOS>MOLECULE
CAY
   18    17     1     0     0
SMALL
bcc


@<TRIPOS>ATOM
      1 N           1.7670   -0.0230    1.8840 n3        1 CAY     -0.905800
      2 CA          0.3760    0.3880    1.9140 c3        1 CAY      0.050500
      3 CB         -0.4560   -0.0290    0.7010 c3        1 CAY     -0.017300
      4 CG         -0.6220   -0.3910   -2.0050 c3        1 CAY     -0.103300
      5 SD          0.2560    0.5870   -0.8130 ss        1 CAY     -0.359200
      6 CE         -0.2260   -0.0680   -3.4540 c         1 CAY      0.925600
      7 C          -0.3740   -0.1490    3.1810 c         1 CAY      0.914600
      8 O          -0.1380   -1.3310    3.5670 o         1 CAY     -0.853800
      9 OXT        -1.1870    0.6300    3.7520 o         1 CAY     -0.853800
     10 OF1         0.7180   -0.7260   -3.9820 o         1 CAY     -0.850800
     11 OF2        -0.9110    0.7850   -4.0890 o         1 CAY     -0.850800
     12 HN1         2.0680   -0.1180    0.9300 hn        1 CAY      0.338800
     13 HN2         1.8510   -0.9200    2.3300 hn        1 CAY      0.338800
     14 HA          0.3730    1.5160    1.9680 h1        1 CAY      0.051700
     15 HB1        -0.5320   -1.1420    0.6520 h1        1 CAY      0.052700
     16 HB2        -1.4870    0.3800    0.8230 h1        1 CAY      0.052700
     17 HG1        -0.4160   -1.4700   -1.8120 h1        1 CAY      0.036200
     18 HG2        -1.7160   -0.2090   -1.8860 h1        1 CAY      0.036200
@<TRIPOS>BOND
     1    1    2 1   
     2    1   12 1   
     3    1   13 1   
     4    2    3 1   
     5    2    7 1   
     6    2   14 1   
     7    3    5 1   
     8    3   15 1   
     9    3   16 1   
    10    4    5 1   
    11    4    6 1   
    12    4   17 1   
    13    4   18 1   
    14    6   10 1   
    15    6   11 1   
    16    7    8 1   
    17    7    9 1   
@<TRIPOS>SUBSTRUCTURE
     1 CAY         1 TEMP              0 ****  ****    0 ROOT
