@<TRIPOS>MOLECULE
CAZ
   48    44     1     0     0
SMALL
bcc


@<TRIPOS>ATOM
      1 S1          3.3020    2.0670    1.3240 ss        1 CAZ     -0.056000
      2 C2          4.8650    2.1510    2.1730 c3        1 CAZ     -0.217000
      3 C3          4.9330    1.8520    2.3210 c2        1 CAZ     -0.129000
      4 C3'         6.0370    1.1150    2.0430 c1        1 CAZ     -0.183000
      5 C4          3.5390    1.2950    3.6360 c2        1 CAZ     -0.011000
      6 C4'         3.8580    0.2430    4.6750 c2        1 CAZ      0.390000
      7 O4A         4.2910   -0.8840    4.3180 o         1 CAZ     -0.542500
      8 O4B         3.7030    0.4990    5.8980 o         1 CAZ     -0.542500
      9 N5          1.9040    1.4420    3.0070 n1        1 CAZ     -0.197000
     10 C6          1.8990    1.2060    2.3120 c2        1 CAZ     -0.108000
     11 C7          0.1880    1.4770    1.4880 c3        1 CAZ     -0.029000
     12 C8          0.1800    2.6960    0.8220 c2        1 CAZ      0.182000
     13 O9          0.8360    2.8400   -0.1930 o         1 CAZ     -0.301000
     14 N10        -0.0430    0.5260    0.6500 n         1 CAZ     -0.342000
     15 C11        -1.2610    0.5010   -0.0780 c2        1 CAZ      0.350000
     16 O12        -1.9480    1.5010   -0.1460 o         1 CAZ     -0.410000
     17 C13        -1.7120   -0.7740   -0.7570 c2        1 CAZ     -0.143000
     18 N16        -2.2980   -0.7210   -1.9220 n1        1 CAZ      0.114000
     19 O17        -2.5050    0.4860   -2.5280 o         1 CAZ     -0.209000
     20 C18        -3.4260    0.3400   -3.5780 c3        1 CAZ      0.024000
     21 C14        -1.4820   -2.1100   -0.0860 c2        1 CAZ      0.007000
     22 C15        -1.9940   -2.5070    1.2040 c1        1 CAZ     -0.435000
     23 S16        -1.5250   -3.9320    1.4740 ss        1 CAZ      0.447000
     24 C17        -0.6890   -4.3840    0.2570 c1        1 CAZ     -0.238000
     25 N18        -0.1150   -5.6680    0.0710 n2        1 CAZ     -0.271000
     26 N19        -0.6570   -3.3060   -0.6780 n2        1 CAZ     -0.083000
     27 C19        -4.8310    0.5190   -3.0450 c3        1 CAZ     -0.208500
     28 C20        -3.1520    1.3830   -4.6380 c3        1 CAZ     -0.208500
     29 C21        -3.2880   -1.0410   -4.1820 c2        1 CAZ      0.341000
     30 O2A        -2.1900   -1.6520   -4.1100 o         1 CAZ     -0.556000
     31 O2B        -4.2770   -1.5870   -4.7370 o         1 CAZ     -0.556000
     32 HC21        5.6620    2.5060    1.7110 h1        1 CAZ      0.105000
     33 HC22        4.7410    2.8490    2.8620 h1        1 CAZ      0.105000
     34 HC31        6.1820    0.2610    2.4970 DU        1 CAZ      0.184500
     35 HC32        6.6880    1.4380    1.3880 ha        1 CAZ      0.086000
     36 HC6         1.9850    0.2300    2.2700 h4        1 CAZ      0.131000
     37 HC7        -0.5080    1.4780    2.1770 h1        1 CAZ      0.160000
     38 HC8        -0.3340    3.4460    1.1810 h4        1 CAZ      0.119000
     39 H10N        0.5780   -0.1320    0.5230 hn        1 CAZ      0.260000
     40 H15C       -2.5910   -1.9820    1.7700 DU        1 CAZ      0.184500
     41 H181       -0.3870   -6.3700    0.5890 hn        1 CAZ      0.161500
     42 H182        0.5300   -5.7930   -0.5650 hn        1 CAZ      0.161500
     43 H191       -4.8690    1.3250   -2.4890 hc        1 CAZ      0.077333
     44 H192       -5.0780   -0.2620   -2.5070 hc        1 CAZ      0.077333
     45 H193       -5.4560    0.6090   -3.7950 hc        1 CAZ      0.077333
     46 H201       -3.6200    1.1400   -5.4650 hc        1 CAZ      0.077333
     47 H202       -2.1890    1.4300   -4.8100 hc        1 CAZ      0.077333
     48 H203       -3.4710    2.2560   -4.3270 hc        1 CAZ      0.077333
@<TRIPOS>BOND
     1    1    2 1   
     2    1   10 1   
     3    2    3 1   
     4    2   32 1   
     5    2   33 1   
     6    3    4 1   
     7    3    5 1   
     8    4   35 1   
     9    5    6 1   
    10    5    9 1   
    11    6    7 1   
    12    6    8 1   
    13   10   11 1   
    14   10   36 1   
    15   11   12 1   
    16   11   14 1   
    17   11   37 1   
    18   12   13 1   
    19   12   38 1   
    20   14   15 1   
    21   14   39 1   
    22   15   16 1   
    23   15   17 1   
    24   17   18 1   
    25   17   21 1   
    26   19   20 1   
    27   20   27 1   
    28   20   28 1   
    29   20   29 1   
    30   21   22 1   
    31   21   26 1   
    32   22   23 1   
    33   23   24 1   
    34   24   26 1   
    35   25   41 1   
    36   25   42 1   
    37   27   43 1   
    38   27   44 1   
    39   27   45 1   
    40   28   46 1   
    41   28   47 1   
    42   28   48 1   
    43   29   30 1   
    44   29   31 1   
@<TRIPOS>SUBSTRUCTURE
     1 CAZ         1 TEMP              0 ****  ****    0 ROOT
