@<TRIPOS>MOLECULE
CAZ
   49    50     1     0     0
SMALL
bcc


@<TRIPOS>ATOM
      1 S1         -0.5420    0.5880    1.2410 ss        1 CAZ     -0.399200
      2 C2          1.1790    0.3840    0.8640 c3        1 CAZ      0.052900
      3 C3          1.7870   -0.6950    1.6770 ce        1 CAZ     -0.238800
      4 C3'         2.9230   -0.5120    2.3610 c2        1 CAZ     -0.146000
      5 C4          1.0640   -1.9880    1.7120 ce        1 CAZ      0.485600
      6 C4'         1.9380   -3.2280    2.0350 c         1 CAZ      0.839300
      7 O4A         2.3900   -3.3320    3.2080 o         1 CAZ     -0.812800
      8 O4B         2.1430   -4.0560    1.1120 o         1 CAZ     -0.812800
      9 N5         -0.1950   -2.1660    1.4990 n2        1 CAZ     -0.647900
     10 C6         -1.1040   -1.1400    1.1030 c3        1 CAZ      0.227600
     11 C7         -2.4570   -1.1460    1.8670 c3        1 CAZ      0.014500
     12 C8         -3.6300   -0.8050    0.9260 c         1 CAZ      0.551900
     13 O9         -3.4550   -0.5510   -0.2610 o         1 CAZ     -0.495100
     14 N10        -2.7580   -2.4170    2.5900 ny        1 CAZ     -0.676800
     15 C11        -2.2620   -2.4860    3.9940 c         1 CAZ      0.486800
     16 O12        -1.7190   -1.5280    4.5210 o         1 CAZ     -0.431100
     17 C13        -2.5840   -3.8150    4.6340 ce        1 CAZ      0.253300
     18 N16        -3.8000   -4.1730    4.9620 n2        1 CAZ     -0.324200
     19 O17        -4.6990   -3.2530    4.7220 os        1 CAZ     -0.216300
     20 C18        -6.0890   -3.6790    4.4450 c3        1 CAZ      0.053800
     21 C14        -1.4020   -4.6660    4.7850 cc        1 CAZ      0.313000
     22 C15        -0.9150   -5.2020    5.9640 cd        1 CAZ     -0.223400
     23 S16         0.5380   -5.9870    5.6930 ss        1 CAZ     -0.160300
     24 C17         0.4740   -5.5750    3.9720 cd        1 CAZ      0.700300
     25 N18         1.4770   -6.0360    3.1210 nv        1 CAZ     -0.878500
     26 N19        -0.6310   -4.8860    3.6430 nc        1 CAZ     -0.703000
     27 C19        -6.2510   -5.1480    4.1280 c3        1 CAZ     -0.097100
     28 C20        -6.8980   -3.2730    5.6600 c3        1 CAZ     -0.097100
     29 C21        -6.4710   -2.8390    3.1880 c         1 CAZ      0.936600
     30 O2A        -7.6830   -2.5990    2.9930 o         1 CAZ     -0.816300
     31 O2B        -5.5450   -2.4580    2.3980 o         1 CAZ     -0.816300
     32 HC21        1.6520    1.3770    1.0650 h1        1 CAZ      0.072700
     33 HC22        1.2960    0.1530   -0.2250 h1        1 CAZ      0.072700
     34 HC31        3.4570    0.4480    2.3560 ha        1 CAZ      0.132000
     35 HC32        3.3690   -1.3170    2.9690 ha        1 CAZ      0.132000
     36 HC6        -1.3250   -1.3090    0.0060 h2        1 CAZ      0.109700
     37 HC7        -2.4170   -0.3170    2.6450 hx        1 CAZ      0.130700
     38 HC8        -4.6360   -0.7960    1.4130 h4        1 CAZ      0.091200
     39 H10N       -3.8250   -2.5530    2.6440 hn        1 CAZ      0.507800
     40 H15C       -1.3860   -5.1150    6.9390 h4        1 CAZ      0.178000
     41 H181        2.3640   -5.6210    3.3730 hn        1 CAZ      0.426300
     42 H182        1.2960   -5.8180    2.1500 hn        1 CAZ      0.426300
     43 H191       -5.5910   -5.4440    3.2770 hc        1 CAZ      0.048200
     44 H192       -6.0140   -5.7850    5.0130 hc        1 CAZ      0.048200
     45 H193       -7.3140   -5.3210    3.8290 hc        1 CAZ      0.048200
     46 H201       -6.7370   -3.9880    6.5000 hc        1 CAZ      0.048200
     47 H202       -6.6000   -2.2510    5.9950 hc        1 CAZ      0.048200
     48 H203       -7.9780   -3.2580    5.3750 hc        1 CAZ      0.048200
     49 H102       -2.3520   -3.2110    2.0760 hn        1 CAZ      0.507800
@<TRIPOS>BOND
     1    1    2 1   
     2    1   10 1   
     3    2    3 1   
     4    2   32 1   
     5    2   33 1   
     6    3    4 2   
     7    3    5 1   
     8    4   34 1   
     9    4   35 1   
    10    5    6 1   
    11    5    9 2   
    12    6    7 1   
    13    6    8 1   
    14    9   10 1   
    15   10   11 1   
    16   10   36 1   
    17   11   12 1   
    18   11   14 1   
    19   11   37 1   
    20   12   13 2   
    21   12   38 1   
    22   14   15 1   
    23   14   39 1   
    24   14   49 1   
    25   15   16 2   
    26   15   17 1   
    27   17   18 2   
    28   17   21 1   
    29   18   19 1   
    30   19   20 1   
    31   20   27 1   
    32   20   28 1   
    33   20   29 1   
    34   21   22 2   
    35   21   26 1   
    36   22   23 1   
    37   22   40 1   
    38   23   24 1   
    39   24   25 1   
    40   24   26 2   
    41   25   41 1   
    42   25   42 1   
    43   27   43 1   
    44   27   44 1   
    45   27   45 1   
    46   28   46 1   
    47   28   47 1   
    48   28   48 1   
    49   29   30 1   
    50   29   31 1   
@<TRIPOS>SUBSTRUCTURE
     1 CAZ         1 TEMP              0 ****  ****    0 ROOT
