@<TRIPOS>MOLECULE
CAZ
   48    49     1     0     0
SMALL
bcc


@<TRIPOS>ATOM
      1 S1         -3.6880   -2.6490   -0.7760 ss        1 CAZ     -0.462200
      2 C2         -5.1610   -1.7130   -0.4660 c3        1 CAZ      0.060900
      3 C3         -4.8560   -0.4820    0.2980 ce        1 CAZ     -0.221800
      4 C3'        -5.4630   -0.1810    1.4510 c2        1 CAZ     -0.176000
      5 C4         -3.8190    0.3980   -0.2970 ce        1 CAZ      0.445600
      6 C4'        -4.0460    1.9130   -0.0810 c         1 CAZ      0.837300
      7 O4A        -3.9720    2.3550    1.1010 o         1 CAZ     -0.820800
      8 O4B        -4.2880    2.6270   -1.0880 o         1 CAZ     -0.820800
      9 N5         -2.7960    0.0070   -0.9730 n2        1 CAZ     -0.584900
     10 C6         -2.4980   -1.3430   -1.3040 c3        1 CAZ      0.250600
     11 C7         -1.1320   -1.8770   -0.7840 c3        1 CAZ      0.000700
     12 C8         -0.6770   -3.0510   -1.6620 c         1 CAZ      0.572900
     13 O9         -0.9890   -3.1900   -2.8440 o         1 CAZ     -0.545100
     14 N10        -0.0700   -0.9020   -0.7330 n         1 CAZ     -0.526900
     15 C11         0.7230   -0.7820    0.3970 c         1 CAZ      0.587800
     16 O12         0.7010   -1.6300    1.3100 o         1 CAZ     -0.609100
     17 C13         1.6350    0.4200    0.4610 ce        1 CAZ      0.238300
     18 N16         2.9350    0.4560    0.3420 n2        1 CAZ     -0.371200
     19 O17         3.5690   -0.6530    0.0890 os        1 CAZ     -0.137300
     20 C18         5.0360   -0.5090   -0.0200 c3        1 CAZ      0.032800
     21 C14         0.9050    1.6670    0.7710 cc        1 CAZ      0.359000
     22 C15         1.1290    2.4460    1.8920 cd        1 CAZ     -0.236400
     23 S16         0.0200    3.7060    1.9780 ss        1 CAZ     -0.247300
     24 C17        -0.7460    3.1540    0.4760 cd        1 CAZ      0.690300
     25 N18        -1.7960    3.8940   -0.0630 nh        1 CAZ     -0.890500
     26 N19        -0.1470    2.0740   -0.0480 nc        1 CAZ     -0.695000
     27 C19         5.3940    0.4020   -1.1750 c3        1 CAZ     -0.091100
     28 C20         5.6110   -0.0130    1.2900 c3        1 CAZ     -0.091100
     29 C21         5.5370   -1.9710   -0.3420 c         1 CAZ      0.933600
     30 O2A         6.2320   -2.5420    0.5400 o         1 CAZ     -0.819800
     31 O2B         5.2730   -2.4390   -1.4780 o         1 CAZ     -0.819800
     32 HC21       -5.6480   -1.4470   -1.4380 h1        1 CAZ      0.060700
     33 HC22       -5.8450   -2.3960    0.0940 h1        1 CAZ      0.060700
     34 HC31       -6.2230   -0.8340    1.8970 ha        1 CAZ      0.125000
     35 HC32       -5.2180    0.7420    2.0030 ha        1 CAZ      0.125000
     36 HC6        -2.4910   -1.3980   -2.4320 h2        1 CAZ      0.101700
     37 HC7        -1.2970   -2.2910    0.2610 h1        1 CAZ      0.106700
     38 HC8        -0.0080   -3.7700   -1.1400 h4        1 CAZ      0.015200
     39 H10N       -0.1510   -0.1210   -1.3470 hn        1 CAZ      0.344500
     40 H15C        1.9000    2.2680    2.6360 h4        1 CAZ      0.175000
     41 H181       -2.5580    3.9740    0.5960 hn        1 CAZ      0.424300
     42 H182       -2.1570    3.5040   -0.9220 hn        1 CAZ      0.424300
     43 H191        6.4970    0.3600   -1.3400 hc        1 CAZ      0.032367
     44 H192        4.8810    0.0390   -2.0990 hc        1 CAZ      0.032367
     45 H193        5.0980    1.4590   -0.9770 hc        1 CAZ      0.032367
     46 H201        5.3850    1.0670    1.4550 hc        1 CAZ      0.032367
     47 H202        5.1890   -0.6130    2.1310 hc        1 CAZ      0.032367
     48 H203        6.7170   -0.1620    1.2740 hc        1 CAZ      0.032367
@<TRIPOS>BOND
     1    1    2 1   
     2    1   10 1   
     3    2    3 1   
     4    2   32 1   
     5    2   33 1   
     6    3    4 2   
     7    3    5 1   
     8    4   34 1   
     9    4   35 1   
    10    5    6 1   
    11    5    9 2   
    12    6    7 1   
    13    6    8 1   
    14    9   10 1   
    15   10   11 1   
    16   10   36 1   
    17   11   12 1   
    18   11   14 1   
    19   11   37 1   
    20   12   13 2   
    21   12   38 1   
    22   14   15 1   
    23   14   39 1   
    24   15   16 2   
    25   15   17 1   
    26   17   18 2   
    27   17   21 1   
    28   18   19 1   
    29   19   20 1   
    30   20   27 1   
    31   20   28 1   
    32   20   29 1   
    33   21   22 2   
    34   21   26 1   
    35   22   23 1   
    36   22   40 1   
    37   23   24 1   
    38   24   25 1   
    39   24   26 2   
    40   25   41 1   
    41   25   42 1   
    42   27   43 1   
    43   27   44 1   
    44   27   45 1   
    45   28   46 1   
    46   28   47 1   
    47   28   48 1   
    48   29   30 1   
    49   29   31 1   
@<TRIPOS>SUBSTRUCTURE
     1 CAZ         1 TEMP              0 ****  ****    0 ROOT
