@<TRIPOS>MOLECULE
CAZ
   49    50     1     0     0
SMALL
bcc


@<TRIPOS>ATOM
      1 S1         -0.5950    0.6580    1.3330 ss        1 CAZ     -0.399200
      2 C2          1.1320    0.4920    0.9580 c3        1 CAZ      0.052900
      3 C3          1.7550   -0.5950    1.7480 ce        1 CAZ     -0.238800
      4 C3'         2.8840   -0.4090    2.4420 c2        1 CAZ     -0.146000
      5 C4          1.0540   -1.9010    1.7490 ce        1 CAZ      0.485600
      6 C4'         1.9480   -3.1340    2.0460 c         1 CAZ      0.839300
      7 O4A         2.3970   -3.2580    3.2190 o         1 CAZ     -0.812800
      8 O4B         2.1720   -3.9340    1.1040 o         1 CAZ     -0.812800
      9 N5         -0.2010   -2.0950    1.5270 n2        1 CAZ     -0.647900
     10 C6         -1.1260   -1.0760    1.1510 c3        1 CAZ      0.227600
     11 C7         -2.4820   -1.1230    1.9080 c3        1 CAZ      0.014500
     12 C8         -3.6560   -0.7780    0.9710 c         1 CAZ      0.551900
     13 O9         -3.4820   -0.4950   -0.2090 o         1 CAZ     -0.495100
     14 N10        -2.7650   -2.4160    2.5980 n4        1 CAZ     -0.676800
     15 C11        -2.2730   -2.5120    4.0030 c         1 CAZ      0.486800
     16 O12        -1.7480   -1.5590    4.5550 o         1 CAZ     -0.431100
     17 C13        -2.5740   -3.8620    4.6070 ce        1 CAZ      0.253300
     18 N16        -3.7860   -4.2490    4.9200 n2        1 CAZ     -0.324200
     19 O17        -4.6990   -3.3390    4.6990 os        1 CAZ     -0.216300
     20 C18        -6.0800   -3.7810    4.4040 c3        1 CAZ      0.053800
     21 C14        -1.3790   -4.6960    4.7440 cc        1 CAZ      0.313000
     22 C15        -0.8870   -5.2520    5.9110 cd        1 CAZ     -0.223400
     23 S16         0.5800   -6.0040    5.6290 ss        1 CAZ     -0.160300
     24 C17         0.5170   -5.5520    3.9180 cd        1 CAZ      0.700300
     25 N18         1.5310   -5.9750    3.0610 nh        1 CAZ     -0.878500
     26 N19        -0.5990   -4.8740    3.6010 nc        1 CAZ     -0.702000
     27 C19        -6.2140   -5.2440    4.0460 c3        1 CAZ     -0.097100
     28 C20        -6.9010   -3.4240    5.6260 c3        1 CAZ     -0.097100
     29 C21        -6.4720   -2.9140    3.1690 c         1 CAZ      0.936600
     30 O2A        -7.6860   -2.6890    2.9750 o         1 CAZ     -0.816300
     31 O2B        -5.5500   -2.4970    2.3930 o         1 CAZ     -0.816300
     32 HC21        1.5870    1.4880    1.1850 h1        1 CAZ      0.072700
     33 HC22        1.2580    0.2890   -0.1350 h1        1 CAZ      0.072700
     34 HC31        3.3410   -1.2210    3.0330 ha        1 CAZ      0.132000
     35 HC32        3.4020    0.5590    2.4620 ha        1 CAZ      0.132000
     36 HC6        -1.3390   -1.2220    0.0490 h2        1 CAZ      0.109700
     37 HC7        -2.4580   -0.3130    2.7070 hx        1 CAZ      0.130700
     38 HC8        -4.6640   -0.7960    1.4540 h4        1 CAZ      0.091200
     39 H10N       -2.3430   -3.1900    2.0660 hn        1 CAZ      0.507800
     40 H15C       -1.3640   -5.1970    6.8860 h4        1 CAZ      0.178000
     41 H181        2.4100   -5.5500    3.3270 hn        1 CAZ      0.426300
     42 H182        1.3510   -5.7360    2.0940 hn        1 CAZ      0.426300
     43 H191       -5.5460   -5.5050    3.1910 hc        1 CAZ      0.048200
     44 H192       -5.9700   -5.9010    4.9140 hc        1 CAZ      0.048200
     45 H193       -7.2730   -5.4280    3.7370 hc        1 CAZ      0.048200
     46 H201       -6.6240   -2.4060    5.9900 hc        1 CAZ      0.048200
     47 H202       -7.9810   -3.4200    5.3360 hc        1 CAZ      0.048200
     48 H203       -6.7310   -4.1590    6.4470 hc        1 CAZ      0.048200
     49 H102       -3.8290   -2.5710    2.6440 hn        1 CAZ      0.507800
@<TRIPOS>BOND
     1    1    2 1   
     2    1   10 1   
     3    2    3 1   
     4    2   32 1   
     5    2   33 1   
     6    3    4 2   
     7    3    5 1   
     8    4   34 1   
     9    4   35 1   
    10    5    6 1   
    11    5    9 2   
    12    6    7 1   
    13    6    8 1   
    14    9   10 1   
    15   10   11 1   
    16   10   36 1   
    17   11   12 1   
    18   11   14 1   
    19   11   37 1   
    20   12   13 2   
    21   12   38 1   
    22   14   15 1   
    23   14   39 1   
    24   14   49 1   
    25   15   16 2   
    26   15   17 1   
    27   17   18 2   
    28   17   21 1   
    29   18   19 1   
    30   19   20 1   
    31   20   27 1   
    32   20   28 1   
    33   20   29 1   
    34   21   22 2   
    35   21   26 1   
    36   22   23 1   
    37   22   40 1   
    38   23   24 1   
    39   24   25 1   
    40   24   26 2   
    41   25   41 1   
    42   25   42 1   
    43   27   43 1   
    44   27   44 1   
    45   27   45 1   
    46   28   46 1   
    47   28   47 1   
    48   28   48 1   
    49   29   30 1   
    50   29   31 1   
@<TRIPOS>SUBSTRUCTURE
     1 CAZ         1 TEMP              0 ****  ****    0 ROOT
