@<TRIPOS>MOLECULE
CAZ
   50    51     1     0     0
SMALL
bcc


@<TRIPOS>ATOM
      1 S1         -0.4320    0.2730    0.2300 ss        1 CAZ     -0.354200
      2 C2          1.3350    0.1380    0.2750 c3        1 CAZ      0.041900
      3 C3          1.8020   -0.8230    1.3010 ce        1 CAZ     -0.246800
      4 C3'         2.7010   -0.5170    2.2420 c2        1 CAZ     -0.129000
      5 C4          1.1670   -2.1560    1.2110 ce        1 CAZ      0.486600
      6 C4'         2.0980   -3.3070    1.4460 c         1 CAZ      0.582800
      7 O4A         2.6960   -3.6010    2.4830 o         1 CAZ     -0.557000
      8 O4B         2.3190   -4.0720    0.3470 oh        1 CAZ     -0.575100
      9 N5         -0.0670   -2.4090    0.9320 n2        1 CAZ     -0.521900
     10 C6         -1.0290   -1.3810    0.6900 c3        1 CAZ      0.199600
     11 C7         -2.0200   -1.1280    1.8740 c3        1 CAZ     -0.000300
     12 C8         -3.2000   -0.3600    1.2730 c         1 CAZ      0.552900
     13 O9         -4.3710   -0.7190    1.3580 o         1 CAZ     -0.508100
     14 N10        -2.4050   -2.3130    2.5830 n         1 CAZ     -0.546900
     15 C11        -2.2360   -2.4370    3.9480 c         1 CAZ      0.590800
     16 O12        -1.7880   -1.5220    4.6570 o         1 CAZ     -0.576100
     17 C13        -2.6820   -3.7580    4.5400 ce        1 CAZ      0.303300
     18 N16        -3.9190   -4.1730    4.6380 n2        1 CAZ     -0.386200
     19 O17        -4.8370   -3.3660    4.1440 os        1 CAZ     -0.208300
     20 C18        -6.2210   -3.8120    4.3700 c3        1 CAZ      0.093800
     21 C14        -1.5860   -4.5910    5.0540 cc        1 CAZ      0.327000
     22 C15        -1.6920   -5.4710    6.1230 cd        1 CAZ     -0.222400
     23 S16        -0.2330   -6.2150    6.4320 ss        1 CAZ     -0.107300
     24 C17         0.5250   -5.3220    5.1230 cd        1 CAZ      0.621300
     25 N18         1.8450   -5.5940    4.7710 nh        1 CAZ     -0.890500
     26 N19        -0.3190   -4.4920    4.4800 nc        1 CAZ     -0.677000
     27 C19        -6.4920   -5.1080    3.6260 c3        1 CAZ     -0.112100
     28 C20        -6.5160   -3.9310    5.8540 c3        1 CAZ     -0.112100
     29 C21        -7.0750   -2.6990    3.7660 c         1 CAZ      0.633100
     30 O2A        -8.2900   -2.6040    3.9500 o         1 CAZ     -0.500000
     31 O2B        -6.5570   -1.7420    2.9610 oh        1 CAZ     -0.558100
     32 HC21        1.7080   -0.1720   -0.7340 h1        1 CAZ      0.089700
     33 HC22        1.7100    1.1730    0.4790 h1        1 CAZ      0.089700
     34 HC31        3.1490    0.4840    2.3160 ha        1 CAZ      0.140000
     35 HC32        3.0330   -1.2490    2.9950 ha        1 CAZ      0.140000
     36 HC6        -1.6210   -1.7430   -0.2020 h2        1 CAZ      0.111700
     37 HC7        -1.5160   -0.4220    2.6110 h1        1 CAZ      0.130700
     38 HC8        -2.8970    0.5790    0.7530 h4        1 CAZ      0.029200
     39 H10N       -5.6030   -1.8590    2.8220 ho        1 CAZ      0.460000
     40 H15C       -2.6000   -5.6550    6.6970 h4        1 CAZ      0.192000
     41 H181        2.9230   -4.8010    0.5740 ho        1 CAZ      0.451000
     42 H182        2.1770   -5.0720    3.9810 hn        1 CAZ      0.407300
     43 H191       -6.1290   -5.0320    2.5730 hc        1 CAZ      0.062700
     44 H192       -5.9700   -5.9590    4.1250 hc        1 CAZ      0.062700
     45 H193       -7.5910   -5.3060    3.6230 hc        1 CAZ      0.062700
     46 H201       -6.1140   -3.0430    6.3990 hc        1 CAZ      0.062700
     47 H202       -7.6220   -3.9810    6.0050 hc        1 CAZ      0.062700
     48 H203       -6.0480   -4.8540    6.2720 hc        1 CAZ      0.062700
     49 H102       -2.6970   -3.0970    2.0490 hn        1 CAZ      0.330500
     50 H183        2.4670   -5.5240    5.5500 hn        1 CAZ      0.407300
@<TRIPOS>BOND
     1    1    2 1   
     2    1   10 1   
     3    2    3 1   
     4    2   32 1   
     5    2   33 1   
     6    3    4 2   
     7    3    5 1   
     8    4   34 1   
     9    4   35 1   
    10    5    6 1   
    11    5    9 2   
    12    6    7 2   
    13    6    8 1   
    14    8   41 1   
    15    9   10 1   
    16   10   11 1   
    17   10   36 1   
    18   11   12 1   
    19   11   14 1   
    20   11   37 1   
    21   12   13 2   
    22   12   38 1   
    23   14   15 1   
    24   14   49 1   
    25   15   16 2   
    26   15   17 1   
    27   17   18 2   
    28   17   21 1   
    29   18   19 1   
    30   19   20 1   
    31   20   27 1   
    32   20   28 1   
    33   20   29 1   
    34   21   22 2   
    35   21   26 1   
    36   22   23 1   
    37   22   40 1   
    38   23   24 1   
    39   24   25 1   
    40   24   26 2   
    41   25   42 1   
    42   25   50 1   
    43   27   43 1   
    44   27   44 1   
    45   27   45 1   
    46   28   46 1   
    47   28   47 1   
    48   28   48 1   
    49   29   30 2   
    50   29   31 1   
    51   31   39 1   
@<TRIPOS>SUBSTRUCTURE
     1 CAZ         1 TEMP              0 ****  ****    0 ROOT
