@<TRIPOS>MOLECULE
CB1
   26    27     1     0     0
SMALL
bcc


@<TRIPOS>ATOM
      1 C           0.0950    0.1100   -0.0160 ca        1 CB1      0.002000
      2 C1          1.4940    0.1600    0.0150 ca        1 CB1     -0.195200
      3 C2          2.1800   -0.0260    1.2310 ca        1 CB1     -0.017600
      4 C4          1.4600   -0.2250    2.4000 ca        1 CB1     -0.154000
      5 C5          0.0410   -0.2500    2.4170 ca        1 CB1      0.217600
      6 C8         -0.6230   -0.1060    1.1670 ca        1 CB1     -0.204200
      7 N           2.2110    0.3970   -1.2660 no        1 CB1      0.323200
      8 O1          3.3000    0.9070   -1.2480 o         1 CB1     -0.199000
      9 O2          1.6640    0.0930   -2.2900 o         1 CB1     -0.199000
     10 C3          3.6790   -0.0970    1.3360 c         1 CB1      0.651700
     11 N1          4.3750    1.0900    1.3370 n         1 CB1     -0.614000
     12 O           4.2370   -1.1930    1.5320 o         1 CB1     -0.574100
     13 N6         -0.6460   -0.2370    3.6310 nh        1 CB1     -0.589000
     14 C7         -1.5480   -1.2720    4.1130 cx        1 CB1      0.105800
     15 C9         -0.2390   -1.0140    4.7930 cx        1 CB1      0.105800
     16 N3         -2.1090   -0.1600    1.0640 no        1 CB1      0.325200
     17 O3         -2.7180   -0.9570    1.7250 o         1 CB1     -0.195500
     18 O4         -2.6490    0.5810    0.2900 o         1 CB1     -0.195500
     19 H1         -0.4450    0.2410   -0.9760 ha        1 CB1      0.201000
     20 H41         2.0130   -0.3720    3.3450 ha        1 CB1      0.175000
     21 HN11        3.9690    1.8710    0.8760 hn        1 CB1      0.314000
     22 HN12        5.3670    1.0250    1.2960 hn        1 CB1      0.314000
     23 H71        -2.5050   -0.8900    4.5300 h1        1 CB1      0.100950
     24 H72        -1.6990   -2.2010    3.5200 h1        1 CB1      0.100950
     25 H91        -0.1890   -0.4400    5.7430 h1        1 CB1      0.100950
     26 H92         0.5820   -1.7580    4.7090 h1        1 CB1      0.100950
@<TRIPOS>BOND
     1    1    2 ar  
     2    1    6 ar  
     3    1   19 1   
     4    2    3 ar  
     5    2    7 1   
     6    3    4 ar  
     7    3   10 1   
     8    4    5 ar  
     9    4   20 1   
    10    5    6 ar  
    11    5   13 1   
    12    6   16 1   
    13    7    8 1   
    14    7    9 1   
    15   10   11 1   
    16   10   12 2   
    17   11   21 1   
    18   11   22 1   
    19   13   14 1   
    20   13   15 1   
    21   14   15 1   
    22   14   23 1   
    23   14   24 1   
    24   15   25 1   
    25   15   26 1   
    26   16   17 1   
    27   16   18 1   
@<TRIPOS>SUBSTRUCTURE
     1 CB1         1 TEMP              0 ****  ****    0 ROOT
