@<TRIPOS>MOLECULE
CB1
   26    24     1     0     0
SMALL
bcc


@<TRIPOS>ATOM
      1 C          -0.8360    0.2250   -1.8280 c1        1 CB1      0.059500
      2 C1          0.5540    0.2840   -1.8380 c1        1 CB1     -0.206300
      3 C2          1.2600    0.2910   -0.6380 cg        1 CB1      0.035800
      4 C4          0.5740    0.2380    0.5730 c1        1 CB1     -0.097500
      5 C5         -0.8170    0.1790    0.5830 c1        1 CB1      0.193800
      6 C8         -1.5220    0.1730   -0.6170 c1        1 CB1     -0.214300
      7 N           1.2590    0.2910   -3.0800 no        1 CB1      0.332300
      8 O1          2.1110   -0.5600   -3.3050 o         1 CB1     -0.199000
      9 O2          0.9400    1.2120   -4.0420 o         1 CB1     -0.199000
     10 C3          2.7820    0.4360   -0.6480 c         1 CB1      0.599300
     11 N1          3.5090    0.4430    0.5840 n         1 CB1     -0.614000
     12 O           3.3750    0.5610   -1.7050 o         1 CB1     -0.566100
     13 N6         -1.5270    0.2330    1.8330 n3        1 CB1     -0.560200
     14 C7         -2.0610   -1.0910    2.1480 cx        1 CB1      0.106300
     15 C9         -0.8670   -0.6330    2.8080 cx        1 CB1      0.106300
     16 N3         -2.9510    0.2140   -0.6050 no        1 CB1      0.333300
     17 O3         -3.5420    0.6990    0.3540 o         1 CB1     -0.195500
     18 O4         -3.6570   -0.2270   -1.6930 o         1 CB1     -0.195500
     19 H1         -1.3340    0.2210   -2.6750 ha        1 CB1      0.144500
     20 H41         1.0710    0.2430    1.4170 ha        1 CB1      0.118500
     21 HN11        4.4230    0.5310    0.5770 hn        1 CB1      0.310500
     22 HN12        3.0640    0.3400    1.3780 hn        1 CB1      0.310500
     23 H71        -2.8740   -1.1030    2.7000 h1        1 CB1      0.100200
     24 H72        -1.9300   -1.7780    1.4600 h1        1 CB1      0.100200
     25 H91        -0.0310   -1.0490    2.5100 h1        1 CB1      0.100200
     26 H92        -0.9730   -0.3730    3.7500 h1        1 CB1      0.100200
@<TRIPOS>BOND
     1    1    6 3   
     2    1   19 1   
     3    2    3 3   
     4    2    7 1   
     5    3   10 1   
     6    4    5 3   
     7    4   20 1   
     8    5   13 1   
     9    6   16 1   
    10    7    8 1   
    11    7    9 1   
    12   10   11 1   
    13   10   12 2   
    14   11   21 1   
    15   11   22 1   
    16   13   14 1   
    17   13   15 1   
    18   14   15 1   
    19   14   23 1   
    20   14   24 1   
    21   15   25 1   
    22   15   26 1   
    23   16   17 1   
    24   16   18 1   
@<TRIPOS>SUBSTRUCTURE
     1 CB1         1 TEMP              0 ****  ****    0 ROOT
