@<TRIPOS>MOLECULE
CB1
   26    27     1     0     0
SMALL
bcc


@<TRIPOS>ATOM
      1 C          -0.0250   -1.3480   -0.1450 ca        1 CB1      0.002000
      2 C1          1.1990   -0.6680   -0.1670 ca        1 CB1     -0.195200
      3 C2          1.2290    0.7350   -0.0590 ca        1 CB1     -0.017600
      4 C4          0.0390    1.4400    0.0370 ca        1 CB1     -0.154000
      5 C5         -1.2250    0.7930    0.0300 ca        1 CB1      0.217600
      6 C8         -1.2220   -0.6280   -0.0340 ca        1 CB1     -0.204200
      7 N           2.4420   -1.4760   -0.2920 no        1 CB1      0.323200
      8 O1          3.4220   -0.9790   -0.7790 o         1 CB1     -0.199000
      9 O2          2.4190   -2.6180    0.0750 o         1 CB1     -0.199000
     10 C3          2.5010    1.5330    0.0370 c         1 CB1      0.651700
     11 N1          3.1790    1.7940   -1.1320 n         1 CB1     -0.614000
     12 O           2.8430    2.0290    1.1260 o         1 CB1     -0.574100
     13 N6         -2.3960    1.5410   -0.0880 nh        1 CB1     -0.589000
     14 C7         -3.4730    1.6020    0.8890 cx        1 CB1      0.105800
     15 C9         -2.6190    2.8000    0.6090 cx        1 CB1      0.105800
     16 N3         -2.4890   -1.4110   -0.0040 no        1 CB1      0.325200
     17 O3         -3.3780   -1.0690    0.7280 o         1 CB1     -0.195500
     18 O4         -2.5670   -2.3880   -0.6970 o         1 CB1     -0.195500
     19 H1         -0.0480   -2.4550   -0.2160 ha        1 CB1      0.201000
     20 H41         0.0790    2.5410    0.1240 ha        1 CB1      0.175000
     21 HN11        4.0710    2.2250   -1.0430 hn        1 CB1      0.314000
     22 HN12        3.0770    1.1530   -1.8840 hn        1 CB1      0.314000
     23 H71        -4.4920    1.5000    0.4560 h1        1 CB1      0.100950
     24 H72        -3.3800    1.0610    1.8560 h1        1 CB1      0.100950
     25 H91        -1.8950    3.1520    1.3740 h1        1 CB1      0.100950
     26 H92        -2.9860    3.6290   -0.0340 h1        1 CB1      0.100950
@<TRIPOS>BOND
     1    1    2 ar  
     2    1    6 ar  
     3    1   19 1   
     4    2    3 ar  
     5    2    7 1   
     6    3    4 ar  
     7    3   10 1   
     8    4    5 ar  
     9    4   20 1   
    10    5    6 ar  
    11    5   13 1   
    12    6   16 1   
    13    7    8 1   
    14    7    9 1   
    15   10   11 1   
    16   10   12 2   
    17   11   21 1   
    18   11   22 1   
    19   13   14 1   
    20   13   15 1   
    21   14   15 1   
    22   14   23 1   
    23   14   24 1   
    24   15   25 1   
    25   15   26 1   
    26   16   17 1   
    27   16   18 1   
@<TRIPOS>SUBSTRUCTURE
     1 CB1         1 TEMP              0 ****  ****    0 ROOT
