@<TRIPOS>MOLECULE
CB1
   27    28     1     0     0
SMALL
bcc


@<TRIPOS>ATOM
      1 C           0.1300    0.0290   -0.0350 ca        1 CB1      0.040000
      2 C1          1.5270    0.0900    0.0080 ca        1 CB1     -0.224200
      3 C2          2.1970   -0.0890    1.2400 ca        1 CB1     -0.070600
      4 C4          1.4820   -0.3050    2.4020 ca        1 CB1     -0.155000
      5 C5          0.0470   -0.3350    2.4050 ca        1 CB1      0.276600
      6 C8         -0.5970   -0.1930    1.1390 ca        1 CB1     -0.213200
      7 N           2.2890    0.3180   -1.2440 no        1 CB1      0.329200
      8 O1          3.4700    0.5730   -1.1420 o         1 CB1     -0.192500
      9 O2          1.7330    0.2590   -2.2950 o         1 CB1     -0.192500
     10 C3          3.6750   -0.1370    1.3050 c         1 CB1      0.578700
     11 N1          4.3650    1.2080    1.3770 nz        1 CB1     -0.756400
     12 O           4.4050   -1.1100    1.3330 o         1 CB1     -0.359100
     13 N6         -0.6230   -0.3030    3.5970 nh        1 CB1     -0.621000
     14 C7         -1.6750   -1.1360    4.1510 cx        1 CB1      0.137800
     15 C9         -0.3360   -1.0240    4.8230 cx        1 CB1      0.137800
     16 N3         -2.0880   -0.2560    1.0160 no        1 CB1      0.327200
     17 O3         -2.6910   -1.0390    1.6930 o         1 CB1     -0.168000
     18 O4         -2.6080    0.4680    0.2170 o         1 CB1     -0.168000
     19 H1         -0.4030    0.1590   -1.0040 ha        1 CB1      0.223000
     20 H41         2.0110   -0.4740    3.3570 ha        1 CB1      0.173000
     21 HN11        5.3560    1.0830    1.6170 hn        1 CB1      0.479467
     22 HN12        4.3070    1.6550    0.4460 hn        1 CB1      0.479467
     23 H71        -2.5610   -0.5780    4.5300 h1        1 CB1      0.114700
     24 H72        -1.9690   -2.0790    3.6350 h1        1 CB1      0.114700
     25 H91        -0.2000   -0.3900    5.7260 h1        1 CB1      0.114700
     26 H92         0.3630   -1.8890    4.8060 h1        1 CB1      0.114700
     27 H13         3.9130    1.8100    2.0690 hn        1 CB1      0.479467
@<TRIPOS>BOND
     1    1    2 ar  
     2    1    6 ar  
     3    1   19 1   
     4    2    3 ar  
     5    2    7 1   
     6    3    4 ar  
     7    3   10 1   
     8    4    5 ar  
     9    4   20 1   
    10    5    6 ar  
    11    5   13 1   
    12    6   16 1   
    13    7    8 1   
    14    7    9 1   
    15   10   11 1   
    16   10   12 2   
    17   11   21 1   
    18   11   22 1   
    19   11   27 1   
    20   13   14 1   
    21   13   15 1   
    22   14   15 1   
    23   14   23 1   
    24   14   24 1   
    25   15   25 1   
    26   15   26 1   
    27   16   17 1   
    28   16   18 1   
@<TRIPOS>SUBSTRUCTURE
     1 CB1         1 TEMP              0 ****  ****    0 ROOT
