@<TRIPOS>MOLECULE
CB1
   27    28     1     0     0
SMALL
bcc


@<TRIPOS>ATOM
      1 C           0.1330    0.0180   -0.0380 ca        1 CB1      0.040000
      2 C1          1.5300    0.0800    0.0070 ca        1 CB1     -0.223200
      3 C2          2.1970   -0.0920    1.2420 ca        1 CB1     -0.070600
      4 C4          1.4810   -0.3020    2.4040 ca        1 CB1     -0.155000
      5 C5          0.0460   -0.3310    2.4050 ca        1 CB1      0.276600
      6 C8         -0.5970   -0.1960    1.1370 ca        1 CB1     -0.213200
      7 N           2.2930    0.2990   -1.2450 no        1 CB1      0.329200
      8 O1          3.4750    0.5540   -1.1420 o         1 CB1     -0.192500
      9 O2          1.7400    0.2340   -2.2960 o         1 CB1     -0.192500
     10 C3          3.6760   -0.1410    1.3090 c         1 CB1      0.578700
     11 N1          4.3660    1.2040    1.3750 n4        1 CB1     -0.756400
     12 O           4.4050   -1.1140    1.3440 o         1 CB1     -0.359100
     13 N6         -0.6260   -0.2920    3.5960 nh        1 CB1     -0.621000
     14 C7         -1.6790   -1.1210    4.1530 cx        1 CB1      0.137800
     15 C9         -0.3410   -1.0050    4.8260 cx        1 CB1      0.137800
     16 N3         -2.0870   -0.2600    1.0120 no        1 CB1      0.327200
     17 O3         -2.6920   -1.0380    1.6930 o         1 CB1     -0.168000
     18 O4         -2.6050    0.4600    0.2080 o         1 CB1     -0.168000
     19 H1         -0.3980    0.1430   -1.0080 ha        1 CB1      0.223000
     20 H41         2.0080   -0.4650    3.3610 ha        1 CB1      0.173000
     21 HN11        5.3570    1.0810    1.6170 hn        1 CB1      0.479467
     22 HN12        4.3100    1.6460    0.4410 hn        1 CB1      0.479467
     23 H71        -2.5660   -0.5590    4.5270 h1        1 CB1      0.114700
     24 H72        -1.9720   -2.0660    3.6420 h1        1 CB1      0.114700
     25 H91         0.3580   -1.8700    4.8160 h1        1 CB1      0.114700
     26 H92        -0.2070   -0.3650    5.7260 h1        1 CB1      0.114700
     27 H13         3.9130    1.8110    2.0620 hn        1 CB1      0.479467
@<TRIPOS>BOND
     1    1    2 ar  
     2    1    6 ar  
     3    1   19 1   
     4    2    3 ar  
     5    2    7 1   
     6    3    4 ar  
     7    3   10 1   
     8    4    5 ar  
     9    4   20 1   
    10    5    6 ar  
    11    5   13 1   
    12    6   16 1   
    13    7    8 1   
    14    7    9 1   
    15   10   11 1   
    16   10   12 2   
    17   11   21 1   
    18   11   22 1   
    19   11   27 1   
    20   13   14 1   
    21   13   15 1   
    22   14   15 1   
    23   14   23 1   
    24   14   24 1   
    25   15   25 1   
    26   15   26 1   
    27   16   17 1   
    28   16   18 1   
@<TRIPOS>SUBSTRUCTURE
     1 CB1         1 TEMP              0 ****  ****    0 ROOT
