@<TRIPOS>MOLECULE
CB2
   33    32     1     0     0
SMALL
bcc


@<TRIPOS>ATOM
      1 O3'        -3.6590    0.1600    0.4820 oh        1 CB2     -0.358000
      2 C3'        -2.1340    0.1430    0.4490 c3        1 CB2     -0.069000
      3 C2'        -1.6540    0.1550    1.6550 c3        1 CB2      0.042000
      4 O2'        -1.3470    1.5450    2.0670 oh        1 CB2     -0.385000
      5 C1'        -0.3120   -0.7180    1.6100 c3        1 CB2      0.100000
      6 O4'        -0.5440   -1.7120    0.7970 os        1 CB2     -0.301000
      7 C4'        -1.6160   -1.1900   -0.1780 c3        1 CB2     -0.029000
      8 C5'        -1.0570   -0.9560   -1.4510 c3        1 CB2      0.067000
      9 O5'        -0.8480   -2.2230   -2.1250 os        1 CB2     -0.735000
     10 P          -1.0230   -2.2840   -3.7330 p5        1 CB2      1.575500
     11 OP1        -2.4870   -2.0910   -4.0920 o         1 CB2     -0.914500
     12 OP2        -0.5550   -3.6260   -4.2370 o         1 CB2     -0.914500
     13 OP3        -0.1900   -1.1760   -4.3790 o         1 CB2     -0.914500
     14 N1          0.7950    0.0870    1.1160 n3        1 CB2     -0.225000
     15 C6          2.0820   -0.5010    0.9570 c2        1 CB2      0.144000
     16 C5          3.2450    0.3480    0.7320 c1        1 CB2     -0.436000
     17 BR          5.0230   -0.4050    0.8230 br        1 CB2      0.056000
     18 C4          3.0660    1.8080    0.5420 c2        1 CB2      0.212000
     19 N3          1.7800    2.3700    0.6280 n1        1 CB2     -0.338000
     20 C2          0.6280    1.5250    0.9680 c1        1 CB2      0.344000
     21 O2         -0.4690    2.0090    1.0410 o         1 CB2     -0.398000
     22 N4          4.2270    2.6710    0.4460 n3        1 CB2     -0.339000
     23 HO3'       -3.9490    0.9620    0.2590 ho        1 CB2      0.203000
     24 H3'        -1.7970    0.9080   -0.0560 h1        1 CB2      0.226000
     25 H2'        -2.3260   -0.2680    2.3060 h1        1 CB2      0.093000
     26 HO2'       -1.9230    1.8060    2.6400 ho        1 CB2      0.305000
     27 H1'        -0.1110   -1.0500    2.4820 h2        1 CB2      0.127000
     28 H4'        -2.3510   -1.8390   -0.2460 h1        1 CB2      0.081000
     29 H5'        -0.1600   -0.4730   -1.3470 h1        1 CB2      0.040000
     30 H5''       -1.6870   -0.3840   -1.9950 h1        1 CB2      0.040000
     31 H6          2.1990   -1.5200    1.0530 h4        1 CB2      0.311000
     32 HN41        4.1170    3.5980    0.3350 hn        1 CB2      0.194000
     33 HN42        5.0370    2.3210    0.4490 hn        1 CB2      0.194000
@<TRIPOS>BOND
     1    1    2 1   
     2    1   23 1   
     3    2    3 1   
     4    2    7 1   
     5    2   24 1   
     6    3    4 1   
     7    3    5 1   
     8    3   25 1   
     9    4   26 1   
    10    5    6 1   
    11    5   14 1   
    12    5   27 1   
    13    6    7 1   
    14    7    8 1   
    15    7   28 1   
    16    8    9 1   
    17    8   29 1   
    18    8   30 1   
    19    9   10 1   
    20   10   11 1   
    21   10   12 1   
    22   10   13 1   
    23   14   15 1   
    24   14   20 1   
    25   15   16 1   
    26   15   31 1   
    27   16   18 1   
    28   18   19 1   
    29   18   22 1   
    30   20   21 1   
    31   22   32 1   
    32   22   33 1   
@<TRIPOS>SUBSTRUCTURE
     1 CB2         1 TEMP              0 ****  ****    0 ROOT
