@<TRIPOS>MOLECULE
CB2
   33    34     1     0     0
SMALL
bcc


@<TRIPOS>ATOM
      1 O3'         2.5670   -0.9700    0.6790 oh        1 CB2     -0.598800
      2 C3'         2.4260    0.0440   -0.3020 c3        1 CB2      0.078100
      3 C2'         0.9410    0.4640   -0.4350 c3        1 CB2      0.113100
      4 O2'         0.4890    0.2670   -1.7460 oh        1 CB2     -0.633800
      5 C1'         0.9000    1.9130    0.1420 c3        1 CB2      0.279500
      6 O4'         2.2620    2.4040    0.1630 os        1 CB2     -0.424600
      7 C4'         3.1980    1.3210    0.0680 c3        1 CB2      0.091100
      8 C5'         4.2980    1.7140   -0.9340 c3        1 CB2      0.181400
      9 O5'         5.5330    1.6670   -0.2870 os        1 CB2     -0.587200
     10 P           6.7740    0.8580   -1.0090 p5        1 CB2      1.427800
     11 OP1         7.7420    0.5240    0.0580 o         1 CB2     -0.841000
     12 OP2         7.4600    2.1550   -1.7380 oh        1 CB2     -0.779400
     13 OP3         6.2410   -0.0600   -2.0340 o         1 CB2     -0.841000
     14 N1          0.0350    2.8620   -0.5250 n         1 CB2     -0.323400
     15 C6          0.0260    2.9340   -1.8820 c1        1 CB2     -0.060900
     16 C5         -0.7750    3.9100   -2.4990 ce        1 CB2     -0.474000
     17 BR         -0.7970    3.9590   -4.3660 br        1 CB2     -0.154700
     18 C4         -1.5210    4.8270   -1.6960 ce        1 CB2      0.719500
     19 N3         -1.5500    4.7320   -0.3430 nf        1 CB2     -0.793100
     20 C2         -0.7730    3.7520    0.2760 c         1 CB2      0.763500
     21 O2         -0.8010    3.6050    1.5280 o         1 CB2     -0.683100
     22 N4         -2.2310    5.8890   -2.2970 nh        1 CB2     -0.894800
     23 HO3'        2.4060   -0.5600    1.5370 ho        1 CB2      0.384000
     24 H3'         2.8000   -0.4280   -1.2500 h1        1 CB2      0.116700
     25 H2'         0.2950   -0.2010    0.2050 h1        1 CB2      0.050700
     26 HO2'        0.6170    1.1020   -2.2540 ho        1 CB2      0.474000
     27 H1'         0.5780    1.8580    1.2280 h2        1 CB2      0.071700
     28 H4'         3.6640    1.2140    1.0890 h1        1 CB2      0.059700
     29 H5'         4.1000    2.7720   -1.2690 h1        1 CB2      0.052200
     30 H5''        4.2980    1.0260   -1.8240 h1        1 CB2      0.052200
     31 H6          8.0200    2.6310   -1.1380 ho        1 CB2      0.417000
     32 HN41       -2.9260    6.3110   -1.7220 hn        1 CB2      0.378300
     33 HN42       -2.5630    5.6650   -3.2090 hn        1 CB2      0.378300
@<TRIPOS>BOND
     1    1    2 1   
     2    1   23 1   
     3    2    3 1   
     4    2    7 1   
     5    2   24 1   
     6    3    4 1   
     7    3    5 1   
     8    3   25 1   
     9    4   26 1   
    10    5    6 1   
    11    5   14 1   
    12    5   27 1   
    13    6    7 1   
    14    7    8 1   
    15    7   28 1   
    16    8    9 1   
    17    8   29 1   
    18    8   30 1   
    19    9   10 1   
    20   10   11 1   
    21   10   12 1   
    22   10   13 1   
    23   12   31 1   
    24   14   15 2   
    25   14   20 1   
    26   15   16 2   
    27   16   17 1   
    28   16   18 1   
    29   18   19 2   
    30   18   22 1   
    31   19   20 1   
    32   20   21 2   
    33   22   32 1   
    34   22   33 1   
@<TRIPOS>SUBSTRUCTURE
     1 CB2         1 TEMP              0 ****  ****    0 ROOT
