@<TRIPOS>MOLECULE
CB3
   57    58     1     0     0
SMALL
bcc


@<TRIPOS>ATOM
      1 N1         -0.0210   -1.9070   -0.6610 na        1 CB3     -0.729600
      2 C2         -0.9890   -2.7530   -1.2540 cc        1 CB3      0.829100
      3 NA2        -0.6710   -3.2600   -2.5450 nv        1 CB3     -0.887800
      4 N3         -2.1550   -3.0660   -0.6920 nd        1 CB3     -0.743100
      5 C4         -2.5330   -2.4540    0.5230 c         1 CB3      0.718100
      6 O4         -3.6230   -2.7420    1.0450 o         1 CB3     -0.549100
      7 C4A        -1.5970   -1.4830    1.1440 ca        1 CB3     -0.214600
      8 C5         -1.9240   -0.8230    2.3330 ca        1 CB3     -0.044000
      9 C6         -1.0400    0.0890    2.9050 ca        1 CB3     -0.120300
     10 C7          0.1840    0.3520    2.2720 ca        1 CB3     -0.050000
     11 C8          0.5300   -0.2850    1.0890 ca        1 CB3     -0.193000
     12 C8A        -0.3580   -1.2190    0.5100 ca        1 CB3      0.167600
     13 C9         -1.3920    0.7430    4.2150 c3        1 CB3      0.237100
     14 N10        -1.0680    2.1580    4.2620 nh        1 CB3     -0.654000
     15 C11         1.6550    3.4680    7.2340 ca        1 CB3     -0.226600
     16 C12         1.9050    2.3090    6.4900 ca        1 CB3     -0.052000
     17 C13         0.9970    1.8650    5.5380 ca        1 CB3     -0.200500
     18 C14        -0.2040    2.5800    5.3050 ca        1 CB3      0.147600
     19 C15        -0.4530    3.7380    6.0720 ca        1 CB3     -0.200500
     20 C16         0.4690    4.1790    7.0180 ca        1 CB3     -0.052000
     21 O           3.6830    3.3790    8.4800 o         1 CB3     -0.589100
     22 N           0.6910    7.1390   12.1990 nv        1 CB3     -0.345100
     23 CA         -0.2510    8.0430   12.2020 ce        1 CB3      0.270300
     24 CB         -0.8520    8.6110   10.9620 c3        1 CB3     -0.165700
     25 CG          0.0430    8.6330    9.7450 c3        1 CB3     -0.202400
     26 CD          0.1540    7.2740    9.0520 c         1 CB3      0.902600
     27 OE1        -0.5530    7.0370    8.0380 o         1 CB3     -0.846300
     28 OE2         0.9830    6.4150    9.5080 o         1 CB3     -0.846300
     29 CT         -0.8090    8.5790   13.5860 c         1 CB3      0.812300
     30 O1         -0.4260    7.9400   14.5940 o         1 CB3     -0.758300
     31 O2         -1.5520    9.5770   13.5170 o         1 CB3     -0.758300
     32 CP1        -2.1490    3.0380    3.8700 c3        1 CB3      0.272900
     33 CP2        -3.3240    3.0710    4.7170 c1        1 CB3     -0.179100
     34 CP3        -4.3050    3.1240    5.3990 c1        1 CB3     -0.135500
     35 HN1         0.7540   -1.5790   -1.1900 hn        1 CB3      0.447800
     36 HN21       -1.3520   -3.9060   -2.8910 hn        1 CB3      0.409300
     37 HN22        0.2610   -3.6040   -2.6280 hn        1 CB3      0.409300
     38 H5         -2.8980   -1.0460    2.8030 ha        1 CB3      0.162000
     39 H7          0.8830    1.0800    2.7190 ha        1 CB3      0.161000
     40 H8          1.4930   -0.0590    0.6090 ha        1 CB3      0.136000
     41 H91        -0.8370    0.1880    5.0280 h1        1 CB3      0.059700
     42 H92        -2.4970    0.5940    4.4070 h1        1 CB3      0.059700
     43 H12         2.8380    1.7520    6.6670 ha        1 CB3      0.182500
     44 H13         1.2270    0.9570    4.9610 ha        1 CB3      0.135000
     45 H15        -1.3830    4.3140    5.9460 ha        1 CB3      0.135000
     46 H16         0.2560    5.1050    7.6060 ha        1 CB3      0.182500
     47 HN          1.0790    6.7480   11.3370 hn        1 CB3      0.327700
     48 HA          1.0170    6.7910   13.0810 hn        1 CB3      0.327700
     49 HB1        -1.7810    8.0110   10.7420 hc        1 CB3      0.100200
     50 HB2        -1.1900    9.6560   11.2170 hc        1 CB3      0.100200
     51 HG1        -0.3840    9.3610    9.0080 hc        1 CB3      0.047700
     52 HG2         1.0690    8.9840   10.0210 hc        1 CB3      0.047700
     53 HP11       -2.4720    2.7100    2.8350 h1        1 CB3      0.074200
     54 HP12       -1.7330    4.0880    3.7870 h1        1 CB3      0.074200
     55 HP3        -5.1680    3.1830    6.0110 ha        1 CB3      0.163500
     56 H2          2.3030    4.8850    8.7780 h4        1 CB3      0.075200
     57 C           2.6120    3.9540    8.2410 c         1 CB3      0.568500
@<TRIPOS>BOND
     1    1    2 1   
     2    1   12 1   
     3    1   35 1   
     4    2    3 1   
     5    2    4 2   
     6    3   36 1   
     7    3   37 1   
     8    4    5 1   
     9    5    6 2   
    10    5    7 1   
    11    7    8 ar  
    12    7   12 ar  
    13    8    9 ar  
    14    8   38 1   
    15    9   10 ar  
    16    9   13 1   
    17   10   11 ar  
    18   10   39 1   
    19   11   12 ar  
    20   11   40 1   
    21   13   14 1   
    22   13   41 1   
    23   13   42 1   
    24   14   18 1   
    25   14   32 1   
    26   15   16 ar  
    27   15   20 ar  
    28   15   57 1   
    29   16   17 ar  
    30   16   43 1   
    31   17   18 ar  
    32   17   44 1   
    33   18   19 ar  
    34   19   20 ar  
    35   19   45 1   
    36   20   46 1   
    37   21   57 2   
    38   22   23 2   
    39   22   47 1   
    40   22   48 1   
    41   23   24 1   
    42   23   29 1   
    43   24   25 1   
    44   24   49 1   
    45   24   50 1   
    46   25   26 1   
    47   25   51 1   
    48   25   52 1   
    49   26   27 1   
    50   26   28 1   
    51   29   30 1   
    52   29   31 1   
    53   32   33 1   
    54   32   53 1   
    55   32   54 1   
    56   33   34 3   
    57   34   55 1   
    58   56   57 1   
@<TRIPOS>SUBSTRUCTURE
     1 CB3         1 TEMP              0 ****  ****    0 ROOT
