@<TRIPOS>MOLECULE
CB3
   56    57     1     0     0
SMALL
bcc


@<TRIPOS>ATOM
      1 N1         -1.3650   -1.4710   -0.6420 na        1 CB3     -0.729600
      2 C2         -0.9610   -2.8160   -0.7940 cc        1 CB3      0.822100
      3 NA2        -1.1700   -3.3890   -2.0860 nh        1 CB3     -0.885800
      4 N3         -0.4390   -3.5570    0.1780 nd        1 CB3     -0.745100
      5 C4         -0.3520   -3.0330    1.4890 c         1 CB3      0.717100
      6 O4          0.1130   -3.7410    2.3980 o         1 CB3     -0.546100
      7 C4A        -0.8200   -1.6450    1.7260 ca        1 CB3     -0.215600
      8 C5         -0.7540   -1.0640    2.9970 ca        1 CB3     -0.027000
      9 C6         -1.2230    0.2310    3.2080 ca        1 CB3     -0.102300
     10 C7         -1.7540    0.9560    2.1310 ca        1 CB3     -0.066000
     11 C8         -1.8220    0.4080    0.8590 ca        1 CB3     -0.194000
     12 C8A        -1.3470   -0.9040    0.6390 ca        1 CB3      0.163600
     13 C9         -1.2010    0.8420    4.5820 c3        1 CB3      0.219100
     14 N10        -0.0310    1.6760    4.8330 nh        1 CB3     -0.616000
     15 C11         0.7170    2.3320    8.9680 ca        1 CB3     -0.130600
     16 C12         0.9610    1.0870    8.3750 ca        1 CB3     -0.076000
     17 C13         0.6970    0.8730    7.0270 ca        1 CB3     -0.171000
     18 C14         0.1750    1.9190    6.2340 ca        1 CB3      0.079600
     19 C15        -0.0780    3.1620    6.8410 ca        1 CB3     -0.171000
     20 C16         0.1900    3.3690    8.1940 ca        1 CB3     -0.076000
     21 O           1.1450    1.4630   11.1520 o         1 CB3     -0.719100
     22 N           1.2020    3.7300   10.9370 n         1 CB3     -0.620000
     23 CA         -0.2740    8.0010    9.0610 c1        1 CB3     -0.072100
     24 CB         -0.5040    9.1920    9.8360 c3        1 CB3     -0.129300
     25 CG         -1.4400   10.1900    9.1880 c3        1 CB3     -0.165400
     26 CD         -1.2870   11.6040    9.7600 c         1 CB3      0.899600
     27 OE1        -0.1680   11.9750   10.2240 o         1 CB3     -0.870800
     28 OE2        -2.2970   12.3720    9.7210 o         1 CB3     -0.870800
     29 CT          0.1570    6.7280    9.6260 c         1 CB3      0.812600
     30 O1          1.3990    6.4350    9.7170 o         1 CB3     -0.885800
     31 O2         -0.7060    5.8280    9.9280 o         1 CB3     -0.885800
     32 CP1         0.0790    2.8440    3.9780 c3        1 CB3      0.247900
     33 CP2        -1.0570    3.7390    3.8800 c1        1 CB3     -0.180100
     34 CP3        -1.9670    4.5100    3.7910 c1        1 CB3     -0.144500
     35 HN1        -1.8940   -1.0160   -1.3490 hn        1 CB3      0.445800
     36 HN21       -0.8390   -2.8120   -2.8310 hn        1 CB3      0.402800
     37 HN22       -0.8210   -4.3240   -2.1520 hn        1 CB3      0.402800
     38 H5         -0.3230   -1.6520    3.8260 ha        1 CB3      0.169000
     39 H7         -2.1140    1.9860    2.3050 ha        1 CB3      0.156000
     40 H8         -2.2380    0.9980    0.0300 ha        1 CB3      0.132000
     41 H91        -1.1960    0.0130    5.3480 h1        1 CB3      0.053700
     42 H92        -2.1590    1.4280    4.7160 h1        1 CB3      0.053700
     43 H12         1.3640    0.2720    8.9980 ha        1 CB3      0.190500
     44 H13         0.9030   -0.1110    6.5830 ha        1 CB3      0.133000
     45 H15        -0.4910    4.0020    6.2590 ha        1 CB3      0.133000
     46 H16        -0.0370    4.3690    8.6390 ha        1 CB3      0.190500
     47 HN          1.0030    4.5750   10.4140 hn        1 CB3      0.344500
     48 HA          1.3160    3.8180   11.9160 hn        1 CB3      0.344500
     49 HB1        -0.8430    8.9910   10.8910 hc        1 CB3      0.078200
     50 HB2         0.5180    9.6880    9.9260 hc        1 CB3      0.078200
     51 HG1        -1.2330   10.2440    8.0880 hc        1 CB3      0.027200
     52 HG2        -2.5000    9.8570    9.3170 hc        1 CB3      0.027200
     53 HP11        0.9710    3.4450    4.3310 h1        1 CB3      0.073200
     54 HP12        0.3050    2.4540    2.9390 h1        1 CB3      0.073200
     55 HP3        -2.7600    5.2120    3.7440 ha        1 CB3      0.165500
     56 C           1.0170    2.4880   10.4240 c         1 CB3      0.658700
@<TRIPOS>BOND
     1    1    2 1   
     2    1   12 1   
     3    1   35 1   
     4    2    3 1   
     5    2    4 2   
     6    3   36 1   
     7    3   37 1   
     8    4    5 1   
     9    5    6 2   
    10    5    7 1   
    11    7    8 ar  
    12    7   12 ar  
    13    8    9 ar  
    14    8   38 1   
    15    9   10 ar  
    16    9   13 1   
    17   10   11 ar  
    18   10   39 1   
    19   11   12 ar  
    20   11   40 1   
    21   13   14 1   
    22   13   41 1   
    23   13   42 1   
    24   14   18 1   
    25   14   32 1   
    26   15   16 ar  
    27   15   20 ar  
    28   15   56 1   
    29   16   17 ar  
    30   16   43 1   
    31   17   18 ar  
    32   17   44 1   
    33   18   19 ar  
    34   19   20 ar  
    35   19   45 1   
    36   20   46 1   
    37   21   56 2   
    38   22   47 1   
    39   22   48 1   
    40   22   56 1   
    41   23   24 1   
    42   23   29 3   
    43   24   25 1   
    44   24   49 1   
    45   24   50 1   
    46   25   26 1   
    47   25   51 1   
    48   25   52 1   
    49   26   27 1   
    50   26   28 1   
    51   29   30 1   
    52   29   31 1   
    53   32   33 1   
    54   32   53 1   
    55   32   54 1   
    56   33   34 3   
    57   34   55 1   
@<TRIPOS>SUBSTRUCTURE
     1 CB3         1 TEMP              0 ****  ****    0 ROOT
