@<TRIPOS>MOLECULE
CB3
   56    58     1     0     0
SMALL
bcc


@<TRIPOS>ATOM
      1 N1          2.2980   -0.0620   -6.2060 na        1 CB3     -0.728600
      2 C2          2.0770   -0.4150   -7.5550 cc        1 CB3      0.827100
      3 NA2         3.1690   -0.2010   -8.4480 nh        1 CB3     -0.887800
      4 N3          0.9280   -0.8970   -8.0260 nd        1 CB3     -0.752100
      5 C4         -0.1930   -0.9890   -7.1720 c         1 CB3      0.719100
      6 O4         -1.2700   -1.4220   -7.6220 o         1 CB3     -0.561100
      7 C4A        -0.0400   -0.5710   -5.7580 ca        1 CB3     -0.213600
      8 C5         -1.1090   -0.6380   -4.8600 ca        1 CB3     -0.048000
      9 C6         -0.9570   -0.2380   -3.5310 ca        1 CB3     -0.136300
     10 C7          0.2880    0.2480   -3.1050 ca        1 CB3     -0.061000
     11 C8          1.3670    0.3270   -3.9760 ca        1 CB3     -0.184000
     12 C8A         1.2170   -0.0900   -5.3160 ca        1 CB3      0.159600
     13 C9         -2.1360   -0.3750   -2.6020 c3        1 CB3      0.234100
     14 N10        -2.2310    0.4820   -1.4460 nh        1 CB3     -0.636000
     15 C11        -0.0690   -0.5310    2.0640 ca        1 CB3     -0.144600
     16 C12         0.1490   -1.2420    0.8870 ca        1 CB3     -0.076000
     17 C13        -0.5410   -0.9150   -0.2770 ca        1 CB3     -0.191500
     18 C14        -1.4800    0.1390   -0.2820 ca        1 CB3      0.099600
     19 C15        -1.7170    0.8260    0.9310 ca        1 CB3     -0.191500
     20 C16        -1.0110    0.5040    2.0860 ca        1 CB3     -0.076000
     21 O           1.9980   -0.8350    3.2050 o         1 CB3     -0.661100
     22 N           0.0500   -1.1240    4.4300 n         1 CB3     -0.481900
     23 CA          0.5780   -0.9200    5.7670 c3        1 CB3     -0.036300
     24 CB          0.1760    0.4500    6.3450 c3        1 CB3     -0.075400
     25 CG          0.8050    1.6260    5.6280 c3        1 CB3     -0.191400
     26 CD         -0.1930    2.7440    5.3140 c         1 CB3      0.908600
     27 OE1        -1.1280    2.5280    4.4790 o         1 CB3     -0.875800
     28 OE2        -0.0370    3.8740    5.8650 o         1 CB3     -0.875800
     29 CT          0.0660   -2.0280    6.7490 c         1 CB3      0.917600
     30 O1          0.9000   -2.4610    7.5950 o         1 CB3     -0.850800
     31 O2         -1.1300   -2.4260    6.6670 o         1 CB3     -0.850800
     32 CP1        -2.2720    1.9040   -1.7670 c3        1 CB3      0.256900
     33 CP2        -3.4780    2.3060   -2.4610 c1        1 CB3     -0.115100
     34 CP3        -4.4640    2.6770   -3.0260 c1        1 CB3     -0.183500
     35 HN1         3.1210    0.4240   -5.9330 hn        1 CB3      0.449800
     36 HN21        2.9870   -0.5400   -9.3700 hn        1 CB3      0.403800
     37 HN22        4.0450   -0.5190   -8.0910 hn        1 CB3      0.403800
     38 H5         -2.0780   -1.0180   -5.2270 ha        1 CB3      0.158000
     39 H7          0.4280    0.5660   -2.0550 ha        1 CB3      0.174000
     40 H8          2.3320    0.7080   -3.6110 ha        1 CB3      0.141000
     41 H91        -3.0710   -0.1800   -3.2110 h1        1 CB3      0.067200
     42 H92        -2.1760   -1.4470   -2.2500 h1        1 CB3      0.067200
     43 H12         0.8900   -2.0570    0.8770 ha        1 CB3      0.189000
     44 H13        -0.3340   -1.4960   -1.1880 ha        1 CB3      0.125500
     45 H15        -2.4710    1.6260    0.9920 ha        1 CB3      0.125500
     46 H16        -1.1730    1.0970    3.0220 ha        1 CB3      0.189000
     47 HN         -0.9460   -1.0900    4.3890 hn        1 CB3      0.312500
     48 HA          1.7010   -0.9880    5.7140 h1        1 CB3      0.065700
     49 HB1        -0.9420    0.5440    6.3200 hc        1 CB3      0.046700
     50 HB2         0.4850    0.4490    7.4220 hc        1 CB3      0.046700
     51 HG1         1.6310    2.0500    6.2550 hc        1 CB3      0.024200
     52 HG2         1.2620    1.3000    4.6570 hc        1 CB3      0.024200
     53 HP11       -2.1990    2.5070   -0.8130 h1        1 CB3      0.065700
     54 HP12       -1.3880    2.1940   -2.4190 h1        1 CB3      0.065700
     55 HP3        -5.3390    3.0100   -3.5200 ha        1 CB3      0.154500
     56 C           0.7470   -0.8190    3.2930 c         1 CB3      0.661700
@<TRIPOS>BOND
     1    1    2 1   
     2    1   12 1   
     3    1   35 1   
     4    2    3 1   
     5    2    4 2   
     6    3   36 1   
     7    3   37 1   
     8    4    5 1   
     9    5    6 2   
    10    5    7 1   
    11    7    8 ar  
    12    7   12 ar  
    13    8    9 ar  
    14    8   38 1   
    15    9   10 ar  
    16    9   13 1   
    17   10   11 ar  
    18   10   39 1   
    19   11   12 ar  
    20   11   40 1   
    21   13   14 1   
    22   13   41 1   
    23   13   42 1   
    24   14   18 1   
    25   14   32 1   
    26   15   16 ar  
    27   15   20 ar  
    28   15   56 1   
    29   16   17 ar  
    30   16   43 1   
    31   17   18 ar  
    32   17   44 1   
    33   18   19 ar  
    34   19   20 ar  
    35   19   45 1   
    36   20   46 1   
    37   21   56 2   
    38   22   23 1   
    39   22   47 1   
    40   22   56 1   
    41   23   24 1   
    42   23   29 1   
    43   23   48 1   
    44   24   25 1   
    45   24   49 1   
    46   24   50 1   
    47   25   26 1   
    48   25   51 1   
    49   25   52 1   
    50   26   27 1   
    51   26   28 1   
    52   29   30 1   
    53   29   31 1   
    54   32   33 1   
    55   32   53 1   
    56   32   54 1   
    57   33   34 3   
    58   34   55 1   
@<TRIPOS>SUBSTRUCTURE
     1 CB3         1 TEMP              0 ****  ****    0 ROOT
