@<TRIPOS>MOLECULE
CB6
   41    43     1     0     0
SMALL
bcc


@<TRIPOS>ATOM
      1 CAK        -1.3120   -0.6560    0.5010 cc        1 CB6     -0.078200
      2 CAT        -2.6410   -0.4800   -0.0330 ca        1 CB6     -0.078800
      3 CAI        -3.0660   -0.7080   -1.3470 ca        1 CB6     -0.061000
      4 CAH        -4.4000   -0.4850   -1.6740 ca        1 CB6     -0.106300
      5 CAR        -5.3020   -0.0340   -0.6860 ca        1 CB6     -0.126000
      6 CAJ        -4.8900    0.1970    0.6160 ca        1 CB6     -0.113000
      7 CAU        -3.5510   -0.0220    0.9580 ca        1 CB6     -0.062100
      8 SAO        -2.7640    0.1760    2.4410 ss        1 CB6     -0.063500
      9 CAS        -1.2500   -0.3330    1.8270 cd        1 CB6     -0.139600
     10 CAL        -0.0560   -0.4190    2.6930 c3        1 CB6      0.210600
     11 OAN         0.9250    0.5880    2.4340 os        1 CB6     -0.361900
     12 CAQ         1.5300    0.5350    1.1800 c2        1 CB6     -0.016100
     13 CAG         2.0130   -0.5820    0.6160 c2        1 CB6     -0.140200
     14 CAX         2.6350   -0.6110   -0.7480 c3        1 CB6      0.053000
     15 CAP         1.8450   -1.6650   -1.6110 c         1 CB6      0.905600
     16 OAC         0.6350   -1.4380   -1.8820 o         1 CB6     -0.820800
     17 OAB         2.4940   -2.6860   -1.9670 o         1 CB6     -0.820800
     18 OAF         3.9970   -1.0000   -0.6010 oh        1 CB6     -0.629800
     19 CAM         2.5980    0.7440   -1.4570 c3        1 CB6     -0.072400
     20 CAV         2.7770    1.8960   -0.4790 c3        1 CB6      0.149100
     21 OAD         2.7670    3.1080   -1.2220 oh        1 CB6     -0.610800
     22 CAW         1.6270    1.8930    0.5470 c3        1 CB6      0.158300
     23 OAE         1.9050    2.9310    1.4790 oh        1 CB6     -0.625800
     24 CAA        -4.8900   -0.7120   -3.0530 c3        1 CB6     -0.045800
     25 HAK        -0.4720   -0.9990   -0.1350 ha        1 CB6      0.234000
     26 HAI        -2.3310   -1.0550   -2.0940 ha        1 CB6      0.175000
     27 HAR        -6.3520    0.1360   -0.9650 ha        1 CB6      0.117000
     28 HAA1       -5.2960    0.2380   -3.4820 hc        1 CB6      0.038033
     29 HAA2       -4.0700   -1.0770   -3.7180 hc        1 CB6      0.038033
     30 HAA3       -5.7110   -1.4720   -3.0530 hc        1 CB6      0.038033
     31 HAJ        -5.6040    0.5500    1.3740 ha        1 CB6      0.122000
     32 HAL1       -0.3220   -0.2300    3.7710 h1        1 CB6      0.053700
     33 HAL2        0.4140   -1.4360    2.5960 h1        1 CB6      0.053700
     34 HAG         1.9420   -1.5640    1.1060 ha        1 CB6      0.132000
     35 HAW         0.6520    2.1340    0.0320 h1        1 CB6      0.058700
     36 HAF         4.0950   -1.8680   -1.0280 ho        1 CB6      0.429000
     37 HAM1        3.4150    0.7830   -2.2210 hc        1 CB6      0.068200
     38 HAM2        1.6140    0.8470   -1.9850 hc        1 CB6      0.068200
     39 HAV         3.7580    1.8030    0.0660 h1        1 CB6      0.052700
     40 HAD         2.7680    3.8200   -0.5700 ho        1 CB6      0.401000
     41 HAE         1.3850    2.7510    2.2710 ho        1 CB6      0.417000
@<TRIPOS>BOND
     1    1    2 1   
     2    1    9 2   
     3    1   25 1   
     4    2    3 ar  
     5    2    7 ar  
     6    3    4 ar  
     7    3   26 1   
     8    4    5 ar  
     9    4   24 1   
    10    5    6 ar  
    11    5   27 1   
    12    6    7 ar  
    13    6   31 1   
    14    7    8 1   
    15    8    9 1   
    16    9   10 1   
    17   10   11 1   
    18   10   32 1   
    19   10   33 1   
    20   11   12 1   
    21   12   13 2   
    22   12   22 1   
    23   13   14 1   
    24   13   34 1   
    25   14   15 1   
    26   14   18 1   
    27   14   19 1   
    28   15   16 1   
    29   15   17 1   
    30   18   36 1   
    31   19   20 1   
    32   19   37 1   
    33   19   38 1   
    34   20   21 1   
    35   20   22 1   
    36   20   39 1   
    37   21   40 1   
    38   22   23 1   
    39   22   35 1   
    40   23   41 1   
    41   24   28 1   
    42   24   29 1   
    43   24   30 1   
@<TRIPOS>SUBSTRUCTURE
     1 CB6         1 TEMP              0 ****  ****    0 ROOT
