@<TRIPOS>MOLECULE
CB6
   41    36     1     0     0
SMALL
bcc


@<TRIPOS>ATOM
      1 CAK         1.5790   -0.4430    2.4280 c1        1 CB6     -0.169000
      2 CAT         3.1910   -0.6380    2.2490 c1        1 CB6     -0.058000
      3 CAI         4.2120   -0.8720    3.1840 c1        1 CB6     -0.094000
      4 CAH         5.5610   -0.9530    2.7560 c1        1 CB6     -0.085000
      5 CAR         5.8850   -0.7950    1.3620 c1        1 CB6     -0.111500
      6 CAJ         4.8700   -0.5610    0.4290 c1        1 CB6     -0.111500
      7 CAU         3.5150   -0.4800    0.8560 c1        1 CB6     -0.336000
      8 SAO         2.1670   -0.1810    0.0740 s         1 CB6      0.565000
      9 CAS         1.0040   -0.1740    1.1210 c1        1 CB6     -0.308000
     10 CAL        -0.5390   -0.0440    0.9710 c2        1 CB6      0.028000
     11 OAN        -0.8610    0.4090   -0.3670 os        1 CB6     -0.239000
     12 CAQ        -2.2260    0.5400   -0.6060 c2        1 CB6     -0.099000
     13 CAG        -3.1340   -0.8000   -1.2060 c1        1 CB6     -0.078000
     14 CAX        -3.8520   -0.5630   -2.4390 c2        1 CB6      0.015000
     15 CAP        -5.0010   -1.6000   -2.6130 c2        1 CB6      0.328000
     16 OAC        -5.3130   -1.9780   -3.7360 o         1 CB6     -0.547500
     17 OAB        -5.4650   -2.1870   -1.6080 o         1 CB6     -0.547500
     18 OAF        -3.0120   -0.8890   -3.6080 oh        1 CB6     -0.359000
     19 CAM        -4.4010    0.9610   -2.5510 c3        1 CB6     -0.180000
     20 CAV        -3.5370    1.8870   -2.3350 c3        1 CB6      0.006000
     21 OAD        -4.2420    3.2130   -2.4370 oh        1 CB6     -0.330000
     22 CAW        -2.7800    1.8340   -0.8830 c3        1 CB6      0.030000
     23 OAE        -1.7830    2.8810   -0.7720 oh        1 CB6     -0.328000
     24 CAA         6.6130   -1.2370    3.8510 c3        1 CB6     -0.172000
     25 HAK         1.0970   -0.4980    3.2510 DU        1 CB6      0.154000
     26 HAI         3.9970   -0.9750    4.1060 ha        1 CB6      0.130000
     27 HAR         6.8670   -0.8530    1.0500 ha        1 CB6      0.127000
     28 HAA1        7.3070   -0.5370    3.8280 hc        1 CB6      0.077000
     29 HAA2        6.2030   -1.2380    4.6790 hc        1 CB6      0.077000
     30 HAA3        7.0360   -2.1300    3.6870 hc        1 CB6      0.077000
     31 HAJ         5.0900   -0.4550   -0.5040 ha        1 CB6      0.127000
     32 HAL1       -0.9550   -0.9150    1.1280 h4        1 CB6      0.101500
     33 HAL2       -0.8750    0.5970    1.6220 h4        1 CB6      0.101500
     34 HAG        -2.8750   -1.7560   -0.9400 ha        1 CB6      0.140000
     35 HAW        -3.3700    2.0800   -0.2050 h1        1 CB6      0.117000
     36 HAF        -2.7280   -1.7550   -3.5500 ho        1 CB6      0.229000
     37 HAM1       -5.1720    1.0760   -1.8770 hc        1 CB6      0.106000
     38 HAM2       -4.7660    1.0880   -3.4710 hc        1 CB6      0.106000
     39 HAV        -2.8330    1.8430   -3.0610 h1        1 CB6      0.117000
     40 HAD        -4.2940    3.4530   -3.2800 ho        1 CB6      0.192000
     41 HAE        -2.1810    3.6460   -0.5820 ho        1 CB6      0.203000
@<TRIPOS>BOND
     1    1    2 1   
     2    1    9 1   
     3    2    7 1   
     4    3    4 1   
     5    3   26 1   
     6    4   24 1   
     7    5    6 1   
     8    5   27 1   
     9    6   31 1   
    10    8    9 1   
    11   10   11 1   
    12   10   32 1   
    13   10   33 1   
    14   11   12 1   
    15   12   13 1   
    16   12   22 1   
    17   13   34 1   
    18   14   15 1   
    19   14   18 1   
    20   14   19 1   
    21   15   16 1   
    22   15   17 1   
    23   18   36 1   
    24   19   20 1   
    25   19   37 1   
    26   19   38 1   
    27   20   21 1   
    28   20   22 1   
    29   20   39 1   
    30   21   40 1   
    31   22   23 1   
    32   22   35 1   
    33   23   41 1   
    34   24   28 1   
    35   24   29 1   
    36   24   30 1   
@<TRIPOS>SUBSTRUCTURE
     1 CB6         1 TEMP              0 ****  ****    0 ROOT
