@<TRIPOS>MOLECULE
CB6
   41    43     1     0     0
SMALL
bcc


@<TRIPOS>ATOM
      1 CAK        -0.9680   -0.1590   -1.3740 cc        1 CB6     -0.080200
      2 CAT         0.2620    0.0760   -0.6570 ca        1 CB6     -0.079800
      3 CAI         0.4240    0.2270    0.7260 ca        1 CB6     -0.062000
      4 CAH         1.6990    0.4430    1.2360 ca        1 CB6     -0.107300
      5 CAR         2.8070    0.5080    0.3630 ca        1 CB6     -0.126000
      6 CAJ         2.6560    0.3640   -1.0060 ca        1 CB6     -0.113000
      7 CAU         1.3790    0.1470   -1.5330 ca        1 CB6     -0.064100
      8 SAO         0.8870   -0.0560   -3.1380 ss        1 CB6     -0.059500
      9 CAS        -0.7610   -0.2480   -2.7220 cd        1 CB6     -0.138600
     10 CAL        -1.7920   -0.5050   -3.7490 c3        1 CB6      0.209600
     11 OAN        -2.6570    0.6060   -3.9970 os        1 CB6     -0.361900
     12 CAQ        -3.4630    0.9970   -2.9280 c2        1 CB6     -0.014100
     13 CAG        -4.1670    0.1490   -2.1640 c2        1 CB6     -0.147200
     14 CAX        -4.9930    0.5930   -0.9960 c3        1 CB6      0.058000
     15 CAP        -4.4980   -0.2060    0.2680 c         1 CB6      0.903600
     16 OAC        -3.3460    0.0340    0.7190 o         1 CB6     -0.821300
     17 OAB        -5.3070   -1.0500    0.7410 o         1 CB6     -0.821300
     18 OAF        -6.3570    0.3010   -1.2750 oh        1 CB6     -0.626800
     19 CAM        -4.8690    2.0900   -0.7200 c3        1 CB6     -0.106400
     20 CAV        -4.7360    2.9250   -1.9860 c3        1 CB6      0.146100
     21 OAD        -4.6730    4.3070   -1.6700 oh        1 CB6     -0.599800
     22 CAW        -3.4840    2.4920   -2.7750 c3        1 CB6      0.168300
     23 OAE        -3.5180    3.1670   -4.0240 oh        1 CB6     -0.598800
     24 CAA         1.9150    0.6080    2.6930 c3        1 CB6     -0.045800
     25 HAK        -1.9390   -0.2320   -0.8490 ha        1 CB6      0.232000
     26 HAI        -0.4670    0.1730    1.3760 ha        1 CB6      0.176000
     27 HAR         3.8070    0.6800    0.7880 ha        1 CB6      0.117000
     28 HAA1        2.6100   -0.1810    3.0750 hc        1 CB6      0.037700
     29 HAA2        0.9510    0.5310    3.2540 hc        1 CB6      0.037700
     30 HAA3        2.3700    1.6070    2.9070 hc        1 CB6      0.037700
     31 HAJ         3.5280    0.4200   -1.6730 ha        1 CB6      0.123000
     32 HAL1       -2.4040   -1.4020   -3.4600 h1        1 CB6      0.054200
     33 HAL2       -1.3240   -0.6800   -4.7580 h1        1 CB6      0.054200
     34 HAG        -4.1430   -0.9390   -2.3210 ha        1 CB6      0.132000
     35 HAW        -2.5530    2.8130   -2.2220 h1        1 CB6      0.039700
     36 HAF        -6.6250   -0.4130   -0.6710 ho        1 CB6      0.429000
     37 HAM1       -5.7760    2.4310   -0.1590 hc        1 CB6      0.063200
     38 HAM2       -3.9690    2.2510   -0.0670 hc        1 CB6      0.063200
     39 HAV        -5.6480    2.8290   -2.6370 h1        1 CB6      0.095700
     40 HAD        -3.9050    4.4320   -1.1000 ho        1 CB6      0.388000
     41 HAE        -2.8910    2.7170   -4.6050 ho        1 CB6      0.407000
@<TRIPOS>BOND
     1    1    2 1   
     2    1    9 2   
     3    1   25 1   
     4    2    3 ar  
     5    2    7 ar  
     6    3    4 ar  
     7    3   26 1   
     8    4    5 ar  
     9    4   24 1   
    10    5    6 ar  
    11    5   27 1   
    12    6    7 ar  
    13    6   31 1   
    14    7    8 1   
    15    8    9 1   
    16    9   10 1   
    17   10   11 1   
    18   10   32 1   
    19   10   33 1   
    20   11   12 1   
    21   12   13 2   
    22   12   22 1   
    23   13   14 1   
    24   13   34 1   
    25   14   15 1   
    26   14   18 1   
    27   14   19 1   
    28   15   16 1   
    29   15   17 1   
    30   18   36 1   
    31   19   20 1   
    32   19   37 1   
    33   19   38 1   
    34   20   21 1   
    35   20   22 1   
    36   20   39 1   
    37   21   40 1   
    38   22   23 1   
    39   22   35 1   
    40   23   41 1   
    41   24   28 1   
    42   24   29 1   
    43   24   30 1   
@<TRIPOS>SUBSTRUCTURE
     1 CB6         1 TEMP              0 ****  ****    0 ROOT
