@<TRIPOS>MOLECULE
CB6
   41    43     1     0     0
SMALL
bcc


@<TRIPOS>ATOM
      1 CAK        -0.0830   -0.1810    0.0180 cc        1 CB6     -0.133200
      2 CAT         1.3450   -0.0090    0.0800 ca        1 CB6     -0.074800
      3 CAI         2.1960   -0.1730    1.1820 ca        1 CB6     -0.090000
      4 CAH         3.5580    0.0460    1.0310 ca        1 CB6     -0.092300
      5 CAR         4.0760    0.4310   -0.2270 ca        1 CB6     -0.131000
      6 CAJ         3.2490    0.5970   -1.3220 ca        1 CB6     -0.093000
      7 CAU         1.8720    0.3780   -1.1840 ca        1 CB6     -0.094100
      8 SAO         0.6470    0.5080   -2.3310 ss        1 CB6      0.056500
      9 CAS        -0.5750    0.0640   -1.2380 cd        1 CB6     -0.078600
     10 CAL        -2.0000   -0.0810   -1.6210 c3        1 CB6      0.190600
     11 OAN        -2.4360    1.1470   -2.2190 os        1 CB6     -0.364900
     12 CAQ        -3.8190    1.3300   -2.2000 c2        1 CB6     -0.018100
     13 CAG        -4.7190    0.3370   -2.2150 c2        1 CB6     -0.154200
     14 CAX        -6.1970    0.5740   -2.1570 c3        1 CB6      0.056000
     15 CAP        -6.7680   -0.2940   -0.9710 c         1 CB6      0.903600
     16 OAC        -6.6190    0.1220    0.2050 o         1 CB6     -0.817800
     17 OAB        -7.3350   -1.3700   -1.3090 o         1 CB6     -0.817800
     18 OAF        -6.7680    0.1600   -3.3940 oh        1 CB6     -0.628800
     19 CAM        -6.5500    2.0410   -1.9380 c3        1 CB6     -0.104400
     20 CAV        -5.6140    3.0020   -2.6580 c3        1 CB6      0.146100
     21 OAD        -6.0120    4.3480   -2.4440 oh        1 CB6     -0.600800
     22 CAW        -4.1610    2.7930   -2.1830 c3        1 CB6      0.175300
     23 OAE        -3.3250    3.5570   -3.0410 oh        1 CB6     -0.596800
     24 CAA         4.4880   -0.1160    2.1730 c3        1 CB6     -0.047800
     25 HAK        -0.6810   -0.4730    0.8850 ha        1 CB6      0.162000
     26 HAI         1.7750   -0.4710    2.1530 ha        1 CB6      0.134000
     27 HAR         5.1590    0.6000   -0.3250 ha        1 CB6      0.124000
     28 HAA1        5.0080    0.8510    2.3880 hc        1 CB6      0.039033
     29 HAA2        5.2650   -0.8840    1.9340 hc        1 CB6      0.039033
     30 HAA3        3.9460   -0.4370    3.0960 hc        1 CB6      0.039033
     31 HAJ         3.6620    0.8990   -2.2950 ha        1 CB6      0.131000
     32 HAL1       -2.6290   -0.3190   -0.7190 h1        1 CB6      0.062200
     33 HAL2       -2.1170   -0.9020   -2.3810 h1        1 CB6      0.062200
     34 HAG        -4.4280   -0.7240   -2.2390 ha        1 CB6      0.132000
     35 HAW        -4.0430    3.1800   -1.1290 h1        1 CB6      0.036700
     36 HAF        -7.2050   -0.6940   -3.2310 ho        1 CB6      0.429000
     37 HAM1       -7.5940    2.2210   -2.3000 hc        1 CB6      0.066200
     38 HAM2       -6.5210    2.2410   -0.8320 hc        1 CB6      0.066200
     39 HAV        -5.6690    2.8690   -3.7740 h1        1 CB6      0.095700
     40 HAD        -6.0380    4.4860   -1.4900 ho        1 CB6      0.388000
     41 HAE        -2.4180    3.2690   -2.8820 ho        1 CB6      0.406000
@<TRIPOS>BOND
     1    1    2 1   
     2    1    9 2   
     3    1   25 1   
     4    2    3 ar  
     5    2    7 ar  
     6    3    4 ar  
     7    3   26 1   
     8    4    5 ar  
     9    4   24 1   
    10    5    6 ar  
    11    5   27 1   
    12    6    7 ar  
    13    6   31 1   
    14    7    8 1   
    15    8    9 1   
    16    9   10 1   
    17   10   11 1   
    18   10   32 1   
    19   10   33 1   
    20   11   12 1   
    21   12   13 2   
    22   12   22 1   
    23   13   14 1   
    24   13   34 1   
    25   14   15 1   
    26   14   18 1   
    27   14   19 1   
    28   15   16 1   
    29   15   17 1   
    30   18   36 1   
    31   19   20 1   
    32   19   37 1   
    33   19   38 1   
    34   20   21 1   
    35   20   22 1   
    36   20   39 1   
    37   21   40 1   
    38   22   23 1   
    39   22   35 1   
    40   23   41 1   
    41   24   28 1   
    42   24   29 1   
    43   24   30 1   
@<TRIPOS>SUBSTRUCTURE
     1 CB6         1 TEMP              0 ****  ****    0 ROOT
