@<TRIPOS>MOLECULE
CB7
   54    47     1     0     0
SMALL
bcc


@<TRIPOS>ATOM
      1 CAO         2.4310    0.9430    0.4090 c1        1 CB7     -0.103000
      2 CBB         3.8010    0.8890    0.5280 c1        1 CB7     -0.105000
      3 CAK         4.7560    0.3170    1.6930 c1        1 CB7     -0.105000
      4 CAG         6.1280    0.5170    1.2970 c1        1 CB7     -0.345500
      5 SAU         6.1280    1.1960   -0.0810 ss        1 CB7      0.416000
      6 CBD         4.6220    1.4030   -0.5100 c1        1 CB7     -0.345500
      7 CAM         4.0410    1.9580   -1.6400 c1        1 CB7     -0.108000
      8 CAI         2.6480    2.0100   -1.7550 c1        1 CB7     -0.108000
      9 CAZ         1.8460    1.5070   -0.7400 c1        1 CB7     -0.046000
     10 CAQ         0.6220    1.2640   -1.6340 c3        1 CB7     -0.101000
     11 CAW        -0.6420    1.8440   -0.9470 c2        1 CB7     -0.037000
     12 CBG        -0.6370    3.2410   -0.4220 c3        1 CB7      0.030000
     13 CAV         0.1020    4.2180   -1.4410 c2        1 CB7      0.324000
     14 OAB         0.9680    5.0340   -1.0150 o         1 CB7     -0.552500
     15 OAA        -0.2650    4.2740   -2.6060 o         1 CB7     -0.552500
     16 OAE         0.1980    3.3500    0.7000 oh        1 CB7     -0.351000
     17 CAR        -2.1340    3.7750   -0.0570 c3        1 CB7     -0.177000
     18 CBE        -2.8280    3.0130    0.6790 c3        1 CB7     -0.009000
     19 OAC        -4.1830    3.6580    0.8780 oh        1 CB7     -0.349000
     20 CBF        -3.0690    1.4740    0.0960 c3        1 CB7      0.040000
     21 OAD        -3.7910    0.6940    1.0410 oh        1 CB7     -0.342000
     22 CAX        -1.8080    0.8240   -0.3060 c2        1 CB7     -0.028000
     23 OAS        -1.7920   -0.5950   -0.6320 os        1 CB7     -0.238000
     24 CAP        -1.8650   -1.4320    0.4890 c3        1 CB7      0.012000
     25 CAY        -1.5660   -2.9020    0.0610 c2        1 CB7     -0.075000
     26 CAN        -1.2310   -3.9280   -0.8730 c2        1 CB7     -0.070000
     27 CBA        -0.9080   -5.1970   -0.4180 c1        1 CB7     -0.072000
     28 CAJ        -0.4910   -6.5490   -1.1990 c1        1 CB7     -0.127000
     29 CAF        -0.2590   -7.5940   -0.2110 c1        1 CB7     -0.394000
     30 SAT        -0.5070   -6.9850    1.1950 ss        1 CB7      0.434000
     31 CBC        -0.9120   -5.4750    0.9960 c1        1 CB7     -0.297000
     32 CAL        -1.2380   -4.4750    1.9010 c1        1 CB7     -0.107000
     33 CAH        -1.5680   -3.1770    1.4390 c1        1 CB7     -0.120000
     34 HAO         1.8650    0.5780    1.1150 ha        1 CB7      0.138000
     35 HAK         4.4670   -0.0810    2.5000 DU        1 CB7      0.156250
     36 HAG         6.9140    0.3270    1.8430 DU        1 CB7      0.156250
     37 HAM         4.5930    2.2240   -2.3810 ha        1 CB7      0.164500
     38 HAI         2.2520    2.3120   -2.5630 ha        1 CB7      0.164500
     39 HAQ1        0.5040    0.2900   -1.7780 hc        1 CB7      0.113500
     40 HAQ2        0.7550    1.7120   -2.5020 hc        1 CB7      0.113500
     41 HAE         0.0920    4.1570    1.0710 ho        1 CB7      0.228000
     42 HAR1       -2.6310    3.9130   -0.9140 hc        1 CB7      0.106500
     43 HAR2       -2.0510    4.6310    0.3860 hc        1 CB7      0.106500
     44 HBE        -2.3720    2.9400    1.5810 h1        1 CB7      0.138000
     45 HAC        -4.2610    3.9170    1.6990 ho        1 CB7      0.195000
     46 HBF        -3.6820    1.4810   -0.6380 h1        1 CB7      0.080000
     47 HAD        -4.6560    0.9740    1.0710 ho        1 CB7      0.205000
     48 HAP1       -1.1710   -1.1290    1.1920 h1        1 CB7      0.101500
     49 HAP2       -2.7700   -1.3800    0.8780 h1        1 CB7      0.101500
     50 HAN        -1.1360   -3.7120   -1.8160 ha        1 CB7      0.165000
     51 HAH        -1.6790   -2.4140    2.1080 ha        1 CB7      0.133000
     52 HAJ        -0.4060   -6.6510   -2.1900 DU        1 CB7      0.156250
     53 HAF         0.0110   -8.5220   -0.4000 DU        1 CB7      0.156250
     54 HAL        -1.2380   -4.6590    2.8230 ha        1 CB7      0.128000
@<TRIPOS>BOND
     1    1    9 1   
     2    1   34 1   
     3    2    6 1   
     4    3    4 1   
     5    4    5 1   
     6    5    6 1   
     7    7    8 1   
     8    7   37 1   
     9    8   38 1   
    10    9   10 1   
    11   10   11 1   
    12   10   39 1   
    13   10   40 1   
    14   11   12 1   
    15   11   22 1   
    16   12   13 1   
    17   12   16 1   
    18   12   17 1   
    19   13   14 1   
    20   13   15 1   
    21   16   41 1   
    22   17   18 1   
    23   17   42 1   
    24   17   43 1   
    25   18   19 1   
    26   18   20 1   
    27   18   44 1   
    28   19   45 1   
    29   20   21 1   
    30   20   22 1   
    31   20   46 1   
    32   21   47 1   
    33   22   23 1   
    34   23   24 1   
    35   24   25 1   
    36   24   48 1   
    37   24   49 1   
    38   25   26 1   
    39   25   33 1   
    40   26   27 1   
    41   26   50 1   
    42   28   29 1   
    43   29   30 1   
    44   30   31 1   
    45   31   32 1   
    46   32   54 1   
    47   33   51 1   
@<TRIPOS>SUBSTRUCTURE
     1 CB7         1 TEMP              0 ****  ****    0 ROOT
