@<TRIPOS>MOLECULE
CB7
   54    58     1     0     0
SMALL
bcc


@<TRIPOS>ATOM
      1 CAO        -0.8920   -1.9740    0.1540 ca        1 CB7     -0.097000
      2 CBB        -1.2400   -3.2890   -0.1730 ca        1 CB7     -0.091800
      3 CAK        -0.4930   -4.2510   -0.9480 cc        1 CB7     -0.120200
      4 CAG        -1.1520   -5.4410   -1.0550 cd        1 CB7     -0.161400
      5 SAU        -2.6430   -5.4370   -0.2540 ss        1 CB7     -0.047500
      6 CBD        -2.4740   -3.8340    0.2760 ca        1 CB7     -0.062100
      7 CAM        -3.3490   -3.0520    1.0360 ca        1 CB7     -0.112000
      8 CAI        -2.9940   -1.7500    1.3550 ca        1 CB7     -0.103000
      9 CAZ        -1.7610   -1.2100    0.9260 ca        1 CB7     -0.051300
     10 CAQ        -1.3880    0.1740    1.3400 c3        1 CB7     -0.011900
     11 CAW        -1.7140    1.2150    0.3210 c2        1 CB7     -0.027400
     12 CBG        -3.1400    1.7190    0.2660 c3        1 CB7      0.049000
     13 CAV        -3.6770    1.9310    1.7310 c         1 CB7      0.906600
     14 OAB        -3.3460    2.9680    2.3540 o         1 CB7     -0.817800
     15 OAA        -4.4090    1.0010    2.1800 o         1 CB7     -0.817800
     16 OAE        -3.9370    0.7570   -0.4170 oh        1 CB7     -0.621800
     17 CAR        -3.2660    3.0300   -0.5110 c3        1 CB7     -0.063400
     18 CBE        -2.4670    2.9720   -1.8020 c3        1 CB7      0.122100
     19 OAC        -2.6930    4.1740   -2.5260 oh        1 CB7     -0.605800
     20 CBF        -0.9710    2.8270   -1.4720 c3        1 CB7      0.138300
     21 OAD        -0.2220    2.6640   -2.6700 oh        1 CB7     -0.621800
     22 CAX        -0.7630    1.7060   -0.5020 c2        1 CB7     -0.050100
     23 OAS         0.5080    1.1270   -0.5290 os        1 CB7     -0.351900
     24 CAP         1.5460    2.0550   -0.1720 c3        1 CB7      0.161700
     25 CAY         2.8120    1.2890    0.0340 ca        1 CB7     -0.074300
     26 CAN         4.0290    1.8940   -0.2600 ca        1 CB7     -0.094000
     27 CBA         5.2160    1.1900   -0.0260 ca        1 CB7     -0.085800
     28 CAJ         6.5760    1.6220   -0.2510 cc        1 CB7     -0.124200
     29 CAF         7.4770    0.6570    0.0960 cd        1 CB7     -0.155400
     30 SAT         6.7420   -0.7470    0.6820 ss        1 CB7     -0.016500
     31 CBC         5.1750   -0.1310    0.4990 ca        1 CB7     -0.068100
     32 CAL         3.9440   -0.7310    0.7830 ca        1 CB7     -0.104000
     33 CAH         2.7760   -0.0220    0.5520 ca        1 CB7     -0.094000
     34 HAO         0.0550   -1.5430   -0.2070 ha        1 CB7      0.141000
     35 HAK         0.4790   -4.0160   -1.3850 ha        1 CB7      0.147000
     36 HAG        -0.8030   -6.3230   -1.5870 h4        1 CB7      0.155000
     37 HAM        -4.3110   -3.4630    1.3720 ha        1 CB7      0.131000
     38 HAI        -3.6810   -1.0990    1.9340 ha        1 CB7      0.195000
     39 HAQ1       -1.9260    0.4340    2.2970 hc        1 CB7      0.071700
     40 HAQ2       -0.2820    0.2010    1.5520 hc        1 CB7      0.071700
     41 HAE        -4.3920    0.2330    0.2630 ho        1 CB7      0.427000
     42 HAR1       -4.3450    3.2100   -0.7500 hc        1 CB7      0.073200
     43 HAR2       -2.9060    3.8700    0.1380 hc        1 CB7      0.073200
     44 HBE        -2.8000    2.0970   -2.4280 h1        1 CB7      0.050700
     45 HAC        -2.0530    4.1740   -3.2490 ho        1 CB7      0.397000
     46 HBF        -0.5880    3.7960   -1.0370 h1        1 CB7      0.077700
     47 HAD        -0.2300    1.7240   -2.8870 ho        1 CB7      0.412000
     48 HAP1        1.6530    2.8010   -1.0060 h1        1 CB7      0.053700
     49 HAP2        1.2660    2.5900    0.7760 h1        1 CB7      0.053700
     50 HAN         4.0680    2.9120   -0.6730 ha        1 CB7      0.136000
     51 HAH         1.7940   -0.4780    0.7640 ha        1 CB7      0.159000
     52 HAJ         6.8150    2.6090   -0.6520 ha        1 CB7      0.150000
     53 HAF         8.5600    0.7380    0.0210 h4        1 CB7      0.161000
     54 HAL         3.9050   -1.7530    1.1860 ha        1 CB7      0.136000
@<TRIPOS>BOND
     1    1    2 ar  
     2    1    9 ar  
     3    1   34 1   
     4    2    3 1   
     5    2    6 ar  
     6    3    4 2   
     7    3   35 1   
     8    4    5 1   
     9    4   36 1   
    10    5    6 1   
    11    6    7 ar  
    12    7    8 ar  
    13    7   37 1   
    14    8    9 ar  
    15    8   38 1   
    16    9   10 1   
    17   10   11 1   
    18   10   39 1   
    19   10   40 1   
    20   11   12 1   
    21   11   22 2   
    22   12   13 1   
    23   12   16 1   
    24   12   17 1   
    25   13   14 1   
    26   13   15 1   
    27   16   41 1   
    28   17   18 1   
    29   17   42 1   
    30   17   43 1   
    31   18   19 1   
    32   18   20 1   
    33   18   44 1   
    34   19   45 1   
    35   20   21 1   
    36   20   22 1   
    37   20   46 1   
    38   21   47 1   
    39   22   23 1   
    40   23   24 1   
    41   24   25 1   
    42   24   48 1   
    43   24   49 1   
    44   25   26 ar  
    45   25   33 ar  
    46   26   27 ar  
    47   26   50 1   
    48   27   28 1   
    49   27   31 ar  
    50   28   29 2   
    51   28   52 1   
    52   29   30 1   
    53   29   53 1   
    54   30   31 1   
    55   31   32 ar  
    56   32   33 ar  
    57   32   54 1   
    58   33   51 1   
@<TRIPOS>SUBSTRUCTURE
     1 CB7         1 TEMP              0 ****  ****    0 ROOT
