@<TRIPOS>MOLECULE
CB7
   54    58     1     0     0
SMALL
bcc


@<TRIPOS>ATOM
      1 CAO         0.2170    0.1070   -0.0770 ca        1 CB7     -0.096000
      2 CBB         1.5960   -0.0210   -0.2810 ca        1 CB7     -0.091800
      3 CAK         2.6580    0.0280    0.6970 cc        1 CB7     -0.119200
      4 CAG         3.8850   -0.1430    0.1260 cd        1 CB7     -0.161400
      5 SAU         3.8010   -0.3570   -1.5510 ss        1 CB7     -0.048500
      6 CBD         2.1090   -0.2310   -1.5900 ca        1 CB7     -0.062100
      7 CAM         1.2370   -0.2970   -2.6800 ca        1 CB7     -0.112000
      8 CAI        -0.1270   -0.1690   -2.4680 ca        1 CB7     -0.104000
      9 CAZ        -0.6430    0.0220   -1.1670 ca        1 CB7     -0.051300
     10 CAQ        -2.1200    0.0950   -0.9720 c3        1 CB7     -0.009900
     11 CAW        -2.6500    1.4900   -0.9110 c2        1 CB7     -0.040400
     12 CBG        -2.8910    2.2020   -2.2240 c3        1 CB7      0.055000
     13 CAV        -3.5640    1.2140   -3.2480 c         1 CB7      0.906600
     14 OAB        -4.8030    1.0270   -3.1820 o         1 CB7     -0.818800
     15 OAA        -2.7770    0.6660   -4.0740 o         1 CB7     -0.818800
     16 OAE        -1.6440    2.6620   -2.7340 oh        1 CB7     -0.620800
     17 CAR        -3.7820    3.4310   -2.0570 c3        1 CB7     -0.099400
     18 CBE        -3.3790    4.2630   -0.8500 c3        1 CB7      0.116100
     19 OAC        -4.1250    5.4680   -0.7740 oh        1 CB7     -0.599800
     20 CBF        -3.5650    3.4300    0.4310 c3        1 CB7      0.148300
     21 OAD        -3.0750    4.1120    1.5730 oh        1 CB7     -0.600800
     22 CAX        -2.9280    2.0810    0.2700 c2        1 CB7     -0.044100
     23 OAS        -2.5620    1.4460    1.4590 os        1 CB7     -0.348900
     24 CAP        -3.6740    1.2360    2.3440 c3        1 CB7      0.161700
     25 CAY        -3.2490    0.2940    3.4220 ca        1 CB7     -0.072300
     26 CAN        -3.8520    0.3780    4.6730 ca        1 CB7     -0.095000
     27 CBA        -3.4850   -0.5300    5.6720 ca        1 CB7     -0.085800
     28 CAJ        -3.9820   -0.6270    7.0250 cc        1 CB7     -0.124200
     29 CAF        -3.3840   -1.6430    7.7130 cd        1 CB7     -0.156400
     30 SAT        -2.2460   -2.4820    6.7850 ss        1 CB7     -0.017500
     31 CBC        -2.5000   -1.5220    5.4130 ca        1 CB7     -0.068100
     32 CAL        -1.8940   -1.5910    4.1540 ca        1 CB7     -0.104000
     33 CAH        -2.2700   -0.6900    3.1710 ca        1 CB7     -0.094000
     34 HAO        -0.1820    0.2880    0.9330 ha        1 CB7      0.142000
     35 HAK         2.4620    0.1880    1.7590 ha        1 CB7      0.148000
     36 HAG         4.8400   -0.1450    0.6450 h4        1 CB7      0.155000
     37 HAM         1.6300   -0.4430   -3.6960 ha        1 CB7      0.130000
     38 HAI        -0.8390   -0.1920   -3.3190 ha        1 CB7      0.193000
     39 HAQ1       -2.6340   -0.4440   -1.8200 hc        1 CB7      0.071700
     40 HAQ2       -2.3850   -0.4410   -0.0170 hc        1 CB7      0.071700
     41 HAE        -1.3450    2.0030   -3.3820 ho        1 CB7      0.427000
     42 HAR1       -3.7020    4.0600   -2.9800 hc        1 CB7      0.068200
     43 HAR2       -4.8440    3.0830   -1.9600 hc        1 CB7      0.068200
     44 HBE        -2.3100    4.6030   -0.9390 h1        1 CB7      0.089700
     45 HAC        -5.0580    5.2240   -0.7910 ho        1 CB7      0.390000
     46 HBF        -4.6670    3.3070    0.6450 h1        1 CB7      0.065700
     47 HAD        -2.1120    4.1200    1.5050 ho        1 CB7      0.407000
     48 HAP1       -4.5350    0.7950    1.7730 h1        1 CB7      0.054200
     49 HAP2       -3.9770    2.2310    2.7720 h1        1 CB7      0.054200
     50 HAN        -4.6090    1.1480    4.8820 ha        1 CB7      0.136000
     51 HAH        -1.8000   -0.7230    2.1740 ha        1 CB7      0.160000
     52 HAJ        -4.7440    0.0500    7.4150 ha        1 CB7      0.150000
     53 HAF        -3.5830   -1.9210    8.7460 h4        1 CB7      0.161000
     54 HAL        -1.1290   -2.3540    3.9480 ha        1 CB7      0.136000
@<TRIPOS>BOND
     1    1    2 ar  
     2    1    9 ar  
     3    1   34 1   
     4    2    3 1   
     5    2    6 ar  
     6    3    4 2   
     7    3   35 1   
     8    4    5 1   
     9    4   36 1   
    10    5    6 1   
    11    6    7 ar  
    12    7    8 ar  
    13    7   37 1   
    14    8    9 ar  
    15    8   38 1   
    16    9   10 1   
    17   10   11 1   
    18   10   39 1   
    19   10   40 1   
    20   11   12 1   
    21   11   22 2   
    22   12   13 1   
    23   12   16 1   
    24   12   17 1   
    25   13   14 1   
    26   13   15 1   
    27   16   41 1   
    28   17   18 1   
    29   17   42 1   
    30   17   43 1   
    31   18   19 1   
    32   18   20 1   
    33   18   44 1   
    34   19   45 1   
    35   20   21 1   
    36   20   22 1   
    37   20   46 1   
    38   21   47 1   
    39   22   23 1   
    40   23   24 1   
    41   24   25 1   
    42   24   48 1   
    43   24   49 1   
    44   25   26 ar  
    45   25   33 ar  
    46   26   27 ar  
    47   26   50 1   
    48   27   28 1   
    49   27   31 ar  
    50   28   29 2   
    51   28   52 1   
    52   29   30 1   
    53   29   53 1   
    54   30   31 1   
    55   31   32 ar  
    56   32   33 ar  
    57   32   54 1   
    58   33   51 1   
@<TRIPOS>SUBSTRUCTURE
     1 CB7         1 TEMP              0 ****  ****    0 ROOT
