@<TRIPOS>MOLECULE
CB7
   54    58     1     0     0
SMALL
bcc


@<TRIPOS>ATOM
      1 CAO         0.2160    0.1000   -0.0740 ca        1 CB7     -0.096000
      2 CBB         1.5950   -0.0340   -0.2770 ca        1 CB7     -0.091800
      3 CAK         2.6560    0.0110    0.7010 cc        1 CB7     -0.119200
      4 CAG         3.8820   -0.1640    0.1300 cd        1 CB7     -0.161400
      5 SAU         3.7980   -0.3800   -1.5470 ss        1 CB7     -0.048500
      6 CBD         2.1070   -0.2480   -1.5860 ca        1 CB7     -0.062100
      7 CAM         1.2340   -0.3120   -2.6760 ca        1 CB7     -0.112000
      8 CAI        -0.1290   -0.1780   -2.4640 ca        1 CB7     -0.104000
      9 CAZ        -0.6440    0.0170   -1.1630 ca        1 CB7     -0.051300
     10 CAQ        -2.1210    0.0960   -0.9690 c3        1 CB7     -0.009900
     11 CAW        -2.6460    1.4920   -0.9090 c2        1 CB7     -0.040400
     12 CBG        -2.8830    2.2050   -2.2220 c3        1 CB7      0.055000
     13 CAV        -3.5610    1.2180   -3.2450 c         1 CB7      0.906600
     14 OAB        -4.8010    1.0370   -3.1790 o         1 CB7     -0.818800
     15 OAA        -2.7760    0.6670   -4.0710 o         1 CB7     -0.818800
     16 OAE        -1.6340    2.6590   -2.7320 oh        1 CB7     -0.620800
     17 CAR        -3.7690    3.4370   -2.0560 c3        1 CB7     -0.099400
     18 CBE        -3.3630    4.2690   -0.8500 c3        1 CB7      0.116100
     19 OAC        -4.1030    5.4770   -0.7760 oh        1 CB7     -0.599800
     20 CBF        -3.5530    3.4370    0.4310 c3        1 CB7      0.148300
     21 OAD        -3.0610    4.1180    1.5730 oh        1 CB7     -0.600800
     22 CAX        -2.9210    2.0860    0.2720 c2        1 CB7     -0.044100
     23 OAS        -2.5590    1.4500    1.4610 os        1 CB7     -0.348900
     24 CAP        -3.6720    1.2450    2.3450 c3        1 CB7      0.161700
     25 CAY        -3.2520    0.3010    3.4250 ca        1 CB7     -0.072300
     26 CAN        -3.8570    0.3870    4.6740 ca        1 CB7     -0.095000
     27 CBA        -3.4950   -0.5220    5.6740 ca        1 CB7     -0.085800
     28 CAJ        -3.9940   -0.6180    7.0250 cc        1 CB7     -0.124200
     29 CAF        -3.4000   -1.6350    7.7140 cd        1 CB7     -0.156400
     30 SAT        -2.2630   -2.4770    6.7890 ss        1 CB7     -0.017500
     31 CBC        -2.5120   -1.5170    5.4160 ca        1 CB7     -0.068100
     32 CAL        -1.9040   -1.5880    4.1590 ca        1 CB7     -0.104000
     33 CAH        -2.2750   -0.6850    3.1750 ca        1 CB7     -0.094000
     34 HAO        -0.1830    0.2830    0.9360 ha        1 CB7      0.142000
     35 HAK         2.4610    0.1740    1.7630 ha        1 CB7      0.148000
     36 HAG         4.8380   -0.1700    0.6490 h4        1 CB7      0.155000
     37 HAM         1.6260   -0.4610   -3.6920 ha        1 CB7      0.130000
     38 HAI        -0.8410   -0.1990   -3.3150 ha        1 CB7      0.193000
     39 HAQ1       -2.6380   -0.4420   -1.8170 hc        1 CB7      0.071700
     40 HAQ2       -2.3880   -0.4380   -0.0130 hc        1 CB7      0.071700
     41 HAE        -1.3380    1.9980   -3.3800 ho        1 CB7      0.427000
     42 HAR1       -4.8330    3.0950   -1.9590 hc        1 CB7      0.068200
     43 HAR2       -3.6860    4.0660   -2.9800 hc        1 CB7      0.068200
     44 HBE        -2.2920    4.6040   -0.9390 h1        1 CB7      0.089700
     45 HAC        -5.0370    5.2370   -0.7930 ho        1 CB7      0.390000
     46 HBF        -4.6560    3.3190    0.6450 h1        1 CB7      0.065700
     47 HAD        -2.0980    4.1220    1.5060 ho        1 CB7      0.407000
     48 HAP1       -3.9710    2.2410    2.7730 h1        1 CB7      0.054200
     49 HAP2       -4.5350    0.8080    1.7740 h1        1 CB7      0.054200
     50 HAN        -4.6120    1.1590    4.8820 ha        1 CB7      0.136000
     51 HAH        -1.8040   -0.7200    2.1780 ha        1 CB7      0.160000
     52 HAJ        -4.7550    0.0610    7.4140 ha        1 CB7      0.150000
     53 HAF        -3.6030   -1.9130    8.7470 h4        1 CB7      0.161000
     54 HAL        -1.1410   -2.3520    3.9540 ha        1 CB7      0.136000
@<TRIPOS>BOND
     1    1    2 ar  
     2    1    9 ar  
     3    1   34 1   
     4    2    3 1   
     5    2    6 ar  
     6    3    4 2   
     7    3   35 1   
     8    4    5 1   
     9    4   36 1   
    10    5    6 1   
    11    6    7 ar  
    12    7    8 ar  
    13    7   37 1   
    14    8    9 ar  
    15    8   38 1   
    16    9   10 1   
    17   10   11 1   
    18   10   39 1   
    19   10   40 1   
    20   11   12 1   
    21   11   22 2   
    22   12   13 1   
    23   12   16 1   
    24   12   17 1   
    25   13   14 1   
    26   13   15 1   
    27   16   41 1   
    28   17   18 1   
    29   17   42 1   
    30   17   43 1   
    31   18   19 1   
    32   18   20 1   
    33   18   44 1   
    34   19   45 1   
    35   20   21 1   
    36   20   22 1   
    37   20   46 1   
    38   21   47 1   
    39   22   23 1   
    40   23   24 1   
    41   24   25 1   
    42   24   48 1   
    43   24   49 1   
    44   25   26 ar  
    45   25   33 ar  
    46   26   27 ar  
    47   26   50 1   
    48   27   28 1   
    49   27   31 ar  
    50   28   29 2   
    51   28   52 1   
    52   29   30 1   
    53   29   53 1   
    54   30   31 1   
    55   31   32 ar  
    56   32   33 ar  
    57   32   54 1   
    58   33   51 1   
@<TRIPOS>SUBSTRUCTURE
     1 CB7         1 TEMP              0 ****  ****    0 ROOT
