@<TRIPOS>MOLECULE
CB8
   48    51     1     0     0
SMALL
bcc


@<TRIPOS>ATOM
      1 CAV         0.6520   -0.4290   -0.3280 c2        1 CB8     -0.050100
      2 CBB         0.4040   -1.7780   -0.9310 c3        1 CB8      0.148300
      3 OAD        -0.4700   -1.7330   -2.0520 oh        1 CB8     -0.623800
      4 CBA         1.7480   -2.3970   -1.3570 c3        1 CB8      0.123100
      5 OAC         1.5590   -3.7340   -1.8040 oh        1 CB8     -0.606800
      6 CAP         2.6880   -2.4210   -0.1640 c3        1 CB8     -0.067400
      7 CBC         2.9850   -1.0140    0.3550 c3        1 CB8      0.044000
      8 CAT         3.3330   -1.0950    1.8970 c         1 CB8      0.904600
      9 OAB         4.3210   -0.3940    2.2590 o         1 CB8     -0.811300
     10 OAA         2.6230   -1.8120    2.6410 o         1 CB8     -0.811300
     11 OAE         4.1040   -0.5220   -0.3730 oh        1 CB8     -0.623800
     12 CAU         1.8340   -0.0460    0.1980 c2        1 CB8     -0.028400
     13 CAM        -3.0150   -0.8200   -0.2660 cc        1 CB8     -0.116200
     14 CAY        -4.4320   -1.0500   -0.1330 ca        1 CB8     -0.074800
     15 CAK        -5.2400   -1.9510   -0.8390 ca        1 CB8     -0.087000
     16 CAF        -6.5940   -2.0140   -0.5500 ca        1 CB8     -0.145000
     17 CAG        -7.1570   -1.1870    0.4390 ca        1 CB8     -0.133000
     18 CAL        -6.3720   -0.2910    1.1470 ca        1 CB8     -0.100000
     19 CAZ        -5.0030   -0.2130    0.8680 ca        1 CB8     -0.071100
     20 SAS        -3.8230    0.7740    1.5660 ss        1 CB8     -0.022500
     21 CAX        -2.5670    0.1390    0.5980 cd        1 CB8     -0.086600
     22 CAN        -1.1780    0.6260    0.7530 c3        1 CB8      0.188600
     23 OAQ        -0.4340    0.4400   -0.4590 os        1 CB8     -0.349900
     24 CAO         2.0620    1.3280    0.7460 c3        1 CB8      0.011100
     25 CAW         2.3070    2.3550   -0.2850 cc        1 CB8     -0.064400
     26 CAJ         1.4000    2.8320   -1.2120 cd        1 CB8     -0.174000
     27 CAH         1.9630    3.8620   -2.0270 cd        1 CB8     -0.162000
     28 CAI         3.2720    4.1240   -1.6810 cc        1 CB8     -0.205100
     29 SAR         3.7840    3.1490   -0.4310 ss        1 CB8      0.032200
     30 HBB        -0.1160   -2.4570   -0.1950 h1        1 CB8      0.086700
     31 HAD        -0.3210   -0.8940   -2.5030 ho        1 CB8      0.413000
     32 HBA         2.1900   -1.7930   -2.1980 h1        1 CB8      0.043700
     33 HAC         0.7990   -3.7110   -2.3990 ho        1 CB8      0.399000
     34 HAP1        2.2320   -3.0230    0.6660 hc        1 CB8      0.074700
     35 HAP2        3.6510   -2.9090   -0.4620 hc        1 CB8      0.074700
     36 HAE         4.7140   -0.1290    0.2730 ho        1 CB8      0.427000
     37 HAO1        1.1560    1.6320    1.3440 hc        1 CB8      0.077200
     38 HAO2        2.9390    1.2880    1.4580 hc        1 CB8      0.077200
     39 HAF        -7.2410   -2.7160   -1.0950 ha        1 CB8      0.123000
     40 HAG        -8.2330   -1.2570    0.6490 ha        1 CB8      0.122000
     41 HAL        -6.8140    0.3520    1.9210 ha        1 CB8      0.129000
     42 HAN1       -1.1760    1.7400    0.9260 h1        1 CB8      0.066200
     43 HAN2       -0.6810    0.1110    1.6200 h1        1 CB8      0.066200
     44 HAJ         0.3780    2.4590   -1.3200 ha        1 CB8      0.165000
     45 HAH         1.4080    4.3640   -2.8190 ha        1 CB8      0.136000
     46 HAI         3.9130    4.8630   -2.1540 h4        1 CB8      0.154000
     47 HAM        -2.3810   -1.3570   -0.9830 ha        1 CB8      0.192000
     48 HAK        -4.7920   -2.5950   -1.6090 ha        1 CB8      0.138000
@<TRIPOS>BOND
     1    1    2 1   
     2    1   12 2   
     3    1   23 1   
     4    2    3 1   
     5    2    4 1   
     6    2   30 1   
     7    3   31 1   
     8    4    5 1   
     9    4    6 1   
    10    4   32 1   
    11    5   33 1   
    12    6    7 1   
    13    6   34 1   
    14    6   35 1   
    15    7    8 1   
    16    7   11 1   
    17    7   12 1   
    18    8    9 1   
    19    8   10 1   
    20   11   36 1   
    21   12   24 1   
    22   13   14 1   
    23   13   21 2   
    24   13   47 1   
    25   14   15 ar  
    26   14   19 ar  
    27   15   16 ar  
    28   15   48 1   
    29   16   17 ar  
    30   16   39 1   
    31   17   18 ar  
    32   17   40 1   
    33   18   19 ar  
    34   18   41 1   
    35   19   20 1   
    36   20   21 1   
    37   21   22 1   
    38   22   23 1   
    39   22   42 1   
    40   22   43 1   
    41   24   25 1   
    42   24   37 1   
    43   24   38 1   
    44   25   26 2   
    45   25   29 1   
    46   26   27 1   
    47   26   44 1   
    48   27   28 2   
    49   27   45 1   
    50   28   29 1   
    51   28   46 1   
@<TRIPOS>SUBSTRUCTURE
     1 CB8         1 TEMP              0 ****  ****    0 ROOT
