@<TRIPOS>MOLECULE
CB8
   48    51     1     0     0
SMALL
bcc


@<TRIPOS>ATOM
      1 CAV        -0.6450    0.4510   -0.0690 c2        1 CB8     -0.046100
      2 CBB         0.7160    0.6040   -0.6850 c3        1 CB8      0.156300
      3 OAD         0.8180    1.7800   -1.4710 oh        1 CB8     -0.600800
      4 CBA         1.7800    0.5910    0.4280 c3        1 CB8      0.116100
      5 OAC         3.0860    0.6680   -0.1210 oh        1 CB8     -0.600800
      6 CAP         1.6070   -0.6640    1.2680 c3        1 CB8     -0.102400
      7 CBC         0.2360   -0.7560    1.9330 c3        1 CB8      0.049000
      8 CAT        -0.1470   -2.2810    2.1190 c         1 CB8      0.903600
      9 OAB        -0.6880   -2.5660    3.2250 o         1 CB8     -0.812300
     10 OAA         0.0940   -3.0830    1.1850 o         1 CB8     -0.812300
     11 OAE         0.3410   -0.1240    3.2030 oh        1 CB8     -0.622800
     12 CAU        -0.8710   -0.0990    1.1420 c2        1 CB8     -0.038400
     13 CAM        -1.3430    0.8800   -3.6740 cc        1 CB8     -0.114200
     14 CAY        -1.5580    0.8680   -5.1000 ca        1 CB8     -0.074800
     15 CAK        -0.7390    1.3890   -6.1100 ca        1 CB8     -0.087000
     16 CAF        -1.1360    1.2680   -7.4320 ca        1 CB8     -0.146000
     17 CAG        -2.3450    0.6290   -7.7630 ca        1 CB8     -0.133000
     18 CAL        -3.1660    0.1070   -6.7760 ca        1 CB8     -0.100000
     19 CAZ        -2.7810    0.2210   -5.4360 ca        1 CB8     -0.070100
     20 SAS        -3.5750   -0.3150   -4.0450 ss        1 CB8     -0.026500
     21 CAX        -2.3610    0.2710   -2.9960 cd        1 CB8     -0.087600
     22 CAN        -2.4790    0.0890   -1.5320 c3        1 CB8      0.189600
     23 OAQ        -1.6590    1.0350   -0.8310 os        1 CB8     -0.345900
     24 CAO        -2.2370   -0.1850    1.7470 c3        1 CB8      0.012100
     25 CAW        -2.7080    1.0740    2.3540 cc        1 CB8     -0.063400
     26 CAJ        -3.0040    2.2530    1.6960 cd        1 CB8     -0.173000
     27 CAH        -3.4820    3.2580    2.5920 cd        1 CB8     -0.161000
     28 CAI        -3.5290    2.7990    3.8920 cc        1 CB8     -0.204100
     29 SAR        -3.0050    1.2210    4.0050 ss        1 CB8      0.026200
     30 HBB         0.9110   -0.2320   -1.4180 h1        1 CB8      0.076700
     31 HAD         0.4310    2.4990   -0.9580 ho        1 CB8      0.406000
     32 HBA         1.6920    1.5180    1.0590 h1        1 CB8      0.082700
     33 HAC         3.2100   -0.1190   -0.6640 ho        1 CB8      0.392000
     34 HAP1        1.7460   -1.5720    0.6200 hc        1 CB8      0.069200
     35 HAP2        2.3950   -0.6800    2.0640 hc        1 CB8      0.069200
     36 HAE        -0.1100   -0.6980    3.8440 ho        1 CB8      0.427000
     37 HAO1       -2.2310   -1.0040    2.5260 hc        1 CB8      0.077200
     38 HAO2       -2.9690   -0.4890    0.9450 hc        1 CB8      0.077200
     39 HAF        -0.5040    1.6710   -8.2360 ha        1 CB8      0.123000
     40 HAG        -2.6370    0.5440   -8.8190 ha        1 CB8      0.121000
     41 HAL        -4.1090   -0.3940   -7.0380 ha        1 CB8      0.128000
     42 HAN1       -3.5310    0.3160   -1.2000 h1        1 CB8      0.064700
     43 HAN2       -2.2150   -0.9660   -1.2490 h1        1 CB8      0.064700
     44 HAJ        -2.8780    2.4040    0.6210 ha        1 CB8      0.167000
     45 HAH        -3.7670    4.2590    2.2670 ha        1 CB8      0.136000
     46 HAI        -3.8570    3.3750    4.7530 h4        1 CB8      0.154000
     47 HAM        -0.4610    1.3310   -3.1990 ha        1 CB8      0.197000
     48 HAK         0.2050    1.8850   -5.8420 ha        1 CB8      0.139000
@<TRIPOS>BOND
     1    1    2 1   
     2    1   12 2   
     3    1   23 1   
     4    2    3 1   
     5    2    4 1   
     6    2   30 1   
     7    3   31 1   
     8    4    5 1   
     9    4    6 1   
    10    4   32 1   
    11    5   33 1   
    12    6    7 1   
    13    6   34 1   
    14    6   35 1   
    15    7    8 1   
    16    7   11 1   
    17    7   12 1   
    18    8    9 1   
    19    8   10 1   
    20   11   36 1   
    21   12   24 1   
    22   13   14 1   
    23   13   21 2   
    24   13   47 1   
    25   14   15 ar  
    26   14   19 ar  
    27   15   16 ar  
    28   15   48 1   
    29   16   17 ar  
    30   16   39 1   
    31   17   18 ar  
    32   17   40 1   
    33   18   19 ar  
    34   18   41 1   
    35   19   20 1   
    36   20   21 1   
    37   21   22 1   
    38   22   23 1   
    39   22   42 1   
    40   22   43 1   
    41   24   25 1   
    42   24   37 1   
    43   24   38 1   
    44   25   26 2   
    45   25   29 1   
    46   26   27 1   
    47   26   44 1   
    48   27   28 2   
    49   27   45 1   
    50   28   29 1   
    51   28   46 1   
@<TRIPOS>SUBSTRUCTURE
     1 CB8         1 TEMP              0 ****  ****    0 ROOT
