@<TRIPOS>MOLECULE
CB8
   48    51     1     0     0
SMALL
bcc


@<TRIPOS>ATOM
      1 CAV        -0.1390   -0.0830    0.0140 c2        1 CB8     -0.053100
      2 CBB         1.3350   -0.2280   -0.2170 c3        1 CB8      0.146300
      3 OAD         1.7820    0.5340   -1.3250 oh        1 CB8     -0.598800
      4 CBA         2.0650    0.1610    1.0820 c3        1 CB8      0.117100
      5 OAC         3.4710    0.0760    0.9230 oh        1 CB8     -0.601800
      6 CAP         1.5810   -0.7430    2.2060 c3        1 CB8     -0.101400
      7 CBC         0.0670   -0.7200    2.4160 c3        1 CB8      0.048000
      8 CAT        -0.4380   -2.1750    2.7870 c         1 CB8      0.905600
      9 OAB        -1.3320   -2.2190    3.6780 o         1 CB8     -0.812800
     10 OAA         0.0610   -3.1590    2.1900 o         1 CB8     -0.812800
     11 OAE        -0.1820    0.1650    3.5030 oh        1 CB8     -0.622800
     12 CAU        -0.7270   -0.2690    1.2140 c2        1 CB8     -0.029400
     13 CAM        -1.1890    0.9640   -3.9520 cc        1 CB8     -0.116200
     14 CAY        -1.9860    1.2600   -5.1140 ca        1 CB8     -0.076800
     15 CAK        -1.8100    2.2810   -6.0590 ca        1 CB8     -0.091000
     16 CAF        -2.6990    2.3850   -7.1150 ca        1 CB8     -0.143000
     17 CAG        -3.7680    1.4800   -7.2450 ca        1 CB8     -0.133000
     18 CAL        -3.9580    0.4660   -6.3210 ca        1 CB8     -0.096000
     19 CAZ        -3.0700    0.3450   -5.2460 ca        1 CB8     -0.079100
     20 SAS        -3.0620   -0.7750   -3.9850 ss        1 CB8      0.013500
     21 CAX        -1.6690   -0.1180   -3.2640 cd        1 CB8     -0.069600
     22 CAN        -1.0780   -0.7100   -2.0450 c3        1 CB8      0.189600
     23 OAQ        -0.8640    0.3520   -1.0970 os        1 CB8     -0.343900
     24 CAO        -2.2040   -0.1390    1.4060 c3        1 CB8      0.015100
     25 CAW        -2.6730    1.2480    1.5820 cc        1 CB8     -0.057400
     26 CAJ        -2.6300    2.2600    0.6430 cd        1 CB8     -0.169000
     27 CAH        -3.2160    3.4680    1.1330 cd        1 CB8     -0.161000
     28 CAI        -3.6830    3.3200    2.4220 cc        1 CB8     -0.203100
     29 SAR        -3.4040    1.7820    3.0030 ss        1 CB8      0.015200
     30 HBB         1.5910   -1.2920   -0.4960 h1        1 CB8      0.080700
     31 HAD         1.4310    1.4260   -1.2120 ho        1 CB8      0.403000
     32 HBA         1.8810    1.2450    1.3210 h1        1 CB8      0.079700
     33 HAC         3.6740   -0.8400    0.6960 ho        1 CB8      0.393000
     34 HAP1        2.0810   -0.4320    3.1600 hc        1 CB8      0.068700
     35 HAP2        1.8870   -1.8020    1.9810 hc        1 CB8      0.068700
     36 HAE        -0.8590   -0.2550    4.0610 ho        1 CB8      0.426000
     37 HAO1       -2.7180   -0.5740    0.5020 hc        1 CB8      0.077700
     38 HAO2       -2.4980   -0.7630    2.3020 hc        1 CB8      0.077700
     39 HAF        -2.5750    3.1800   -7.8640 ha        1 CB8      0.123000
     40 HAG        -4.4610    1.5850   -8.0930 ha        1 CB8      0.123000
     41 HAL        -4.7960   -0.2380   -6.4240 ha        1 CB8      0.130000
     42 HAN1       -0.0900   -1.1910   -2.2870 h1        1 CB8      0.056200
     43 HAN2       -1.7640   -1.4720   -1.5840 h1        1 CB8      0.056200
     44 HAJ        -2.1950    2.1540   -0.3540 ha        1 CB8      0.168000
     45 HAH        -3.2770    4.3820    0.5420 ha        1 CB8      0.135000
     46 HAI        -4.1680    4.0930    3.0100 h4        1 CB8      0.153000
     47 HAM        -0.3100    1.5450   -3.6620 ha        1 CB8      0.168000
     48 HAK        -0.9720    2.9850   -5.9500 ha        1 CB8      0.134000
@<TRIPOS>BOND
     1    1    2 1   
     2    1   12 2   
     3    1   23 1   
     4    2    3 1   
     5    2    4 1   
     6    2   30 1   
     7    3   31 1   
     8    4    5 1   
     9    4    6 1   
    10    4   32 1   
    11    5   33 1   
    12    6    7 1   
    13    6   34 1   
    14    6   35 1   
    15    7    8 1   
    16    7   11 1   
    17    7   12 1   
    18    8    9 1   
    19    8   10 1   
    20   11   36 1   
    21   12   24 1   
    22   13   14 1   
    23   13   21 2   
    24   13   47 1   
    25   14   15 ar  
    26   14   19 ar  
    27   15   16 ar  
    28   15   48 1   
    29   16   17 ar  
    30   16   39 1   
    31   17   18 ar  
    32   17   40 1   
    33   18   19 ar  
    34   18   41 1   
    35   19   20 1   
    36   20   21 1   
    37   21   22 1   
    38   22   23 1   
    39   22   42 1   
    40   22   43 1   
    41   24   25 1   
    42   24   37 1   
    43   24   38 1   
    44   25   26 2   
    45   25   29 1   
    46   26   27 1   
    47   26   44 1   
    48   27   28 2   
    49   27   45 1   
    50   28   29 1   
    51   28   46 1   
@<TRIPOS>SUBSTRUCTURE
     1 CB8         1 TEMP              0 ****  ****    0 ROOT
