@<TRIPOS>MOLECULE
CB8
   48    41     1     0     0
SMALL
bcc


@<TRIPOS>ATOM
      1 CAV         0.6750   -0.4280    1.0430 c1        1 CB8     -0.010000
      2 CBB         2.1250   -0.4190    1.0470 c2        1 CB8      0.030000
      3 OAD         2.6240    0.7190    0.3190 oh        1 CB8     -0.330000
      4 CBA         2.7520   -0.4920    2.5810 c3        1 CB8      0.014000
      5 OAC         2.4900   -1.8800    3.1300 oh        1 CB8     -0.360000
      6 CAP         2.2860    0.3510    3.4050 c3        1 CB8     -0.177000
      7 CBC         0.6700    0.3120    3.6200 c3        1 CB8      0.032000
      8 CAT         0.2240    1.4450    4.5780 c2        1 CB8      0.325000
      9 OAB         0.3270    2.6480    4.2200 o         1 CB8     -0.541500
     10 OAA        -0.2080    1.1650    5.7250 o         1 CB8     -0.541500
     11 OAE         0.2920   -0.8240    4.3590 oh        1 CB8     -0.374000
     12 CAU        -0.0670    0.3520    2.3440 c2        1 CB8     -0.075000
     13 CAM        -0.6410   -2.8190   -3.1450 c1        1 CB8     -0.180000
     14 CAY        -0.7110   -2.2030   -4.6280 c1        1 CB8     -0.060000
     15 CAK        -1.0290   -2.7750   -5.8490 c1        1 CB8     -0.117250
     16 CAF        -1.0050   -1.9990   -7.0140 c1        1 CB8     -0.117250
     17 CAG        -0.6560   -0.6310   -6.9460 c1        1 CB8     -0.117250
     18 CAL        -0.3350   -0.0510   -5.7140 c1        1 CB8     -0.117250
     19 CAZ        -0.3580   -0.8180   -4.5590 c1        1 CB8     -0.344000
     20 SAS        -0.0480   -0.4740   -3.0610 s         1 CB8      0.604000
     21 CAX        -0.2440   -1.7670   -2.2350 c1        1 CB8     -0.313000
     22 CAN         0.2190   -1.8350   -0.7960 c2        1 CB8      0.034000
     23 OAQ        -0.0230   -0.5980   -0.1660 os        1 CB8     -0.210000
     24 CAO        -1.5660    0.5680    2.3420 c3        1 CB8     -0.043000
     25 CAW        -1.8670    2.0150    2.0140 c2        1 CB8     -0.418000
     26 CAJ        -3.0100    2.4980    1.2620 c1        1 CB8     -0.178000
     27 CAH        -2.9760    4.0900    1.2680 c1        1 CB8     -0.188000
     28 CAI        -1.8140    4.5180    2.0230 c1        1 CB8     -0.569000
     29 SAR        -1.0730    3.2490    2.5200 ss        1 CB8      0.835000
     30 HBB         2.4780   -1.1530    0.5060 h4        1 CB8      0.091000
     31 HAD         3.4270    0.5290   -0.0150 ho        1 CB8      0.200000
     32 HBA         3.7190   -0.3610    2.5240 h1        1 CB8      0.106000
     33 HAC         3.2630   -2.3030    3.2480 ho        1 CB8      0.220000
     34 HAP1        2.7120    0.1970    4.2730 hc        1 CB8      0.111000
     35 HAP2        2.5310    1.2480    3.0960 hc        1 CB8      0.111000
     36 HAE         0.7420   -0.8430    5.1250 ho        1 CB8      0.236000
     37 HAO1       -1.9280    0.3520    3.2250 hc        1 CB8      0.098500
     38 HAO2       -1.9780   -0.0110    1.6700 hc        1 CB8      0.098500
     39 HAM        -0.8350   -3.7430   -2.9010 DU        1 CB8      0.135500
     40 HAK        -1.2700   -3.7200   -5.8970 ha        1 CB8      0.125000
     41 HAF        -1.2310   -2.4020   -7.8740 ha        1 CB8      0.125000
     42 HAG        -0.6390   -0.0910   -7.7590 ha        1 CB8      0.125000
     43 HAL        -0.0940    0.8940   -5.6670 ha        1 CB8      0.125000
     44 HAN1        1.1780   -2.0320   -0.7700 h4        1 CB8      0.096000
     45 HAN2       -0.2720   -2.5420   -0.3280 h4        1 CB8      0.096000
     46 HAJ        -3.6850    1.9430    0.8280 DU        1 CB8      0.135500
     47 HAH        -3.6270    4.6780    0.8380 DU        1 CB8      0.135500
     48 HAI        -1.5450    5.4420    2.1890 DU        1 CB8      0.135500
@<TRIPOS>BOND
     1    1   12 1   
     2    1   23 1   
     3    2    3 1   
     4    2    4 1   
     5    2   30 1   
     6    3   31 1   
     7    4    5 1   
     8    4    6 1   
     9    4   32 1   
    10    5   33 1   
    11    6    7 1   
    12    6   34 1   
    13    6   35 1   
    14    7    8 1   
    15    7   11 1   
    16    7   12 1   
    17    8    9 1   
    18    8   10 1   
    19   11   36 1   
    20   12   24 1   
    21   13   14 1   
    22   13   21 1   
    23   14   19 1   
    24   15   16 1   
    25   15   40 1   
    26   16   41 1   
    27   17   18 1   
    28   17   42 1   
    29   18   43 1   
    30   20   21 1   
    31   22   23 1   
    32   22   44 1   
    33   22   45 1   
    34   24   25 1   
    35   24   37 1   
    36   24   38 1   
    37   25   26 1   
    38   25   29 1   
    39   26   27 1   
    40   27   28 1   
    41   28   29 1   
@<TRIPOS>SUBSTRUCTURE
     1 CB8         1 TEMP              0 ****  ****    0 ROOT
