@<TRIPOS>MOLECULE
CB9
   45    49     1     0     0
SMALL
bcc


@<TRIPOS>ATOM
      1 C           0.0000    0.0000    0.0000 c2        1 CB9      0.120000
      2 N           1.9960    1.1960   -0.6900 ny        1 CB9      0.150000
      3 O          -0.6030    0.9050   -0.5230 o         1 CB9     -0.228000
      4 CA          1.5070    0.0000    0.0000 DU        1 CB9     -0.430000
      5 CB          2.0180    0.0000    1.4430 c3        1 CB9     -0.267000
      6 CAJ         2.7730    1.6830   -6.9470 ca        1 CB9     -0.142000
      7 CAK         3.0070    0.6530   -6.0560 ca        1 CB9     -0.111000
      8 CAL         2.2470    2.8840   -6.4950 ca        1 CB9     -0.111000
      9 CAM         2.7160    0.8200   -4.7080 ca        1 CB9     -0.101000
     10 CAN         2.9240    3.2180   -5.0910 ca        1 CB9     -0.101000
     11 NAP         1.5410   -1.2040    2.1810 n7        1 CB9      0.482000
     12 SAQ         1.2310    1.3440    2.4250 ss        1 CB9     -0.032000
     13 CAR         2.9800   -1.4250    4.1110 c2        1 CB9     -1.958000
     14 CAS         4.0090    2.7620   -2.2450 c2        1 CB9      0.419000
     15 CAT         2.1240    1.1940   -2.0320 DU        1 CB9      0.407000
     16 CAU         2.6780    2.1620   -4.2260 ca        1 CB9      0.029000
     17 CAX         1.6190   -0.9940    3.6300 c3        1 CB9     -0.022000
     18 CAY         2.6270    2.4240   -2.7420 c3        1 CB9     -0.486000
     19 CAZ         1.3900    0.4750    4.0350 c3        1 CB9     -0.105000
     20 H           0.6480   -0.6330   -0.5940 DU        1 CB9      0.253000
     21 HN          2.5220    0.9230   -1.4970 DU        1 CB9     -0.320000
     22 HA          1.4980    0.1160   -1.0770 hx        1 CB9      0.300000
     23 HB          2.5860   -0.1710    2.3490 h2        1 CB9      0.087000
     24 HAK         3.4170   -0.2860   -6.4090 ha        1 CB9      0.082500
     25 HAL         2.0480    3.6860   -7.1960 ha        1 CB9      0.082500
     26 HAM         2.8630   -0.0000   -4.0170 ha        1 CB9      0.142000
     27 HAN         2.6290    4.1050   -4.5450 ha        1 CB9      0.142000
     28 HNAP        2.1730   -1.9640    2.0230 hn        1 CB9     -0.030000
     29 HAX         1.6840   -0.9670    2.5490 h1        1 CB9     -0.170000
     30 HAY         2.7340    1.9000   -1.8000 DU        1 CB9      0.450000
     31 CAA         0.1040    0.6150    4.8520 c3        1 CB9     -0.082500
     32 CAB         2.5880    1.0120    4.8220 c3        1 CB9     -0.082500
     33 OAF         1.8360    0.2020   -2.6680 o         1 CB9     -0.492000
     34 OAG         3.8910   -1.5360    3.3250 o         1 CB9      0.906500
     35 HAA         0.2570    0.1980    5.8400 hc        1 CB9      0.051000
     36 HAAA       -0.6980    0.0830    4.3560 hc        1 CB9      0.051000
     37 HAAB       -0.1560    1.6620    4.9380 hc        1 CB9      0.051000
     38 HAB         2.3610    2.0060    5.1900 hc        1 CB9      0.051000
     39 HABA        3.4550    1.0570    4.1730 hc        1 CB9      0.051000
     40 HABB        2.7950    0.3560    5.6580 hc        1 CB9      0.051000
     41 OAE         4.5640    3.8350   -2.6050 o         1 CB9     -0.580500
     42 OAD         4.0140   -1.0650    3.4850 o         1 CB9      0.906500
     43 H2          2.9650    1.3290   -0.4810 hn        1 CB9      0.085000
     44 OAH         4.5970    1.9880   -1.4430 o         1 CB9     -0.580500
     45 HAJ         2.9990    1.5520   -7.9980 ha        1 CB9      0.080000
@<TRIPOS>BOND
     1    1    3 1   
     2    1    4 1   
     3    1   20 1   
     4    2    4 1   
     5    2   15 1   
     6    2   21 1   
     7    2   43 1   
     8    4    5 1   
     9    4   20 1   
    10    4   22 1   
    11    5   11 1   
    12    5   12 1   
    13    5   23 1   
    14    6    7 1   
    15    6    8 1   
    16    6   45 1   
    17    7    9 1   
    18    7   24 1   
    19    8   10 1   
    20    8   25 1   
    21    9   16 1   
    22    9   26 1   
    23   10   16 1   
    24   10   27 1   
    25   11   17 1   
    26   11   28 1   
    27   12   19 1   
    28   13   17 1   
    29   13   34 1   
    30   13   42 1   
    31   14   18 1   
    32   14   41 1   
    33   14   44 1   
    34   15   18 1   
    35   15   21 1   
    36   15   30 1   
    37   15   33 1   
    38   16   18 1   
    39   17   19 1   
    40   17   29 1   
    41   18   30 1   
    42   19   31 1   
    43   19   32 1   
    44   31   35 1   
    45   31   36 1   
    46   31   37 1   
    47   32   38 1   
    48   32   39 1   
    49   32   40 1   
@<TRIPOS>SUBSTRUCTURE
     1 CB9         1 TEMP              0 ****  ****    0 ROOT
