@<TRIPOS>MOLECULE
CB9
   45    45     1     0     0
SMALL
bcc


@<TRIPOS>ATOM
      1 C           2.3060   -2.3520   -0.3940 c         1 CB9      0.569900
      2 N           0.5110   -0.6830   -1.0120 n4        1 CB9     -0.652800
      3 O           1.7660   -3.2000   -1.1000 o         1 CB9     -0.527100
      4 CA          1.7830   -0.9170   -0.2830 c3        1 CB9      0.011500
      5 CB          1.6820   -0.6020    1.2340 c3        1 CB9      0.236600
      6 CAJ         1.9300    4.0720   -5.4160 ca        1 CB9     -0.191000
      7 CAK         2.2360    4.4150   -4.0990 ca        1 CB9     -0.119000
      8 CAL         1.3860    2.8160   -5.6860 ca        1 CB9     -0.119000
      9 CAM         2.0010    3.5180   -3.0650 ca        1 CB9     -0.176500
     10 CAN         1.1470    1.9110   -4.6570 ca        1 CB9     -0.176500
     11 NAP         0.7460   -1.4920    1.8810 n3        1 CB9     -0.924800
     12 SAQ         1.2200    1.1250    1.4810 ss        1 CB9     -0.426200
     13 CAR         4.3120    0.2320    3.1730 c1        1 CB9      0.055600
     14 CAS         3.8010   -2.6160    3.7670 c         1 CB9      0.493100
     15 CAT         0.6790    0.0970   -2.3530 c2        1 CB9      0.533300
     16 CAU         1.4490    2.2440   -3.3230 ca        1 CB9      0.069200
     17 CAX         3.6110    1.0780    2.6940 c1        1 CB9     -0.263100
     18 CAY         1.2270    1.3550   -2.2220 ce        1 CB9     -0.438200
     19 CAZ         2.7420    1.9990    2.0440 c3        1 CB9      0.219200
     20 H           3.1970   -2.5480    0.2460 h4        1 CB9      0.086200
     21 HN         -0.1170   -0.1460   -0.4120 hn        1 CB9      0.436800
     22 HA          2.5670   -0.2300   -0.7280 hx        1 CB9      0.127700
     23 HB          2.7380   -0.7450    1.6300 h2        1 CB9      0.142700
     24 HAK         2.6660    5.4030   -3.8780 ha        1 CB9      0.109500
     25 HAL         1.1430    2.5370   -6.7210 ha        1 CB9      0.109500
     26 HAM         2.2460    3.7970   -2.0300 ha        1 CB9      0.135000
     27 HAN         0.7170    0.9220   -4.8810 ha        1 CB9      0.135000
     28 HNAP        1.2420   -2.3100    2.2040 hn        1 CB9      0.383800
     29 HAX         0.3210   -1.0390    2.6670 hn        1 CB9      0.383800
     30 HAY         1.5030    1.7350   -1.2250 ha        1 CB9      0.137000
     31 CAA         2.1930    3.0630    2.9740 c3        1 CB9     -0.083600
     32 CAB         3.3850    2.6270    0.8220 c3        1 CB9     -0.083600
     33 OAF         0.2410   -0.5930   -3.2970 o         1 CB9     -0.676300
     34 OAG         5.1430   -0.7120    3.6370 os        1 CB9      0.017400
     35 HAA         1.7810    2.6000    3.9020 hc        1 CB9      0.048700
     36 HAAA        3.0100    3.7700    3.2600 hc        1 CB9      0.048700
     37 HAAB        1.3820    3.6370    2.4630 hc        1 CB9      0.048700
     38 HAB         3.7390    1.8390    0.1140 hc        1 CB9      0.048700
     39 HABA        2.6460    3.2760    0.2910 hc        1 CB9      0.048700
     40 HABB        4.2610    3.2500    1.1280 hc        1 CB9      0.048700
     41 OAE         3.4940   -3.4860    4.5930 o         1 CB9     -0.525000
     42 OAD         4.5910   -1.5860    4.4180 os        1 CB9     -0.321100
     43 H2          0.0780   -1.5880   -1.2310 hn        1 CB9      0.436800
     44 OAH         3.5640   -2.4110    2.5560 o         1 CB9     -0.525000
     45 HAJ         2.1170    4.7820   -6.2320 ha        1 CB9      0.109000
@<TRIPOS>BOND
     1    1    3 2   
     2    1    4 1   
     3    1   20 1   
     4    2    4 1   
     5    2   15 1   
     6    2   21 1   
     7    2   43 1   
     8    4    5 1   
     9    4   22 1   
    10    5   11 1   
    11    5   12 1   
    12    5   23 1   
    13    6    7 ar  
    14    6    8 ar  
    15    6   45 1   
    16    7    9 ar  
    17    7   24 1   
    18    8   10 ar  
    19    8   25 1   
    20    9   16 ar  
    21    9   26 1   
    22   10   16 ar  
    23   10   27 1   
    24   11   28 1   
    25   11   29 1   
    26   12   19 1   
    27   13   17 3   
    28   13   34 1   
    29   14   41 1   
    30   14   42 1   
    31   14   44 1   
    32   15   18 2   
    33   15   33 1   
    34   16   18 1   
    35   17   19 1   
    36   18   30 1   
    37   19   31 1   
    38   19   32 1   
    39   31   35 1   
    40   31   36 1   
    41   31   37 1   
    42   32   38 1   
    43   32   39 1   
    44   32   40 1   
    45   34   42 1   
@<TRIPOS>SUBSTRUCTURE
     1 CB9         1 TEMP              0 ****  ****    0 ROOT
