@<TRIPOS>MOLECULE
CB9
   45    44     1     0     0
SMALL
bcc


@<TRIPOS>ATOM
      1 C          -0.2460    0.0790   -0.4990 c         1 CB9      0.582900
      2 N           1.9090    1.3770   -0.4060 n4        1 CB9     -0.653800
      3 O          -0.8740    1.0990   -0.7820 o         1 CB9     -0.531100
      4 CA          1.2370    0.0690   -0.1690 c3        1 CB9      0.002500
      5 CB          1.4710   -0.4380    1.2950 c3        1 CB9      0.343600
      6 CAJ         2.5930    2.5230   -6.8970 ca        1 CB9     -0.184000
      7 CAK         1.2960    2.7220   -6.4250 ca        1 CB9     -0.122000
      8 CAL         3.5870    2.1040   -6.0130 ca        1 CB9     -0.122000
      9 CAM         0.9950    2.5070   -5.0850 ca        1 CB9     -0.168500
     10 CAN         3.2940    1.8870   -4.6700 ca        1 CB9     -0.168500
     11 NAP         0.8050   -1.6660    1.5380 n3        1 CB9     -0.945800
     12 SAQ         0.9740    0.9980    2.3270 ss        1 CB9     -0.584200
     13 CAR         2.6120   -1.6380    4.1120 c1        1 CB9      0.068600
     14 CAS         5.5760    0.5800   -0.2090 c1        1 CB9      0.926000
     15 CAT         2.5150    1.4860   -1.8300 c2        1 CB9      0.527300
     16 CAU         1.9900    2.0850   -4.1790 ca        1 CB9      0.059200
     17 CAX         2.3700   -0.4610    4.0110 c1        1 CB9     -0.445100
     18 CAY         1.6290    1.8790   -2.8060 ce        1 CB9     -0.414200
     19 CAZ         2.0320    0.9030    3.8480 c3        1 CB9      0.289200
     20 H          -0.7150   -0.9280   -0.4750 h4        1 CB9      0.045200
     21 HN          2.6690    1.4840    0.2790 hn        1 CB9      0.446300
     22 HA          1.7290   -0.6850   -0.8620 hx        1 CB9      0.129700
     23 HB          2.5830   -0.5670    1.4430 h2        1 CB9      0.106700
     24 HAK         0.5070    3.0510   -7.1160 ha        1 CB9      0.111500
     25 HAL         4.6110    1.9430   -6.3780 ha        1 CB9      0.111500
     26 HAM        -0.0310    2.6670   -4.7220 ha        1 CB9      0.138000
     27 HAN         4.0860    1.5540   -3.9800 ha        1 CB9      0.138000
     28 HNAP       -0.0860   -1.5400    1.9690 hn        1 CB9      0.417800
     29 HAX         1.3660   -2.3350    2.0560 hn        1 CB9      0.417800
     30 HAY         0.5720    2.0520   -2.5530 ha        1 CB9      0.134000
     31 CAA         1.1410    1.4580    4.9400 c3        1 CB9     -0.084100
     32 CAB         3.2350    1.7960    3.6210 c3        1 CB9     -0.084100
     33 OAF         3.7380    1.2060   -1.8040 o         1 CB9     -0.724300
     34 OAG         2.8620   -2.9560    4.1330 os        1 CB9      0.034400
     35 HAA         0.2740    0.7790    5.1190 hc        1 CB9      0.040033
     36 HAAA        0.7590    2.4690    4.6550 hc        1 CB9      0.040033
     37 HAAB        1.7250    1.5480    5.8880 hc        1 CB9      0.040033
     38 HAB         2.9100    2.8480    3.4360 hc        1 CB9      0.040033
     39 HABA        3.8940    1.7760    4.5240 hc        1 CB9      0.040033
     40 HABB        3.8280    1.4380    2.7440 hc        1 CB9      0.040033
     41 OAE         6.4400    0.3070   -0.9770 o         1 CB9     -0.464500
     42 OAD         2.1590   -3.6350    3.3580 o         1 CB9     -0.667000
     43 H2          1.2260    2.1250   -0.2570 hn        1 CB9      0.446300
     44 OAH         4.7530    0.8480    0.6110 o         1 CB9     -0.464500
     45 HAJ         2.8290    2.6930   -7.9560 ha        1 CB9      0.111000
@<TRIPOS>BOND
     1    1    3 2   
     2    1    4 1   
     3    1   20 1   
     4    2    4 1   
     5    2   15 1   
     6    2   21 1   
     7    2   43 1   
     8    4    5 1   
     9    4   22 1   
    10    5   11 1   
    11    5   12 1   
    12    5   23 1   
    13    6    7 ar  
    14    6    8 ar  
    15    6   45 1   
    16    7    9 ar  
    17    7   24 1   
    18    8   10 ar  
    19    8   25 1   
    20    9   16 ar  
    21    9   26 1   
    22   10   16 ar  
    23   10   27 1   
    24   11   28 1   
    25   11   29 1   
    26   12   19 1   
    27   13   17 3   
    28   13   34 1   
    29   14   41 2   
    30   14   44 2   
    31   15   18 2   
    32   15   33 1   
    33   16   18 1   
    34   17   19 1   
    35   18   30 1   
    36   19   31 1   
    37   19   32 1   
    38   31   35 1   
    39   31   36 1   
    40   31   37 1   
    41   32   38 1   
    42   32   39 1   
    43   32   40 1   
    44   34   42 1   
@<TRIPOS>SUBSTRUCTURE
     1 CB9         1 TEMP              0 ****  ****    0 ROOT
