@<TRIPOS>MOLECULE
CB9
   44    41     1     0     0
SMALL
bcc


@<TRIPOS>ATOM
      1 C          -1.5650   -0.5510    0.2790 c1        1 CB9      0.192000
      2 N           0.4060    0.5310   -0.3930 n         1 CB9     -0.365000
      3 O          -2.1510    0.3620    0.8300 o         1 CB9     -0.322000
      4 CA         -0.0820   -0.5860    0.2740 c2        1 CB9     -0.053000
      5 CB          0.4560   -0.5860    1.7780 c3        1 CB9     -0.086000
      6 CAA         0.4020   -2.6990    4.6170 c3        1 CB9     -0.200000
      7 CAB        -1.1920   -3.7380    3.0240 c3        1 CB9     -0.200000
      8 OAD         1.8970   -4.9860    2.9620 o         1 CB9     -0.569000
      9 OAE         2.6680    1.1760   -3.9510 o         1 CB9     -0.558000
     10 OAF        -0.8230    0.0970   -2.2670 o         1 CB9     -0.427000
     11 OAG         3.0270   -3.1530    3.3070 o         1 CB9     -0.569000
     12 OAH         0.6890    0.5410   -4.6120 o         1 CB9     -0.558000
     13 CAJ        -1.6170    5.1470   -3.6160 c1        1 CB9     -0.151000
     14 CAK        -2.1960    3.8950   -3.7520 c1        1 CB9     -0.151000
     15 CAL        -0.3060    5.2600   -3.1780 c1        1 CB9     -0.151000
     16 CAM        -1.4660    2.7570   -3.4490 c1        1 CB9     -0.069000
     17 CAN         0.4240    4.1220   -2.8750 c1        1 CB9     -0.151000
     18 NAP         1.5510   -1.4190    1.8910 n3        1 CB9     -0.288000
     19 SAQ        -0.6540   -1.1970    2.7610 ss        1 CB9     -0.102000
     20 CAR         1.9920   -3.7330    2.8840 c2        1 CB9      0.358000
     21 CAS         1.4220    1.1290   -3.7740 c2        1 CB9      0.346000
     22 CAT         0.0560    0.7560   -1.7490 c2        1 CB9      0.335000
     23 CAU        -0.1560    2.8700   -3.0110 c1        1 CB9      0.005000
     24 CAX         0.9600   -2.9880    2.3140 c3        1 CB9     -0.105000
     25 CAY         0.8040    1.7900   -2.5620 c3        1 CB9     -0.181000
     26 CAZ        -0.0940   -2.7110    3.1880 c3        1 CB9     -0.061000
     27 H          -2.0730   -1.2720   -0.1450 ha        1 CB9      0.087000
     28 HN          0.9740    1.1050    0.0330 hn        1 CB9      0.271000
     29 HA          0.2230   -1.3950   -0.1800 h4        1 CB9      0.139000
     30 HB          0.6910    0.3220    2.0550 h2        1 CB9      0.141000
     31 HAA         1.1480   -2.0690    4.6980 hc        1 CB9      0.082500
     32 HAAA        0.7050   -3.5980    4.8650 hc        1 CB9      0.082500
     33 HAAB       -0.3250   -2.4230    5.2130 hc        1 CB9      0.082500
     34 HAB        -0.8290   -4.6340    3.1880 hc        1 CB9      0.082500
     35 HABA       -1.5490   -3.6920    2.1120 hc        1 CB9      0.082500
     36 HABB       -1.9100   -3.5540    3.6660 hc        1 CB9      0.082500
     37 HAJ        -2.1340    5.9490   -3.8190 ha        1 CB9      0.105250
     38 HAK        -3.1190    3.8150   -4.0600 ha        1 CB9      0.105250
     39 HAL         0.1020    6.1410   -3.0820 ha        1 CB9      0.105250
     40 HAM        -1.8680    1.8740   -3.5630 ha        1 CB9      0.175000
     41 HAN         1.3460    4.2010   -2.5670 ha        1 CB9      0.105250
     42 HNAP        1.9840   -1.4630    1.0870 hn        1 CB9      0.194000
     43 HAX         0.6720   -3.5820    1.5910 h1        1 CB9      0.046000
     44 HAY         1.5080    2.1880   -2.0140 hc        1 CB9      0.112000
@<TRIPOS>BOND
     1    1    3 1   
     2    1   27 1   
     3    2    4 1   
     4    2   22 1   
     5    2   28 1   
     6    4    5 1   
     7    4   29 1   
     8    5   18 1   
     9    5   19 1   
    10    5   30 1   
    11    6   26 1   
    12    6   31 1   
    13    6   32 1   
    14    6   33 1   
    15    7   26 1   
    16    7   34 1   
    17    7   35 1   
    18    7   36 1   
    19    8   20 1   
    20    9   21 1   
    21   10   22 1   
    22   11   20 1   
    23   12   21 1   
    24   13   14 1   
    25   13   37 1   
    26   14   38 1   
    27   15   17 1   
    28   15   39 1   
    29   16   23 1   
    30   16   40 1   
    31   17   41 1   
    32   18   24 1   
    33   18   42 1   
    34   19   26 1   
    35   20   24 1   
    36   21   25 1   
    37   22   25 1   
    38   23   25 1   
    39   24   26 1   
    40   24   43 1   
    41   25   44 1   
@<TRIPOS>SUBSTRUCTURE
     1 CB9         1 TEMP              0 ****  ****    0 ROOT
