@<TRIPOS>MOLECULE
CB9
   44    45     1     0     0
SMALL
bcc


@<TRIPOS>ATOM
      1 C          -1.3860   -2.1120   -1.3840 c         1 CB9      0.568900
      2 N           0.8510   -1.1520   -0.7760 n         1 CB9     -0.537900
      3 O          -1.0060   -2.5640   -2.4640 o         1 CB9     -0.540100
      4 CA         -0.5060   -1.4010   -0.3630 c3        1 CB9     -0.039300
      5 CB         -1.2340   -0.0890    0.0730 c3        1 CB9      0.293600
      6 CAJ         5.0230    1.9660    1.2710 ca        1 CB9     -0.167000
      7 CAK         5.6740    1.3470    0.2030 ca        1 CB9     -0.144500
      8 CAL         3.7980    1.4680    1.7100 ca        1 CB9     -0.144500
      9 CAM         5.1070    0.2390   -0.4190 ca        1 CB9     -0.128000
     10 CAN         3.2270    0.3560    1.0910 ca        1 CB9     -0.128000
     11 NAP        -2.0850   -0.1560    1.2420 n3        1 CB9     -0.809200
     12 SAQ        -2.2860    0.5000   -1.3020 ss        1 CB9     -0.461200
     13 CAR        -4.4540   -0.3360    2.1040 c         1 CB9      0.937600
     14 CAS         3.5240   -1.3900   -2.1950 c         1 CB9      0.926600
     15 CAT         1.9130   -1.8120   -0.1920 c         1 CB9      0.680100
     16 CAU         3.8730   -0.2710    0.0190 ca        1 CB9     -0.012300
     17 CAX        -3.4770   -0.4090    0.8810 c3        1 CB9      0.042500
     18 CAY         3.3280   -1.4880   -0.6490 c3        1 CB9     -0.227400
     19 CAZ        -3.8340    0.5020   -0.3090 c3        1 CB9      0.119100
     20 H          -2.4360   -2.2500   -1.0340 h4        1 CB9     -0.004800
     21 HN          1.0020   -0.7320   -1.6760 hn        1 CB9      0.368500
     22 HA         -0.4640   -2.1020    0.5340 h1        1 CB9      0.098700
     23 HB         -0.4690    0.7100    0.2710 h2        1 CB9      0.092700
     24 HAJ         5.4700    2.8420    1.7580 ha        1 CB9      0.101000
     25 HAK         6.6370    1.7390   -0.1540 ha        1 CB9      0.109000
     26 HAL         3.2750    1.9520    2.5460 ha        1 CB9      0.109000
     27 HAM         5.6030   -0.2500   -1.2770 ha        1 CB9      0.158000
     28 HAN         2.2600   -0.0290    1.4540 ha        1 CB9      0.158000
     29 HNAP       -1.7730   -0.8050    1.9380 hn        1 CB9      0.395800
     30 HAX        -3.6060   -1.4810    0.5200 h1        1 CB9      0.007700
     31 HAY         3.9600   -2.3640   -0.3140 hc        1 CB9      0.086700
     32 CAA        -4.9510   -0.0870   -1.1300 c3        1 CB9     -0.081600
     33 CAB        -4.1440    1.9180    0.1000 c3        1 CB9     -0.081600
     34 OAF         1.7300   -2.6300    0.7430 o         1 CB9     -0.683100
     35 OAG        -5.6270    0.0890    1.9040 o         1 CB9     -0.835300
     36 OAH         4.5840   -1.9090   -2.6460 o         1 CB9     -0.824800
     37 HAA        -5.2170    0.5890   -1.9780 hc        1 CB9      0.042700
     38 HAAA       -4.6610   -1.0830   -1.5450 hc        1 CB9      0.042700
     39 HAAB       -5.8450   -0.2140   -0.4650 hc        1 CB9      0.042700
     40 HAB        -5.0580    1.9190    0.7500 hc        1 CB9      0.042700
     41 HABA       -3.2960    2.3540    0.6790 hc        1 CB9      0.042700
     42 HABB       -4.3290    2.5520   -0.8000 hc        1 CB9      0.042700
     43 OAE         2.6680   -0.7940   -2.9010 o         1 CB9     -0.824800
     44 OAD        -4.0430   -0.8000    3.2010 o         1 CB9     -0.835300
@<TRIPOS>BOND
     1    1    3 2   
     2    1    4 1   
     3    1   20 1   
     4    2    4 1   
     5    2   15 1   
     6    2   21 1   
     7    4    5 1   
     8    4   22 1   
     9    5   11 1   
    10    5   12 1   
    11    5   23 1   
    12    6    7 ar  
    13    6    8 ar  
    14    6   24 1   
    15    7    9 ar  
    16    7   25 1   
    17    8   10 ar  
    18    8   26 1   
    19    9   16 ar  
    20    9   27 1   
    21   10   16 ar  
    22   10   28 1   
    23   11   17 1   
    24   11   29 1   
    25   12   19 1   
    26   13   17 1   
    27   13   35 1   
    28   13   44 1   
    29   14   18 1   
    30   14   36 1   
    31   14   43 1   
    32   15   18 1   
    33   15   34 2   
    34   16   18 1   
    35   17   19 1   
    36   17   30 1   
    37   18   31 1   
    38   19   32 1   
    39   19   33 1   
    40   32   37 1   
    41   32   38 1   
    42   32   39 1   
    43   33   40 1   
    44   33   41 1   
    45   33   42 1   
@<TRIPOS>SUBSTRUCTURE
     1 CB9         1 TEMP              0 ****  ****    0 ROOT
