@<TRIPOS>MOLECULE
CBA
   40    40     1     0     0
SMALL
bcc


@<TRIPOS>ATOM
      1 N1         -0.2030    0.1390    0.2380 nb        1 CBA     -0.667000
      2 C2          1.1600    0.1820    0.2950 ca        1 CBA      0.314600
      3 C2A         1.9450    0.2810   -0.9710 c3        1 CBA     -0.114400
      4 C3          1.8530    0.1590    1.5250 ca        1 CBA      0.006800
      5 O3          3.2230    0.2870    1.4660 oh        1 CBA     -0.540100
      6 C4          1.1250    0.0790    2.7390 ca        1 CBA     -0.222300
      7 C4A         1.8560    0.1180    4.0400 c3        1 CBA      0.180100
      8 C5         -0.2670    0.0140    2.6710 ca        1 CBA     -0.130600
      9 C5A        -1.1810   -0.0610    3.8730 c3        1 CBA      0.244700
     10 C6         -0.8810    0.0600    1.3800 ca        1 CBA      0.369200
     11 P          -3.8010    0.0050    3.4910 p5        1 CBA      1.315900
     12 O1P        -3.7690    0.2900    2.0080 o         1 CBA     -0.916833
     13 O2P        -4.8030   -1.0050    3.9600 o         1 CBA     -0.916833
     14 O3P        -3.5730    1.2040    4.3710 o         1 CBA     -0.916833
     15 O4P        -2.2810   -0.8410    3.6550 os        1 CBA     -0.555200
     16 N           2.1880   -1.2460    4.5420 ny        1 CBA     -0.753000
     17 CA          3.3770   -1.2660    5.5010 c3        1 CBA      0.205000
     18 OA          3.1070   -0.2750    6.4770 oh        1 CBA     -0.633800
     19 CB          3.4310   -2.6580    6.1860 c3        1 CBA     -0.019900
     20 OB          3.4900   -3.6740    5.2080 oh        1 CBA     -0.630800
     21 C           4.6750   -0.8880    4.6680 c         1 CBA      0.917600
     22 O           4.7400   -1.3440    3.4900 o         1 CBA     -0.803300
     23 OT          5.4960   -0.1270    5.2210 o         1 CBA     -0.803300
     24 CG          4.5860   -2.7750    7.2210 c         1 CBA      0.917600
     25 OD1         4.6230   -1.9380    8.1640 o         1 CBA     -0.827300
     26 OD2         5.3730   -3.7490    7.0710 o         1 CBA     -0.827300
     27 H2A1        2.1520    1.3560   -1.1990 hc        1 CBA      0.026700
     28 H2A2        2.9240   -0.2450   -0.8470 hc        1 CBA      0.026700
     29 H2A3        1.3970   -0.1650   -1.8350 hc        1 CBA      0.026700
     30 HO3         3.6210   -0.2270    2.1940 ho        1 CBA      0.455000
     31 H4A1        2.8290    0.6830    3.9380 hx        1 CBA      0.102700
     32 H4A2        1.2400    0.6320    4.8330 hx        1 CBA      0.102700
     33 H5A1       -1.4860    0.9990    4.1430 h1        1 CBA      0.015700
     34 H5A2       -0.5840   -0.4950    4.7340 h1        1 CBA      0.015700
     35 H6         -2.0280    0.0440    1.3620 h4        1 CBA      0.162100
     36 HN          1.3680   -1.6560    4.9920 hn        1 CBA      0.449300
     37 HOA         3.8890   -0.2890    7.0640 ho        1 CBA      0.487000
     38 HB          2.4670   -2.8240    6.7470 h1        1 CBA      0.052700
     39 HOB         4.4230   -3.9310    5.1310 ho        1 CBA      0.436000
     40 H2          2.4840   -1.8470    3.7590 hn        1 CBA      0.449300
@<TRIPOS>BOND
     1    1    2 ar  
     2    1   10 ar  
     3    2    3 1   
     4    2    4 ar  
     5    3   27 1   
     6    3   28 1   
     7    3   29 1   
     8    4    5 1   
     9    4    6 ar  
    10    5   30 1   
    11    6    7 1   
    12    6    8 ar  
    13    7   16 1   
    14    7   31 1   
    15    7   32 1   
    16    8    9 1   
    17    8   10 ar  
    18    9   15 1   
    19    9   33 1   
    20    9   34 1   
    21   10   35 1   
    22   11   12 1   
    23   11   13 1   
    24   11   14 1   
    25   11   15 1   
    26   16   17 1   
    27   16   36 1   
    28   16   40 1   
    29   17   18 1   
    30   17   19 1   
    31   17   21 1   
    32   18   37 1   
    33   19   20 1   
    34   19   24 1   
    35   19   38 1   
    36   20   39 1   
    37   21   22 1   
    38   21   23 1   
    39   24   25 1   
    40   24   26 1   
@<TRIPOS>SUBSTRUCTURE
     1 CBA         1 TEMP              0 ****  ****    0 ROOT
