@<TRIPOS>MOLECULE
CBA
   40    40     1     0     0
SMALL
bcc


@<TRIPOS>ATOM
      1 N1         -0.1890    0.1210    0.2340 nb        1 CBA     -0.667000
      2 C2          1.1730    0.1640    0.2960 ca        1 CBA      0.314600
      3 C2A         1.9630    0.2550   -0.9670 c3        1 CBA     -0.114400
      4 C3          1.8610    0.1480    1.5280 ca        1 CBA      0.006800
      5 O3          3.2320    0.2750    1.4750 oh        1 CBA     -0.540100
      6 C4          1.1280    0.0750    2.7400 ca        1 CBA     -0.222300
      7 C4A         1.8540    0.1220    4.0440 c3        1 CBA      0.180100
      8 C5         -0.2630    0.0100    2.6670 ca        1 CBA     -0.130600
      9 C5A        -1.1820   -0.0570    3.8660 c3        1 CBA      0.244700
     10 C6         -0.8720    0.0490    1.3730 ca        1 CBA      0.369200
     11 P          -3.8010    0.0070    3.4730 p5        1 CBA      1.315900
     12 O1P        -3.7630    0.2840    1.9880 o         1 CBA     -0.916833
     13 O2P        -4.8050   -1.0000    3.9430 o         1 CBA     -0.916833
     14 O3P        -3.5760    1.2110    4.3470 o         1 CBA     -0.916833
     15 O4P        -2.2810   -0.8390    3.6480 os        1 CBA     -0.555200
     16 N           2.1840   -1.2400    4.5550 n4        1 CBA     -0.753000
     17 CA          3.3690   -1.2530    5.5190 c3        1 CBA      0.205000
     18 OA          3.0950   -0.2570    6.4870 oh        1 CBA     -0.633800
     19 CB          3.4200   -2.6420    6.2120 c3        1 CBA     -0.019900
     20 OB          3.4820   -3.6630    5.2410 oh        1 CBA     -0.630800
     21 C           4.6700   -0.8810    4.6890 c         1 CBA      0.917600
     22 O           4.7400   -1.3440    3.5140 o         1 CBA     -0.803300
     23 OT          5.4900   -0.1160    5.2410 o         1 CBA     -0.803300
     24 CG          4.5700   -2.7520    7.2530 c         1 CBA      0.917600
     25 OD1         4.6040   -1.9100    8.1910 o         1 CBA     -0.827300
     26 OD2         5.3580   -3.7270    7.1120 o         1 CBA     -0.827300
     27 H2A1        2.9410   -0.2700   -0.8360 hc        1 CBA      0.026700
     28 H2A2        1.4190   -0.1970   -1.8320 hc        1 CBA      0.026700
     29 H2A3        2.1710    1.3290   -1.2020 hc        1 CBA      0.026700
     30 HO3         3.6270   -0.2340    2.2070 ho        1 CBA      0.455000
     31 H4A1        1.2350    0.6410    4.8310 hx        1 CBA      0.102700
     32 H4A2        2.8270    0.6860    3.9420 hx        1 CBA      0.102700
     33 H5A1       -0.5890   -0.4870    4.7310 h1        1 CBA      0.015700
     34 H5A2       -1.4880    1.0040    4.1280 h1        1 CBA      0.015700
     35 H6         -2.0190    0.0330    1.3510 h4        1 CBA      0.162100
     36 HN          2.4830   -1.8450    3.7770 hn        1 CBA      0.449300
     37 HOA         3.8750   -0.2680    7.0780 ho        1 CBA      0.487000
     38 HB          2.4540   -2.8030    6.7710 h1        1 CBA      0.052700
     39 HOB         4.4160   -3.9210    5.1690 ho        1 CBA      0.436000
     40 H2          1.3620   -1.6460    5.0040 hn        1 CBA      0.449300
@<TRIPOS>BOND
     1    1    2 ar  
     2    1   10 ar  
     3    2    3 1   
     4    2    4 ar  
     5    3   27 1   
     6    3   28 1   
     7    3   29 1   
     8    4    5 1   
     9    4    6 ar  
    10    5   30 1   
    11    6    7 1   
    12    6    8 ar  
    13    7   16 1   
    14    7   31 1   
    15    7   32 1   
    16    8    9 1   
    17    8   10 ar  
    18    9   15 1   
    19    9   33 1   
    20    9   34 1   
    21   10   35 1   
    22   11   12 1   
    23   11   13 1   
    24   11   14 1   
    25   11   15 1   
    26   16   17 1   
    27   16   36 1   
    28   16   40 1   
    29   17   18 1   
    30   17   19 1   
    31   17   21 1   
    32   18   37 1   
    33   19   20 1   
    34   19   24 1   
    35   19   38 1   
    36   20   39 1   
    37   21   22 1   
    38   21   23 1   
    39   24   25 1   
    40   24   26 1   
@<TRIPOS>SUBSTRUCTURE
     1 CBA         1 TEMP              0 ****  ****    0 ROOT
