@<TRIPOS>MOLECULE
CBA
   40    40     1     0     0
SMALL
bcc


@<TRIPOS>ATOM
      1 N1         -0.2520   -0.0880    0.2640 nb        1 CBA     -0.675000
      2 C2          1.0940   -0.2930    0.3850 ca        1 CBA      0.326600
      3 C2A         1.9080   -0.5370   -0.8430 c3        1 CBA     -0.116400
      4 C3          1.7250   -0.3100    1.6420 ca        1 CBA     -0.029200
      5 O3          3.0670   -0.6350    1.6760 oh        1 CBA     -0.548100
      6 C4          0.9670   -0.0890    2.8250 ca        1 CBA     -0.205300
      7 C4A         1.6830   -0.0450    4.1360 c3        1 CBA      0.173100
      8 C5         -0.4020    0.1370    2.6920 ca        1 CBA     -0.126600
      9 C5A        -1.3700    0.3830    3.8290 c3        1 CBA      0.238700
     10 C6         -0.9590    0.1120    1.3700 ca        1 CBA      0.379200
     11 P          -3.9620    0.5340    3.2850 p5        1 CBA      1.315900
     12 O1P        -3.8880    0.1820    1.8170 o         1 CBA     -0.917167
     13 O2P        -3.8950   -0.6420    4.2210 o         1 CBA     -0.917167
     14 O3P        -4.8850    1.6540    3.6600 o         1 CBA     -0.917167
     15 O4P        -2.3800    1.2380    3.4840 os        1 CBA     -0.557200
     16 N           2.3670   -1.3320    4.4510 n4        1 CBA     -0.754000
     17 CA          3.4020   -1.2300    5.5700 c3        1 CBA      0.208000
     18 OA          2.7020   -0.7410    6.7000 oh        1 CBA     -0.632800
     19 CB          3.9080   -2.6670    5.8780 c3        1 CBA     -0.021900
     20 OB          4.4050   -3.2700    4.7030 oh        1 CBA     -0.635800
     21 C           4.5280   -0.1970    5.1320 c         1 CBA      0.922600
     22 O           4.8140   -0.1430    3.9030 o         1 CBA     -0.802800
     23 OT          5.0000    0.5190    6.0400 o         1 CBA     -0.802800
     24 CG          4.9380   -2.7180    7.0420 c         1 CBA      0.918600
     25 OD1         4.5910   -2.2520    8.1600 o         1 CBA     -0.826300
     26 OD2         6.0310   -3.2950    6.7900 o         1 CBA     -0.826300
     27 H2A1        1.5230    0.0490   -1.7130 hc        1 CBA      0.027367
     28 H2A2        1.8750   -1.6230   -1.1070 hc        1 CBA      0.027367
     29 H2A3        2.9720   -0.2520   -0.6540 hc        1 CBA      0.027367
     30 HO3         3.5230   -0.0190    2.2800 ho        1 CBA      0.453000
     31 H4A1        0.9870    0.1820    4.9920 hx        1 CBA      0.109200
     32 H4A2        2.4830    0.7540    4.1080 hx        1 CBA      0.109200
     33 H5A1       -1.7890   -0.6230    4.1490 h1        1 CBA      0.025200
     34 H5A2       -0.7930    0.8320    4.6930 h1        1 CBA      0.025200
     35 H6         -2.0970    0.2550    1.2970 h4        1 CBA      0.165100
     36 HN          1.6720   -2.0350    4.6970 hn        1 CBA      0.447300
     37 HOA         3.3890   -0.6480    7.3920 ho        1 CBA      0.488000
     38 HB          3.0260   -3.2960    6.1980 h1        1 CBA      0.044700
     39 HOB         5.3730   -3.1970    4.7410 ho        1 CBA      0.438000
     40 H2          2.9070   -1.6530    3.6310 hn        1 CBA      0.447300
@<TRIPOS>BOND
     1    1    2 ar  
     2    1   10 ar  
     3    2    3 1   
     4    2    4 ar  
     5    3   27 1   
     6    3   28 1   
     7    3   29 1   
     8    4    5 1   
     9    4    6 ar  
    10    5   30 1   
    11    6    7 1   
    12    6    8 ar  
    13    7   16 1   
    14    7   31 1   
    15    7   32 1   
    16    8    9 1   
    17    8   10 ar  
    18    9   15 1   
    19    9   33 1   
    20    9   34 1   
    21   10   35 1   
    22   11   12 1   
    23   11   13 1   
    24   11   14 1   
    25   11   15 1   
    26   16   17 1   
    27   16   36 1   
    28   16   40 1   
    29   17   18 1   
    30   17   19 1   
    31   17   21 1   
    32   18   37 1   
    33   19   20 1   
    34   19   24 1   
    35   19   38 1   
    36   20   39 1   
    37   21   22 1   
    38   21   23 1   
    39   24   25 1   
    40   24   26 1   
@<TRIPOS>SUBSTRUCTURE
     1 CBA         1 TEMP              0 ****  ****    0 ROOT
