@<TRIPOS>MOLECULE
CBA
   39    39     1     0     0
SMALL
bcc


@<TRIPOS>ATOM
      1 N1          2.8420    0.4360    2.9520 nb        1 CBA     -0.694000
      2 C2          3.2810    0.3250    1.6680 ca        1 CBA      0.265600
      3 C2A         4.7290    0.5090    1.3590 c3        1 CBA     -0.096400
      4 C3          2.4030    0.0210    0.5970 ca        1 CBA      0.048800
      5 O3          3.0110   -0.1160   -0.6230 oh        1 CBA     -0.548100
      6 C4          1.0150   -0.1510    0.8440 ca        1 CBA     -0.141300
      7 C4A         0.1160   -0.5210   -0.3100 c3        1 CBA      0.206100
      8 C5          0.5750   -0.0200    2.1650 ca        1 CBA     -0.150600
      9 C5A        -0.8510   -0.1860    2.6460 c3        1 CBA      0.245700
     10 C6          1.5410    0.2590    3.1780 ca        1 CBA      0.345200
     11 P          -1.4030   -0.1300    5.2540 p5        1 CBA      1.319900
     12 O1P        -1.9410   -1.4940    4.9030 o         1 CBA     -0.935500
     13 O2P        -0.0050   -0.1190    5.8270 o         1 CBA     -0.935500
     14 O3P        -2.3810    0.7950    5.9300 o         1 CBA     -0.935500
     15 O4P        -1.1530    0.6210    3.7190 os        1 CBA     -0.575200
     16 N           0.0950    0.4900   -1.3560 n3        1 CBA     -0.808200
     17 CA         -0.2820    0.0200   -2.6970 c3        1 CBA      0.253000
     18 OA         -1.6470   -0.4230   -2.6350 oh        1 CBA     -0.659800
     19 CB         -0.2200    1.2130   -3.7160 c3        1 CBA      0.038100
     20 OB          1.0940    1.7280   -3.8190 oh        1 CBA     -0.625800
     21 C           0.6300   -1.1620   -3.1800 c         1 CBA      0.909600
     22 O           0.0690   -2.2410   -3.5190 o         1 CBA     -0.853300
     23 OT          1.8870   -0.9950   -3.2150 o         1 CBA     -0.853300
     24 CG         -0.7990    0.9110   -5.1180 c         1 CBA      0.895600
     25 OD1        -0.0730    1.1130   -6.1380 o         1 CBA     -0.874300
     26 OD2        -2.0150    0.5600   -5.2230 o         1 CBA     -0.874300
     27 H2A1        5.1760   -0.4740    1.0660 hc        1 CBA      0.011033
     28 H2A2        4.8360    1.2050    0.4900 hc        1 CBA      0.011033
     29 H2A3        5.3030    0.9180    2.2250 hc        1 CBA      0.011033
     30 HO3         2.3460   -0.2380   -1.3340 ho        1 CBA      0.492000
     31 H4A1        0.5110   -1.4820   -0.7580 h1        1 CBA      0.048700
     32 H4A2       -0.9180   -0.7470    0.0800 h1        1 CBA      0.048700
     33 H5A1       -1.5440    0.0790    1.7940 h1        1 CBA      0.020700
     34 H5A2       -1.0050   -1.2740    2.9170 h1        1 CBA      0.020700
     35 H6          1.1610    0.3150    4.2440 h4        1 CBA      0.124100
     36 HN         -0.5140    1.2390   -1.0860 hn        1 CBA      0.347800
     37 HOA        -1.8330   -0.8040   -3.5060 ho        1 CBA      0.442000
     38 HB         -0.8280    2.0680   -3.3020 h1        1 CBA      0.028700
     39 HOB         1.6470    0.9860   -4.1060 ho        1 CBA      0.427000
@<TRIPOS>BOND
     1    1    2 ar  
     2    1   10 ar  
     3    2    3 1   
     4    2    4 ar  
     5    3   27 1   
     6    3   28 1   
     7    3   29 1   
     8    4    5 1   
     9    4    6 ar  
    10    5   30 1   
    11    6    7 1   
    12    6    8 ar  
    13    7   16 1   
    14    7   31 1   
    15    7   32 1   
    16    8    9 1   
    17    8   10 ar  
    18    9   15 1   
    19    9   33 1   
    20    9   34 1   
    21   10   35 1   
    22   11   12 1   
    23   11   13 1   
    24   11   14 1   
    25   11   15 1   
    26   16   17 1   
    27   16   36 1   
    28   17   18 1   
    29   17   19 1   
    30   17   21 1   
    31   18   37 1   
    32   19   20 1   
    33   19   24 1   
    34   19   38 1   
    35   20   39 1   
    36   21   22 1   
    37   21   23 1   
    38   24   25 1   
    39   24   26 1   
@<TRIPOS>SUBSTRUCTURE
     1 CBA         1 TEMP              0 ****  ****    0 ROOT
