@<TRIPOS>MOLECULE
CBA
   39    35     1     0     0
SMALL
bcc


@<TRIPOS>ATOM
      1 N1         -1.9120    0.1950   -3.3640 n1        1 CBA     -0.170000
      2 C2         -0.5560    0.2670   -3.3490 c1        1 CBA     -0.143000
      3 C2A         0.2260    0.2720   -4.6720 c2        1 CBA     -0.123000
      4 C3          0.1280    0.3240   -2.1320 c2        1 CBA      0.032000
      5 O3          1.5230    0.5240   -2.1190 oh        1 CBA     -0.305000
      6 C4         -0.5710    0.3060   -0.9530 c1        1 CBA     -0.128000
      7 C4A         0.1780    0.4550    0.3940 c2        1 CBA     -0.042000
      8 C5         -1.9350    0.2340   -0.9700 c2        1 CBA     -0.073000
      9 C5A        -2.7180    0.3500    0.3290 c3        1 CBA      0.084000
     10 C6         -2.6130    0.1770   -2.1860 c1        1 CBA     -0.112000
     11 P          -5.0930    1.0080    1.1550 p3        1 CBA      2.512000
     12 O1P        -4.4920    2.2610    1.7540 o         1 CBA     -1.255500
     13 O2P        -6.4250    1.3390    0.5310 os        1 CBA     -1.253000
     14 O3P        -5.2880   -0.0250    2.2390 o         1 CBA     -1.255500
     15 O4P        -4.1110    0.4290    0.0380 os        1 CBA     -0.738000
     16 N           1.0880   -0.6660    0.5700 n3        1 CBA     -0.281000
     17 CA          1.8640   -0.4730    1.7960 c3        1 CBA      0.076000
     18 OA          0.9890   -0.3120    2.8810 oh        1 CBA     -0.342000
     19 CB          2.7470   -1.6850    2.0340 c3        1 CBA     -0.034000
     20 OB          3.4860   -1.9630    0.8720 oh        1 CBA     -0.361000
     21 C           2.7260    0.7590    1.6570 c2        1 CBA      0.294000
     22 O           2.5200    1.7610    2.4000 o         1 CBA     -0.595000
     23 OT          3.6930    0.7620    0.8520 o         1 CBA     -0.595000
     24 CG          3.6960   -1.4000    3.1770 c2        1 CBA      0.316000
     25 OD1         4.7730   -0.7810    2.9630 o         1 CBA     -0.609000
     26 OD2         3.4050   -1.7690    4.3410 o         1 CBA     -0.609000
     27 H2A1        0.9460   -0.3790   -4.6260 ha        1 CBA      0.052000
     28 H2A2       -0.3810    0.0380   -5.4140 ha        1 CBA      0.052000
     29 H2A3        0.6010    1.1620   -4.8260 ha        1 CBA      0.052000
     30 HO3         1.7100    1.3330   -2.4420 ho        1 CBA      0.273000
     31 H4A1       -0.4740    0.4670    1.1330 h4        1 CBA      0.089000
     32 H4A2        0.6820    1.2850    0.3940 h4        1 CBA      0.089000
     33 H5A1       -2.5460   -0.4360    0.8860 h1        1 CBA      0.066000
     34 H5A2       -2.4350    1.1630    0.8120 h1        1 CBA      0.066000
     35 H6         -3.5780    0.1260   -2.1990 ha        1 CBA      0.265000
     36 HN          1.6560   -0.7140   -0.1480 hn        1 CBA      0.160000
     37 HOA         0.6570   -1.1070    3.1170 ho        1 CBA      0.235000
     38 HB          2.1950   -2.4500    2.2560 h1        1 CBA      0.088000
     39 HOB         3.6370   -2.8360    0.8190 ho        1 CBA      0.222000
@<TRIPOS>BOND
     1    1    2 1   
     2    2    4 1   
     3    3   27 1   
     4    3   28 1   
     5    3   29 1   
     6    4    5 1   
     7    4    6 1   
     8    5   30 1   
     9    6    8 1   
    10    7   16 1   
    11    7   31 1   
    12    7   32 1   
    13    8    9 1   
    14    8   10 1   
    15    9   15 1   
    16    9   33 1   
    17    9   34 1   
    18   10   35 1   
    19   11   12 1   
    20   11   14 1   
    21   11   15 1   
    22   16   17 1   
    23   16   36 1   
    24   17   18 1   
    25   17   19 1   
    26   17   21 1   
    27   18   37 1   
    28   19   20 1   
    29   19   24 1   
    30   19   38 1   
    31   20   39 1   
    32   21   22 1   
    33   21   23 1   
    34   24   25 1   
    35   24   26 1   
@<TRIPOS>SUBSTRUCTURE
     1 CBA         1 TEMP              0 ****  ****    0 ROOT
