@<TRIPOS>MOLECULE
CBB
   65    68     1     0     0
SMALL
bcc


@<TRIPOS>ATOM
      1 C1          0.7460   -0.1840   -0.1510 ca        1 CBB     -0.082000
      2 C2          2.1160   -0.0700   -0.3110 ca        1 CBB     -0.158000
      3 C3          2.9090    0.0130    0.8500 ca        1 CBB     -0.012200
      4 C4          2.2990   -0.0170    2.1600 ca        1 CBB     -0.125800
      5 C5          0.9090   -0.1360    2.2770 ca        1 CBB     -0.058000
      6 C6          0.1470   -0.2200    1.1250 ca        1 CBB     -0.153000
      7 N7          4.2920    0.1650    1.0010 na        1 CBB     -0.055400
      8 C8          4.5610    0.2100    2.3910 cc        1 CBB     -0.149300
      9 C9          3.3660    0.1120    3.1140 cd        1 CBB     -0.060200
     10 C10         5.2440    0.1620   -0.0690 c3        1 CBB      0.075500
     11 C11         5.5880   -1.2010   -0.6170 ce        1 CBB     -0.051200
     12 C14         6.4470   -2.0540    0.1870 ce        1 CBB     -0.118000
     13 C15         6.6840   -3.3220   -0.1810 c2        1 CBB     -0.156200
     14 C16         6.0710   -3.9300   -1.3880 c3        1 CBB     -0.058200
     15 C17         5.6040   -2.9000   -2.4190 c3        1 CBB     -0.054800
     16 C18         5.1590   -1.6050   -1.8280 c2        1 CBB     -0.177200
     17 C19         4.4910   -3.5340   -3.2650 c2        1 CBB      0.567200
     18 N20         5.0780   -4.6060   -4.1950 nz        1 CBB     -0.896600
     19 N21         3.2660   -3.2400   -3.1980 n2        1 CBB     -0.675100
     20 C31         5.8930    0.3800    2.9550 c         1 CBB      0.678300
     21 O32         5.8670    0.5810    4.3140 os        1 CBB     -0.428900
     22 C33         7.1150    0.7140    5.0030 c3        1 CBB      0.139400
     23 C34         7.4730    2.1930    5.1540 c3        1 CBB     -0.089700
     24 C37         8.5290    2.6000    4.1370 c3        1 CBB     -0.088400
     25 C38         8.9120    4.0550    4.2980 c3        1 CBB     -0.079400
     26 C39         9.4020    4.3350    5.7060 c3        1 CBB     -0.082400
     27 C40         8.3270    3.9470    6.7160 c3        1 CBB     -0.146000
     28 C41         7.9600    2.4730    6.5700 c3        1 CBB     -0.076400
     29 C42         8.8120    4.2280    8.1290 c2        1 CBB      0.524200
     30 N43         7.6810    4.3830    9.1140 nz        1 CBB     -0.827600
     31 N44         9.9830    4.3490    8.6200 n2        1 CBB     -0.712100
     32 O49         6.9920    0.3610    2.3880 o         1 CBB     -0.570000
     33 HC1         0.1000   -0.2440   -1.0410 ha        1 CBB      0.140000
     34 HC2         2.5730   -0.0410   -1.3090 ha        1 CBB      0.131000
     35 HC5         0.4400   -0.1590    3.2720 ha        1 CBB      0.148000
     36 HC6        -0.9480   -0.3100    1.1960 ha        1 CBB      0.149000
     37 HC9         3.2750    0.1360    4.1980 ha        1 CBB      0.173000
     38 H101        4.8200    0.7980   -0.9030 h1        1 CBB      0.089700
     39 H102        6.2020    0.6400    0.2980 h1        1 CBB      0.089700
     40 H14         6.8900   -1.6100    1.0960 ha        1 CBB      0.173000
     41 H15         7.3170   -3.9950    0.4180 ha        1 CBB      0.156000
     42 H16         6.8200   -4.6170   -1.8690 hc        1 CBB      0.057700
     43 H161        5.2010   -4.5590   -1.0450 hc        1 CBB      0.057700
     44 H17         6.4660   -2.6510   -3.1100 hc        1 CBB      0.082700
     45 H118        4.5130   -0.9710   -2.4540 ha        1 CBB      0.153000
     46 H201        5.6940   -4.1540   -4.8780 hn        1 CBB      0.459800
     47 H202        5.6330   -5.2590   -3.6330 hn        1 CBB      0.459800
     48 H21         2.5410   -3.6630   -3.7350 hn        1 CBB      0.471400
     49 H331        6.9020    0.2400    6.0000 h1        1 CBB      0.075700
     50 H332        7.9260    0.1480    4.4740 h1        1 CBB      0.075700
     51 H334        6.5410    2.8010    4.9690 hc        1 CBB      0.072700
     52 H37         9.4390    1.9540    4.2610 hc        1 CBB      0.070200
     53 H371        8.1300    2.4160    3.1030 hc        1 CBB      0.070200
     54 H38         8.0330    4.7110    4.0640 hc        1 CBB      0.065700
     55 H381        9.7260    4.3120    3.5710 hc        1 CBB      0.065700
     56 H39        10.3360    3.7410    5.8890 hc        1 CBB      0.060200
     57 H391        9.6510    5.4230    5.8120 hc        1 CBB      0.060200
     58 H40         7.4140    4.5740    6.4990 hc        1 CBB      0.082700
     59 H411        8.8560    1.8350    6.7910 hc        1 CBB      0.049700
     60 H412        7.1530    2.2000    7.2990 hc        1 CBB      0.049700
     61 H431        7.0730    3.5620    9.0400 hn        1 CBB      0.471467
     62 H432        7.1500    5.2250    8.8700 hn        1 CBB      0.471467
     63 H44        10.7770    4.2640    8.0180 hn        1 CBB      0.492400
     64 H203        4.3580   -5.1320   -4.6980 hn        1 CBB      0.459800
     65 H433        8.0230    4.4700   10.0820 hn        1 CBB      0.471467
@<TRIPOS>BOND
     1    1    2 ar  
     2    1    6 ar  
     3    1   33 1   
     4    2    3 ar  
     5    2   34 1   
     6    3    4 ar  
     7    3    7 1   
     8    4    5 ar  
     9    4    9 1   
    10    5    6 ar  
    11    5   35 1   
    12    6   36 1   
    13    7    8 1   
    14    7   10 1   
    15    8    9 2   
    16    8   20 1   
    17    9   37 1   
    18   10   11 1   
    19   10   38 1   
    20   10   39 1   
    21   11   12 1   
    22   11   16 2   
    23   12   13 2   
    24   12   40 1   
    25   13   14 1   
    26   13   41 1   
    27   14   15 1   
    28   14   42 1   
    29   14   43 1   
    30   15   16 1   
    31   15   17 1   
    32   15   44 1   
    33   16   45 1   
    34   17   18 1   
    35   17   19 2   
    36   18   46 1   
    37   18   47 1   
    38   18   64 1   
    39   19   48 1   
    40   20   21 1   
    41   20   32 2   
    42   21   22 1   
    43   22   23 1   
    44   22   49 1   
    45   22   50 1   
    46   23   24 1   
    47   23   28 1   
    48   23   51 1   
    49   24   25 1   
    50   24   52 1   
    51   24   53 1   
    52   25   26 1   
    53   25   54 1   
    54   25   55 1   
    55   26   27 1   
    56   26   56 1   
    57   26   57 1   
    58   27   28 1   
    59   27   29 1   
    60   27   58 1   
    61   28   59 1   
    62   28   60 1   
    63   29   30 1   
    64   29   31 2   
    65   30   61 1   
    66   30   62 1   
    67   30   65 1   
    68   31   63 1   
@<TRIPOS>SUBSTRUCTURE
     1 CBB         1 TEMP              0 ****  ****    0 ROOT
