@<TRIPOS>MOLECULE
CBB
   65    68     1     0     0
SMALL
bcc


@<TRIPOS>ATOM
      1 C1          0.7490   -0.2330   -0.1500 ca        1 CBB     -0.082000
      2 C2          2.1160   -0.0970   -0.3110 ca        1 CBB     -0.158000
      3 C3          2.9090   -0.0130    0.8500 ca        1 CBB     -0.012200
      4 C4          2.3010   -0.0640    2.1610 ca        1 CBB     -0.125800
      5 C5          0.9130   -0.2050    2.2780 ca        1 CBB     -0.058000
      6 C6          0.1510   -0.2890    1.1260 ca        1 CBB     -0.153000
      7 N7          4.2900    0.1580    1.0020 na        1 CBB     -0.055400
      8 C8          4.5600    0.1940    2.3910 cc        1 CBB     -0.149300
      9 C9          3.3680    0.0720    3.1140 cd        1 CBB     -0.060200
     10 C10         5.2400    0.1790   -0.0700 c3        1 CBB      0.075500
     11 C11         5.6040   -1.1740   -0.6310 ce        1 CBB     -0.051200
     12 C14         6.4780   -2.0210    0.1640 ce        1 CBB     -0.118000
     13 C15         6.7330   -3.2810   -0.2160 c2        1 CBB     -0.156200
     14 C16         6.1270   -3.8880   -1.4280 c3        1 CBB     -0.058200
     15 C17         5.6420   -2.8560   -2.4480 c3        1 CBB     -0.054800
     16 C18         5.1790   -1.5730   -1.8440 c2        1 CBB     -0.177200
     17 C19         4.5380   -3.4990   -3.2990 c2        1 CBB      0.567200
     18 N20         5.1390   -4.5530   -4.2390 n4        1 CBB     -0.896600
     19 N21         3.3090   -3.2240   -3.2260 n2        1 CBB     -0.675100
     20 C31         5.8900    0.3780    2.9560 c         1 CBB      0.678300
     21 O32         5.8630    0.5670    4.3160 os        1 CBB     -0.428900
     22 C33         7.1100    0.7110    5.0050 c3        1 CBB      0.139400
     23 C34         7.4500    2.1940    5.1640 c3        1 CBB     -0.089700
     24 C37         8.5090    2.6160    4.1570 c3        1 CBB     -0.088400
     25 C38         8.8740    4.0750    4.3270 c3        1 CBB     -0.079400
     26 C39         9.3510    4.3540    5.7400 c3        1 CBB     -0.082400
     27 C40         8.2730    3.9500    6.7410 c3        1 CBB     -0.147000
     28 C41         7.9240    2.4740    6.5850 c3        1 CBB     -0.076400
     29 C42         8.7450    4.2310    8.1580 c2        1 CBB      0.524200
     30 N43         7.6050    4.3700    9.1350 n4        1 CBB     -0.827600
     31 N44         9.9110    4.3630    8.6580 n2        1 CBB     -0.712100
     32 O49         6.9880    0.3800    2.3880 o         1 CBB     -0.570000
     33 HC1         0.1020   -0.2940   -1.0400 ha        1 CBB      0.140000
     34 HC2         2.5720   -0.0520   -1.3080 ha        1 CBB      0.131000
     35 HC5         0.4460   -0.2430    3.2730 ha        1 CBB      0.148000
     36 HC6        -0.9420   -0.3970    1.1970 ha        1 CBB      0.149000
     37 HC9         3.2770    0.0850    4.1990 ha        1 CBB      0.173000
     38 H101        6.1920    0.6680    0.3010 h1        1 CBB      0.089700
     39 H102        4.8070    0.8170   -0.8970 h1        1 CBB      0.089700
     40 H14         6.9150   -1.5780    1.0770 ha        1 CBB      0.173000
     41 H15         7.3770   -3.9500    0.3760 ha        1 CBB      0.156000
     42 H16         5.2680   -4.5330   -1.0880 hc        1 CBB      0.057700
     43 H161        6.8850   -4.5590   -1.9160 hc        1 CBB      0.057700
     44 H17         6.5000   -2.5870   -3.1390 hc        1 CBB      0.082700
     45 H118        4.5220   -0.9430   -2.4640 ha        1 CBB      0.153000
     46 H201        5.7470   -4.0850   -4.9180 hn        1 CBB      0.459800
     47 H202        5.7060   -5.2030   -3.6840 hn        1 CBB      0.459800
     48 H21         2.5900   -3.6530   -3.7660 hn        1 CBB      0.471400
     49 H331        7.9270    0.1590    4.4720 h1        1 CBB      0.075700
     50 H332        6.9030    0.2290    5.9990 h1        1 CBB      0.075700
     51 H334        6.5130    2.7920    4.9760 hc        1 CBB      0.072700
     52 H37         9.4250    1.9810    4.2850 hc        1 CBB      0.070200
     53 H371        8.1200    2.4330    3.1200 hc        1 CBB      0.070200
     54 H38         9.6910    4.3440    3.6070 hc        1 CBB      0.065700
     55 H381        7.9900    4.7220    4.0900 hc        1 CBB      0.065700
     56 H39        10.2910    3.7700    5.9270 hc        1 CBB      0.060200
     57 H391        9.5880    5.4440    5.8520 hc        1 CBB      0.060200
     58 H40         7.3550    4.5690    6.5190 hc        1 CBB      0.082700
     59 H411        8.8250    1.8440    6.8100 hc        1 CBB      0.049700
     60 H412        7.1150    2.1890    7.3080 hc        1 CBB      0.049700
     61 H431        7.0660    5.2070    8.8910 hn        1 CBB      0.471467
     62 H432        7.0070    3.5420    9.0530 hn        1 CBB      0.471467
     63 H44        10.7100    4.2890    8.0610 hn        1 CBB      0.492400
     64 H203        4.4270   -5.0850   -4.7460 hn        1 CBB      0.459800
     65 H433        7.9390    4.4560   10.1060 hn        1 CBB      0.471467
@<TRIPOS>BOND
     1    1    2 ar  
     2    1    6 ar  
     3    1   33 1   
     4    2    3 ar  
     5    2   34 1   
     6    3    4 ar  
     7    3    7 1   
     8    4    5 ar  
     9    4    9 1   
    10    5    6 ar  
    11    5   35 1   
    12    6   36 1   
    13    7    8 1   
    14    7   10 1   
    15    8    9 2   
    16    8   20 1   
    17    9   37 1   
    18   10   11 1   
    19   10   38 1   
    20   10   39 1   
    21   11   12 1   
    22   11   16 2   
    23   12   13 2   
    24   12   40 1   
    25   13   14 1   
    26   13   41 1   
    27   14   15 1   
    28   14   42 1   
    29   14   43 1   
    30   15   16 1   
    31   15   17 1   
    32   15   44 1   
    33   16   45 1   
    34   17   18 1   
    35   17   19 2   
    36   18   46 1   
    37   18   47 1   
    38   18   64 1   
    39   19   48 1   
    40   20   21 1   
    41   20   32 2   
    42   21   22 1   
    43   22   23 1   
    44   22   49 1   
    45   22   50 1   
    46   23   24 1   
    47   23   28 1   
    48   23   51 1   
    49   24   25 1   
    50   24   52 1   
    51   24   53 1   
    52   25   26 1   
    53   25   54 1   
    54   25   55 1   
    55   26   27 1   
    56   26   56 1   
    57   26   57 1   
    58   27   28 1   
    59   27   29 1   
    60   27   58 1   
    61   28   59 1   
    62   28   60 1   
    63   29   30 1   
    64   29   31 2   
    65   30   61 1   
    66   30   62 1   
    67   30   65 1   
    68   31   63 1   
@<TRIPOS>SUBSTRUCTURE
     1 CBB         1 TEMP              0 ****  ****    0 ROOT
