@<TRIPOS>MOLECULE
CBB
   63    65     1     0     0
SMALL
bcc


@<TRIPOS>ATOM
      1 C1          4.1370    9.3850   26.3470 ca        1 CBB     -0.094000
      2 C2          5.1480    8.4420   26.3550 ca        1 CBB     -0.153000
      3 C3          5.6400    7.9920   25.1140 ca        1 CBB     -0.019200
      4 C4          5.0880    8.5020   23.8780 ca        1 CBB     -0.123800
      5 C5          4.0630    9.4540   23.9160 ca        1 CBB     -0.067000
      6 C6          3.5990    9.8890   25.1440 ca        1 CBB     -0.162000
      7 N7          6.6130    7.0340   24.8090 na        1 CBB     -0.044400
      8 C8          6.7130    6.9690   23.4000 cc        1 CBB     -0.129300
      9 C9          5.7860    7.8360   22.8110 cd        1 CBB     -0.084200
     10 C10         7.5100    6.4290   25.7550 c3        1 CBB      0.079600
     11 C11         8.7540    7.2170   26.0610 ca        1 CBB     -0.120300
     12 C14         9.9770    6.8270   25.5070 ca        1 CBB     -0.095000
     13 C15        11.1410    7.5240   25.8270 ca        1 CBB     -0.135000
     14 C16        11.0920    8.6140   26.6960 ca        1 CBB     -0.107000
     15 C17         9.8680    9.0140   27.2400 ca        1 CBB     -0.190900
     16 C18         8.7000    8.3160   26.9230 ca        1 CBB     -0.088000
     17 C19         9.7860   10.2030   28.1490 ce        1 CBB      0.638800
     18 N20        10.5760   10.1000   29.3110 nh        1 CBB     -0.895800
     19 N21         9.0090   11.2250   27.9410 n2        1 CBB     -0.836100
     20 C31         7.6230    6.0710   22.6940 c         1 CBB      0.675300
     21 O32         7.5320    6.2000   21.3340 os        1 CBB     -0.429900
     22 C33         8.3660    5.3660   20.5150 c3        1 CBB      0.138400
     23 C34         7.5900    4.1330   20.0620 c3        1 CBB     -0.089700
     24 C37         7.8400    2.9580   20.9960 c3        1 CBB     -0.078400
     25 C38         7.1000    1.7230   20.5260 c3        1 CBB     -0.080400
     26 C39         7.4900    1.3620   19.1060 c3        1 CBB     -0.066400
     27 C40         7.2200    2.5350   18.1740 c3        1 CBB     -0.097000
     28 C41         7.9820    3.7700   18.6360 c3        1 CBB     -0.072400
     29 C42         7.5990    2.2350   16.7160 c2        1 CBB      0.605200
     30 N43         6.8070    2.9230   15.7700 nh        1 CBB     -0.963800
     31 N44         8.5390    1.3780   16.4600 n2        1 CBB     -0.837100
     32 O49         8.4260    5.2570   23.1630 o         1 CBB     -0.565000
     33 HC1         3.7370    9.7570   27.3030 ha        1 CBB      0.135000
     34 HC2         5.5530    8.0520   27.2990 ha        1 CBB      0.137000
     35 HC5         3.6400    9.8420   22.9780 ha        1 CBB      0.137000
     36 HC6         2.7970   10.6390   25.1950 ha        1 CBB      0.134000
     37 HC9         5.6280    7.9670   21.7430 ha        1 CBB      0.171000
     38 H101        7.8050    5.4160   25.3470 h1        1 CBB      0.083200
     39 H102        6.9340    6.2760   26.7150 h1        1 CBB      0.083200
     40 H14        10.0130    5.9710   24.8110 ha        1 CBB      0.160000
     41 H15        12.1020    7.2140   25.3900 ha        1 CBB      0.138000
     42 H16        12.0160    9.1590   26.9430 ha        1 CBB      0.133000
     43 H161       13.6460    9.9020   28.5660 ha        1 CBB      0.001500
     44 H17        13.6690    9.2330   28.6630 ha        1 CBB      0.001500
     45 H118        7.7350    8.6310   27.3520 ha        1 CBB      0.144000
     46 H201       11.4360    9.6160   29.1680 hn        1 CBB      0.398800
     47 H202       10.6730   10.9390   29.8420 hn        1 CBB      0.398800
     48 H21         8.4250   11.1370   27.1380 hn        1 CBB      0.397400
     49 H331        9.3060    5.0870   21.0560 h1        1 CBB      0.068700
     50 H332        8.6050    6.0370   19.6450 h1        1 CBB      0.068700
     51 H334        6.4910    4.3800   20.0800 hc        1 CBB      0.064700
     52 H37         7.5150    3.2370   22.0330 hc        1 CBB      0.051700
     53 H371        8.9400    2.7410   21.0380 hc        1 CBB      0.051700
     54 H38         5.9940    1.9000   20.5840 hc        1 CBB      0.042200
     55 H381        7.3390    0.8640   21.2060 hc        1 CBB      0.042200
     56 H39         6.9060    0.4700   18.7620 hc        1 CBB      0.059700
     57 H391        8.5770    1.0880   19.0780 hc        1 CBB      0.059700
     58 H40         6.1140    2.7530   18.2200 hc        1 CBB      0.059700
     59 H411        9.0840    3.5720   18.5860 hc        1 CBB      0.045700
     60 H412        7.7560    4.6320   17.9550 hc        1 CBB      0.045700
     61 H431        6.3520    3.7400   16.1020 hn        1 CBB      0.395300
     62 H432        7.1730    3.0070   14.8500 hn        1 CBB      0.395300
     63 H44         8.7540    1.2220   15.4990 hn        1 CBB      0.380400
@<TRIPOS>BOND
     1    1    2 ar  
     2    1    6 ar  
     3    1   33 1   
     4    2    3 ar  
     5    2   34 1   
     6    3    4 ar  
     7    3    7 1   
     8    4    5 ar  
     9    4    9 1   
    10    5    6 ar  
    11    5   35 1   
    12    6   36 1   
    13    7    8 1   
    14    7   10 1   
    15    8    9 2   
    16    8   20 1   
    17    9   37 1   
    18   10   11 1   
    19   10   38 1   
    20   10   39 1   
    21   11   12 ar  
    22   11   16 ar  
    23   12   13 ar  
    24   12   40 1   
    25   13   14 ar  
    26   13   41 1   
    27   14   15 ar  
    28   14   42 1   
    29   15   16 ar  
    30   15   17 1   
    31   16   45 1   
    32   17   18 1   
    33   17   19 2   
    34   18   46 1   
    35   18   47 1   
    36   19   48 1   
    37   20   21 1   
    38   20   32 2   
    39   21   22 1   
    40   22   23 1   
    41   22   49 1   
    42   22   50 1   
    43   23   24 1   
    44   23   28 1   
    45   23   51 1   
    46   24   25 1   
    47   24   52 1   
    48   24   53 1   
    49   25   26 1   
    50   25   54 1   
    51   25   55 1   
    52   26   27 1   
    53   26   56 1   
    54   26   57 1   
    55   27   28 1   
    56   27   29 1   
    57   27   58 1   
    58   28   59 1   
    59   28   60 1   
    60   29   30 1   
    61   29   31 2   
    62   30   61 1   
    63   30   62 1   
    64   31   63 1   
    65   43   44 1   
@<TRIPOS>SUBSTRUCTURE
     1 CBB         1 TEMP              0 ****  ****    0 ROOT
