@<TRIPOS>MOLECULE
CBB
   63    55     1     0     0
SMALL
bcc


@<TRIPOS>ATOM
      1 C1         -4.3610    2.0600   -2.1570 c1        1 CBB     -0.130500
      2 C2         -2.9760    2.0710   -2.1860 c1        1 CBB     -0.105000
      3 C3         -2.2470    2.0890   -0.9840 c1        1 CBB     -0.042500
      4 C4         -2.9080    2.0960    0.2210 c1        1 CBB     -0.042500
      5 C5         -4.3130    2.0860    0.2500 c1        1 CBB     -0.105000
      6 C6         -5.0310    2.0680   -0.9380 c1        1 CBB     -0.130500
      7 N7         -0.8830    2.1020   -0.7240 n1        1 CBB     -0.131000
      8 C8         -0.7090    2.1170    0.6360 c1        1 CBB     -0.086000
      9 C9         -1.9600    2.1140    1.2270 c1        1 CBB     -0.100000
     10 C10        -0.0160    2.9150   -1.5570 c2        1 CBB      0.016000
     11 C11         0.7180    2.0170   -2.5640 c2        1 CBB     -0.121000
     12 C14         0.6310    0.4790   -2.4400 c2        1 CBB     -0.119000
     13 C15         0.9200   -0.3730   -3.6900 c1        1 CBB     -0.166000
     14 C16         1.1000    0.3280   -4.9980 c2        1 CBB     -0.129000
     15 C17         1.8690    1.6660   -4.8710 c3        1 CBB     -0.039000
     16 C18         1.2660    2.6080   -3.8570 c2        1 CBB     -0.100000
     17 C19         2.0350    2.3760   -6.2950 c2        1 CBB      0.091000
     18 N20         3.3310    2.5200   -6.8680 n3        1 CBB     -0.400000
     19 N21         0.9720    2.6950   -6.9950 n1        1 CBB     -0.303000
     20 C31         0.2590    1.9240    1.8040 c1        1 CBB      0.373000
     21 O32        -0.0180    0.9560    2.8010 os        1 CBB     -0.271000
     22 C33         1.0670    0.0930    3.0800 c3        1 CBB     -0.007000
     23 C34         0.5660   -1.1110    3.9110 c3        1 CBB     -0.108000
     24 C37         1.5630   -1.3970    4.9940 c3        1 CBB     -0.155000
     25 C38         1.2700   -2.6440    5.7450 c3        1 CBB     -0.156000
     26 C39         1.0650   -3.8460    4.8400 c3        1 CBB     -0.152000
     27 C40         0.0000   -3.5990    3.7270 c3        1 CBB     -0.115000
     28 C41         0.3500   -2.2920    2.9790 c3        1 CBB     -0.153000
     29 C42        -0.1460   -4.7960    2.7770 c2        1 CBB      0.075000
     30 N43        -1.4190   -5.3840    2.5690 n3        1 CBB     -0.330000
     31 N44         0.9020   -5.2730    2.1610 n1        1 CBB     -0.309000
     32 O49         1.2410    2.6360    1.9050 o         1 CBB     -0.373000
     33 HC1        -4.8650    2.0480   -2.9890 ha        1 CBB      0.132000
     34 HC2        -2.5040    2.0650   -3.0440 ha        1 CBB      0.140000
     35 HC5        -4.7900    2.0910    1.1160 ha        1 CBB      0.140000
     36 HC6        -6.0050    2.0610   -0.9170 ha        1 CBB      0.132000
     37 HC9        -2.1410    2.1230    2.1830 DU        1 CBB      0.150333
     38 H101       -0.5520    3.5740   -2.0390 ha        1 CBB      0.120000
     39 H102        0.6360    3.3750   -0.9960 ha        1 CBB      0.120000
     40 H14         0.6200    0.0620   -1.5580 ha        1 CBB      0.150000
     41 H15         0.7700   -1.3330   -3.6700 ha        1 CBB      0.130000
     42 H16         0.2540    0.4260   -5.4880 ha        1 CBB      0.091500
     43 H161        1.5910   -0.2590   -5.6080 ha        1 CBB      0.091500
     44 H17         2.7970    1.4920   -4.6460 hc        1 CBB      0.114000
     45 H118        1.4310    3.5660   -3.9230 ha        1 CBB      0.146000
     46 H201        4.0380    2.0420   -6.5300 hn        1 CBB      0.191500
     47 H202        3.4510    3.0570   -7.6000 hn        1 CBB      0.191500
     48 H21         1.0650    3.1010   -7.8100 DU        1 CBB      0.150333
     49 H331        1.7480    0.5780    3.5860 h1        1 CBB      0.095500
     50 H332        1.4520   -0.2290    2.2380 h1        1 CBB      0.095500
     51 H334       -0.2780   -0.8790    4.3190 hc        1 CBB      0.107000
     52 H37         1.5670   -0.6580    5.6120 hc        1 CBB      0.084500
     53 H371        2.4460   -1.4750    4.5920 hc        1 CBB      0.084500
     54 H38         0.4580   -2.5080    6.2770 hc        1 CBB      0.084500
     55 H381        2.0140   -2.8290    6.3480 hc        1 CBB      0.084500
     56 H39         1.9190   -4.0690    4.4150 hc        1 CBB      0.089500
     57 H391        0.7800   -4.5990    5.3820 hc        1 CBB      0.089500
     58 H40        -0.8920   -3.5510    4.1070 hc        1 CBB      0.104000
     59 H411        1.1620   -2.4350    2.4620 hc        1 CBB      0.091500
     60 H412       -0.3780   -2.0780    2.3670 hc        1 CBB      0.091500
     61 H431       -1.5020   -6.1140    2.0200 hn        1 CBB      0.189000
     62 H432       -2.1520   -5.0480    2.9940 hn        1 CBB      0.189000
     63 H44         1.7230   -4.8930    2.2960 DU        1 CBB      0.150333
@<TRIPOS>BOND
     1    1    6 1   
     2    1   33 1   
     3    2    3 1   
     4    2   34 1   
     5    4    5 1   
     6    5   35 1   
     7    6   36 1   
     8    7    8 1   
     9    8    9 1   
    10   10   11 1   
    11   10   38 1   
    12   10   39 1   
    13   11   12 1   
    14   11   16 1   
    15   12   13 1   
    16   12   40 1   
    17   13   41 1   
    18   14   15 1   
    19   14   42 1   
    20   14   43 1   
    21   15   16 1   
    22   15   17 1   
    23   15   44 1   
    24   16   45 1   
    25   17   18 1   
    26   17   19 1   
    27   18   46 1   
    28   18   47 1   
    29   20   21 1   
    30   20   32 1   
    31   21   22 1   
    32   22   23 1   
    33   22   49 1   
    34   22   50 1   
    35   23   24 1   
    36   23   28 1   
    37   23   51 1   
    38   24   25 1   
    39   24   52 1   
    40   24   53 1   
    41   25   26 1   
    42   25   54 1   
    43   25   55 1   
    44   26   27 1   
    45   26   56 1   
    46   26   57 1   
    47   27   28 1   
    48   27   29 1   
    49   27   58 1   
    50   28   59 1   
    51   28   60 1   
    52   29   30 1   
    53   29   31 1   
    54   30   61 1   
    55   30   62 1   
@<TRIPOS>SUBSTRUCTURE
     1 CBB         1 TEMP              0 ****  ****    0 ROOT
