@<TRIPOS>MOLECULE
CBB
   65    68     1     0     0
SMALL
bcc


@<TRIPOS>ATOM
      1 C1          0.7280   -0.3300   -0.0700 ca        1 CBB     -0.082000
      2 C2          2.0910   -0.1720   -0.2520 ca        1 CBB     -0.158000
      3 C3          2.9000   -0.0720    0.8960 ca        1 CBB     -0.012200
      4 C4          2.3130   -0.1290    2.2160 ca        1 CBB     -0.125800
      5 C5          0.9300   -0.2930    2.3550 ca        1 CBB     -0.058000
      6 C6          0.1520   -0.3920    1.2160 ca        1 CBB     -0.153000
      7 N7          4.2810    0.1220    1.0250 na        1 CBB     -0.055400
      8 C8          4.5720    0.1660    2.4100 cc        1 CBB     -0.149300
      9 C9          3.3930    0.0270    3.1520 cd        1 CBB     -0.060200
     10 C10         5.2140    0.1550   -0.0610 c3        1 CBB      0.075500
     11 C11         5.5900   -1.1930   -0.6240 ce        1 CBB     -0.051200
     12 C14         6.4900   -2.0230    0.1590 ce        1 CBB     -0.118000
     13 C15         6.7600   -3.2810   -0.2220 c2        1 CBB     -0.156200
     14 C16         6.1450   -3.9010   -1.4220 c3        1 CBB     -0.058200
     15 C17         5.6280   -2.8790   -2.4380 c3        1 CBB     -0.054800
     16 C18         5.1540   -1.6020   -1.8300 c2        1 CBB     -0.177200
     17 C19         4.5210   -3.5420   -3.2690 c2        1 CBB      0.567200
     18 N20         5.1240   -4.5900   -4.2170 n4        1 CBB     -0.896600
     19 N21         3.2890   -3.2870   -3.1790 n2        1 CBB     -0.675100
     20 C31         5.9070    0.3740    2.9530 c         1 CBB      0.678300
     21 O32         5.8980    0.5650    4.3140 os        1 CBB     -0.428900
     22 C33         7.1530    0.7320    4.9820 c3        1 CBB      0.139400
     23 C34         7.4680    2.2210    5.1360 c3        1 CBB     -0.089700
     24 C37         8.4980    2.6640    4.1070 c3        1 CBB     -0.088400
     25 C38         8.8390    4.1290    4.2710 c3        1 CBB     -0.079400
     26 C39         9.3410    4.4170    5.6730 c3        1 CBB     -0.082400
     27 C40         8.2910    3.9920    6.6960 c3        1 CBB     -0.146000
     28 C41         7.9670    2.5090    6.5470 c3        1 CBB     -0.076400
     29 C42         8.7880    4.2810    8.1030 c2        1 CBB      0.524200
     30 N43         7.6670    4.3970    9.1050 n4        1 CBB     -0.827600
     31 N44         9.9610    4.4350    8.5780 n2        1 CBB     -0.712100
     32 O49         6.9960    0.3920    2.3680 o         1 CBB     -0.570000
     33 HC1         0.0690   -0.4040   -0.9490 ha        1 CBB      0.140000
     34 HC2         2.5300   -0.1220   -1.2570 ha        1 CBB      0.131000
     35 HC5         0.4800   -0.3360    3.3580 ha        1 CBB      0.148000
     36 HC6        -0.9380   -0.5180    1.3040 ha        1 CBB      0.149000
     37 HC9         3.3190    0.0410    4.2380 ha        1 CBB      0.173000
     38 H101        4.7560    0.7830   -0.8830 h1        1 CBB      0.089700
     39 H102        6.1620    0.6610    0.2930 h1        1 CBB      0.089700
     40 H14         6.9340   -1.5720    1.0640 ha        1 CBB      0.173000
     41 H15         7.4230   -3.9370    0.3620 ha        1 CBB      0.156000
     42 H16         6.9060   -4.5600   -1.9210 hc        1 CBB      0.057700
     43 H161        5.3010   -4.5580   -1.0680 hc        1 CBB      0.057700
     44 H17         6.4700   -2.5990   -3.1420 hc        1 CBB      0.082700
     45 H118        4.4770   -0.9850   -2.4410 ha        1 CBB      0.153000
     46 H201        4.4130   -5.1340   -4.7110 hn        1 CBB      0.459800
     47 H202        5.7150   -4.1140   -4.9060 hn        1 CBB      0.459800
     48 H21         2.5680   -3.7290   -3.7070 hn        1 CBB      0.471400
     49 H331        7.9720    0.1940    4.4370 h1        1 CBB      0.075700
     50 H332        6.9710    0.2470    5.9800 h1        1 CBB      0.075700
     51 H334        6.5170    2.8010    4.9670 hc        1 CBB      0.072700
     52 H37         8.0900    2.4740    3.0780 hc        1 CBB      0.070200
     53 H371        9.4280    2.0460    4.2140 hc        1 CBB      0.070200
     54 H38         7.9380    4.7600    4.0520 hc        1 CBB      0.065700
     55 H381        9.6350    4.4140    3.5330 hc        1 CBB      0.065700
     56 H39        10.2950    3.8500    5.8390 hc        1 CBB      0.060200
     57 H391        9.5590    5.5110    5.7810 hc        1 CBB      0.060200
     58 H40         7.3570    4.5930    6.4950 hc        1 CBB      0.082700
     59 H411        8.8840    1.8960    6.7520 hc        1 CBB      0.049700
     60 H412        7.1790    2.2080    7.2860 hc        1 CBB      0.049700
     61 H431        8.0190    4.4890   10.0680 hn        1 CBB      0.471467
     62 H432        7.1070    5.2240    8.8720 hn        1 CBB      0.471467
     63 H44        10.7490    4.3760    7.9650 hn        1 CBB      0.492400
     64 H203        5.7100   -5.2290   -3.6680 hn        1 CBB      0.459800
     65 H433        7.0830    3.5580    9.0350 hn        1 CBB      0.471467
@<TRIPOS>BOND
     1    1    2 ar  
     2    1    6 ar  
     3    1   33 1   
     4    2    3 ar  
     5    2   34 1   
     6    3    4 ar  
     7    3    7 1   
     8    4    5 ar  
     9    4    9 1   
    10    5    6 ar  
    11    5   35 1   
    12    6   36 1   
    13    7    8 1   
    14    7   10 1   
    15    8    9 2   
    16    8   20 1   
    17    9   37 1   
    18   10   11 1   
    19   10   38 1   
    20   10   39 1   
    21   11   12 1   
    22   11   16 2   
    23   12   13 2   
    24   12   40 1   
    25   13   14 1   
    26   13   41 1   
    27   14   15 1   
    28   14   42 1   
    29   14   43 1   
    30   15   16 1   
    31   15   17 1   
    32   15   44 1   
    33   16   45 1   
    34   17   18 1   
    35   17   19 2   
    36   18   46 1   
    37   18   47 1   
    38   18   64 1   
    39   19   48 1   
    40   20   21 1   
    41   20   32 2   
    42   21   22 1   
    43   22   23 1   
    44   22   49 1   
    45   22   50 1   
    46   23   24 1   
    47   23   28 1   
    48   23   51 1   
    49   24   25 1   
    50   24   52 1   
    51   24   53 1   
    52   25   26 1   
    53   25   54 1   
    54   25   55 1   
    55   26   27 1   
    56   26   56 1   
    57   26   57 1   
    58   27   28 1   
    59   27   29 1   
    60   27   58 1   
    61   28   59 1   
    62   28   60 1   
    63   29   30 1   
    64   29   31 2   
    65   30   61 1   
    66   30   62 1   
    67   30   65 1   
    68   31   63 1   
@<TRIPOS>SUBSTRUCTURE
     1 CBB         1 TEMP              0 ****  ****    0 ROOT
