@<TRIPOS>MOLECULE
CBC
   37    32     1     0     0
SMALL
bcc


@<TRIPOS>ATOM
      1 F49         0.3700   -0.9180   -4.8540 f         1 CBC     -0.156667
      2 C46         1.6100   -1.3090   -5.1760 c3        1 CBC      0.459000
      3 F50         1.5540   -2.1690   -6.2100 f         1 CBC     -0.156667
      4 F51         2.3440   -0.2340   -5.5240 f         1 CBC     -0.156667
      5 C41         2.2530   -1.9990   -3.9750 c2        1 CBC     -0.030000
      6 C42         3.2260   -2.9760   -4.1720 c1        1 CBC     -0.116000
      7 C43         3.8390   -3.5770   -3.0800 c1        1 CBC     -0.100500
      8 C44         3.4810   -3.2030   -1.7880 c1        1 CBC     -0.100500
      9 C45         2.5080   -2.2250   -1.5900 c1        1 CBC     -0.036000
     10 C40         1.8950   -1.6240   -2.6810 c2        1 CBC     -0.766000
     11 S1          0.7150   -0.3010   -2.4270 s4        1 CBC      2.059800
     12 O38         1.3770    0.9730   -2.3040 o         1 CBC     -0.516900
     13 O39        -0.0910   -0.0860   -3.6020 o         1 CBC     -0.516900
     14 N33        -0.2270   -0.6200   -1.1000 n2        1 CBC     -0.779000
     15 N32        -0.8630    0.4270   -0.4270 n         1 CBC     -0.192000
     16 C39        -1.7140    0.1450    0.6910 c2        1 CBC      0.334000
     17 O37        -2.2140   -0.9580    0.8130 o         1 CBC     -0.305000
     18 C54        -1.9880    1.2270    1.7340 c2        1 CBC     -0.080000
     19 C53        -2.3790    0.6410    2.9260 c1        1 CBC     -0.076000
     20 O40        -1.8910    2.5830    1.9380 os        1 CBC     -0.107000
     21 C51        -2.2240    2.8450    3.2660 c1        1 CBC      0.037000
     22 C50        -2.5230    1.6480    3.8720 c1        1 CBC     -0.113000
     23 C49        -2.8600    1.6180    5.2410 c1        1 CBC     -0.062000
     24 C52        -2.2530    4.0430    4.0140 c1        1 CBC     -0.117000
     25 C47        -2.5850    4.0120    5.3620 c1        1 CBC     -0.091000
     26 C48        -2.8890    2.7990    5.9770 c1        1 CBC     -0.085000
     27 CL1        -1.2550    2.3380    6.4150 cl        1 CBC     -0.004000
     28 H42         3.4790   -3.2410   -5.0830 ha        1 CBC      0.161000
     29 H43         4.5210   -4.2620   -3.2190 ha        1 CBC      0.148000
     30 H44         3.9150   -3.6280   -1.0160 ha        1 CBC      0.148000
     31 H45         2.2560   -1.9610   -0.6780 ha        1 CBC      0.172000
     32 H33        -0.3390   -1.4820   -0.8150 hn        1 CBC      0.252000
     33 H32        -0.7780    1.2860   -0.7330 hn        1 CBC      0.227000
     34 H53        -2.5530   -0.3140    3.0700 DU        1 CBC      0.186000
     35 H49        -3.0740    0.7640    5.6740 ha        1 CBC      0.160000
     36 H52        -2.0390    4.8980    3.5810 ha        1 CBC      0.162000
     37 H47        -2.6050    4.8440    5.8820 ha        1 CBC      0.157000
@<TRIPOS>BOND
     1    1    2 1   
     2    2    3 1   
     3    2    4 1   
     4    2    5 1   
     5    5    6 1   
     6    5   10 1   
     7    6   28 1   
     8    7    8 1   
     9    7   29 1   
    10    8   30 1   
    11    9   10 1   
    12    9   31 1   
    13   10   11 1   
    14   11   12 1   
    15   11   13 1   
    16   14   15 1   
    17   14   32 1   
    18   15   16 1   
    19   15   33 1   
    20   16   17 1   
    21   16   18 1   
    22   18   19 1   
    23   18   20 1   
    24   19   22 1   
    25   20   21 1   
    26   21   24 1   
    27   22   23 1   
    28   23   35 1   
    29   24   36 1   
    30   25   26 1   
    31   25   37 1   
    32   26   27 1   
@<TRIPOS>SUBSTRUCTURE
     1 CBC         1 TEMP              0 ****  ****    0 ROOT
