@<TRIPOS>MOLECULE
CBC
   39    40     1     0     0
SMALL
bcc


@<TRIPOS>ATOM
      1 F49      -128.5230  -10.5150 -150.5680 f         1 CBC     -0.200300
      2 C46      -127.8940  -11.4670 -151.3280 c3        1 CBC      0.668200
      3 F50      -126.8350  -10.8360 -151.9270 f         1 CBC     -0.200300
      4 F51      -127.3360  -12.3330 -150.4300 f         1 CBC     -0.200300
      5 C41      -128.8450  -12.1460 -152.3490 ca        1 CBC      0.000700
      6 C42      -129.0140  -13.5150 -152.2360 ca        1 CBC     -0.113000
      7 C43      -129.8580  -14.2100 -153.1190 ca        1 CBC      0.047000
      8 C44      -130.5320  -13.5110 -154.1210 ca        1 CBC     -0.134000
      9 C45      -130.3640  -12.1400 -154.2360 ca        1 CBC      0.030000
     10 C40      -129.5180  -11.3970 -153.3600 ca        1 CBC     -0.584500
     11 S1       -129.4250   -9.8580 -153.6070 s4        1 CBC      1.646300
     12 O38      -128.6430   -9.1050 -152.8140 o         1 CBC     -0.371900
     13 O39      -130.1500   -9.3520 -154.6270 o         1 CBC     -0.371900
     14 N33       109.8120   15.0220  125.1910 n8        1 CBC     -0.642600
     15 N32       108.7720   14.8090  124.2890 ny        1 CBC     -0.455600
     16 C39       109.0660   14.8370  122.7720 c         1 CBC      0.572300
     17 O37       110.2270   15.0500  122.4480 o         1 CBC     -0.429100
     18 C54       107.9250   14.6060  121.9430 cc        1 CBC     -0.168100
     19 C53       107.8130   14.5600  120.5570 cd        1 CBC      0.079800
     20 O40       106.6720   14.3810  122.5780 os        1 CBC     -0.225200
     21 C51       105.7660   14.1900  121.5330 ca        1 CBC      0.120100
     22 C50       106.4280   14.2930  120.2680 ca        1 CBC     -0.159800
     23 C49       105.6890   14.1320  119.0920 ca        1 CBC     -0.032000
     24 C52       104.4040   13.9350  121.6610 ca        1 CBC     -0.127000
     25 C47       103.6910   13.7790  120.4750 ca        1 CBC     -0.041000
     26 C48       104.3230   13.8760  119.2140 ca        1 CBC     -0.005600
     27 Cl1       103.3900   13.6740  117.8180 cl        1 CBC     -0.026400
     28 H42      -128.4830  -14.0790 -151.4430 ha        1 CBC      0.205000
     29 H43      -129.9810  -15.3050 -153.0150 ha        1 CBC      0.194000
     30 H44      -131.1980  -14.0460 -154.8230 ha        1 CBC      0.196000
     31 H45      -130.9100  -11.6020 -155.0400 ha        1 CBC      0.189000
     32 H33       110.5350   14.3190  125.0590 hn        1 CBC      0.415800
     33 H32       108.3520   13.8860  124.5080 hn        1 CBC      0.486800
     34 H53       108.6170   14.6980  119.8280 ha        1 CBC      0.204000
     35 H49       106.1740   14.2050  118.1050 ha        1 CBC      0.178000
     36 H52       103.9160   13.8610  122.6430 ha        1 CBC      0.176000
     37 H47       102.6060   13.5750  120.5210 ha        1 CBC      0.180000
     38 H332      110.2300   15.9340  125.0290 hn        1 CBC      0.415800
     39 H322      108.0420   15.5220  124.4780 hn        1 CBC      0.486800
@<TRIPOS>BOND
     1    1    2 1   
     2    2    3 1   
     3    2    4 1   
     4    2    5 1   
     5    5    6 ar  
     6    5   10 ar  
     7    6    7 ar  
     8    6   28 1   
     9    7    8 ar  
    10    7   29 1   
    11    8    9 ar  
    12    8   30 1   
    13    9   10 ar  
    14    9   31 1   
    15   10   11 1   
    16   11   12 1   
    17   11   13 1   
    18   14   15 1   
    19   14   32 1   
    20   14   38 1   
    21   15   16 1   
    22   15   33 1   
    23   15   39 1   
    24   16   17 2   
    25   16   18 1   
    26   18   19 2   
    27   18   20 1   
    28   19   22 1   
    29   19   34 1   
    30   20   21 1   
    31   21   22 ar  
    32   21   24 ar  
    33   22   23 ar  
    34   23   26 ar  
    35   23   35 1   
    36   24   25 ar  
    37   24   36 1   
    38   25   26 ar  
    39   25   37 1   
    40   26   27 1   
@<TRIPOS>SUBSTRUCTURE
     1 CBC         1 TEMP              0 ****  ****    0 ROOT
