@<TRIPOS>MOLECULE
CBC
   39    40     1     0     0
SMALL
bcc


@<TRIPOS>ATOM
      1 F49      -212.0500  -78.5670 -480.1880 f         1 CBC     -0.200300
      2 C46      -212.3760  -79.8970 -480.2410 c3        1 CBC      0.668200
      3 F50      -211.7310  -80.4880 -479.1860 f         1 CBC     -0.200300
      4 F51      -213.7050  -79.9540 -479.9280 f         1 CBC     -0.200300
      5 C41      -212.0220  -80.5490 -481.6040 ca        1 CBC      0.000700
      6 C42      -213.0660  -81.0990 -482.3280 ca        1 CBC     -0.113000
      7 C43      -212.8340  -81.7090 -483.5720 ca        1 CBC      0.047000
      8 C44      -211.5360  -81.7600 -484.0830 ca        1 CBC     -0.134000
      9 C45      -210.4900  -81.2100 -483.3600 ca        1 CBC      0.030000
     10 C40      -210.6820  -80.5810 -482.0930 ca        1 CBC     -0.584500
     11 S1       -209.4110  -80.0050 -481.3930 s4        1 CBC      1.646300
     12 O38      -209.5300  -79.4010 -480.1970 o         1 CBC     -0.371900
     13 O39      -208.2340  -80.1460 -482.0380 o         1 CBC     -0.371900
     14 N33       170.5690   65.6580  372.0810 n3        1 CBC     -0.642600
     15 N32       170.4870   66.3870  373.2640 n4        1 CBC     -0.455600
     16 C39       170.8500   65.7040  374.6030 c         1 CBC      0.572300
     17 O37       171.1960   64.5320  374.5380 o         1 CBC     -0.429100
     18 C54       170.7290   66.5490  375.7510 cc        1 CBC     -0.168100
     19 C53       170.9670   66.2800  377.0940 cd        1 CBC      0.079800
     20 O40       170.3000   67.8900  375.5510 os        1 CBC     -0.225200
     21 C51       170.2780   68.4560  376.8270 ca        1 CBC      0.120100
     22 C50       170.6830   67.4970  377.8100 ca        1 CBC     -0.159800
     23 C49       170.7270   67.8720  379.1560 ca        1 CBC     -0.032000
     24 C52       169.9200   69.7640  377.1420 ca        1 CBC     -0.127000
     25 C47       169.9730   70.1110  378.4890 ca        1 CBC     -0.041000
     26 C48       170.3690   69.1810  379.4770 ca        1 CBC     -0.005600
     27 CL1       170.4080   69.6790  381.0940 cl        1 CBC     -0.026400
     28 H42      -214.1000  -81.0630 -481.9290 ha        1 CBC      0.205000
     29 H43      -213.6800  -82.1450 -484.1370 ha        1 CBC      0.194000
     30 H44      -211.3400  -82.2370 -485.0610 ha        1 CBC      0.196000
     31 H45      -209.4650  -81.2600 -483.7840 ha        1 CBC      0.189000
     32 H33       171.5190   65.3220  371.9460 hn        1 CBC      0.415800
     33 H32       171.0990   67.2190  373.1640 hn        1 CBC      0.486800
     34 H53       171.3040   65.3330  377.5260 ha        1 CBC      0.204000
     35 H49       171.0350   67.1540  379.9330 ha        1 CBC      0.178000
     36 H52       169.6120   70.4830  376.3700 ha        1 CBC      0.176000
     37 H47       169.6980   71.1370  378.7920 ha        1 CBC      0.180000
     38 H332      169.9550   64.8490  372.1290 hn        1 CBC      0.415800
     39 H322      169.5150   66.7400  373.3490 hn        1 CBC      0.486800
@<TRIPOS>BOND
     1    1    2 1   
     2    2    3 1   
     3    2    4 1   
     4    2    5 1   
     5    5    6 ar  
     6    5   10 ar  
     7    6    7 ar  
     8    6   28 1   
     9    7    8 ar  
    10    7   29 1   
    11    8    9 ar  
    12    8   30 1   
    13    9   10 ar  
    14    9   31 1   
    15   10   11 1   
    16   11   12 1   
    17   11   13 1   
    18   14   15 1   
    19   14   32 1   
    20   14   38 1   
    21   15   16 1   
    22   15   33 1   
    23   15   39 1   
    24   16   17 2   
    25   16   18 1   
    26   18   19 2   
    27   18   20 1   
    28   19   22 1   
    29   19   34 1   
    30   20   21 1   
    31   21   22 ar  
    32   21   24 ar  
    33   22   23 ar  
    34   23   26 ar  
    35   23   35 1   
    36   24   25 ar  
    37   24   36 1   
    38   25   26 ar  
    39   25   37 1   
    40   26   27 1   
@<TRIPOS>SUBSTRUCTURE
     1 CBC         1 TEMP              0 ****  ****    0 ROOT
