@<TRIPOS>MOLECULE
CBC
   37    39     1     0     0
SMALL
bcc


@<TRIPOS>ATOM
      1 F49         5.7310    0.3850   -1.0500 f         1 CBC     -0.227967
      2 C46         4.6380   -0.3630   -1.3970 c3        1 CBC      0.679200
      3 F50         3.7820    0.5070   -2.0280 f         1 CBC     -0.227967
      4 F51         5.0920   -1.1530   -2.4280 f         1 CBC     -0.227967
      5 C41         4.0160   -1.1570   -0.2350 ca        1 CBC     -0.046300
      6 C42         4.3470   -2.5120   -0.1690 ca        1 CBC     -0.119000
      7 C43         3.8400   -3.3140    0.8540 ca        1 CBC     -0.076000
      8 C44         3.0010   -2.7570    1.8140 ca        1 CBC     -0.128000
      9 C45         2.6800   -1.4020    1.7450 ca        1 CBC     -0.040000
     10 C40         3.1790   -0.5740    0.7290 ca        1 CBC     -0.309500
     11 S1          2.7180    1.0770    0.8390 sy        1 CBC      1.519200
     12 O38         3.7790    1.8700    0.3810 o         1 CBC     -0.627800
     13 O39         2.2500    1.3050    2.1370 o         1 CBC     -0.627800
     14 N33         1.5250    1.1660   -0.2940 n3        1 CBC     -0.694100
     15 N32         0.2680    0.7390   -0.0590 n         1 CBC     -0.306300
     16 C39        -0.8010    1.6900    0.0210 c         1 CBC      0.659300
     17 O37        -0.6210    2.9070    0.1720 o         1 CBC     -0.527100
     18 C54        -2.1620    1.1280    0.0220 cc        1 CBC     -0.053100
     19 C53        -3.3500    1.6870    0.4380 cd        1 CBC     -0.065200
     20 O40        -2.3450   -0.1810   -0.4850 os        1 CBC     -0.202200
     21 C51        -3.7120   -0.4320   -0.3710 ca        1 CBC      0.081100
     22 C50        -4.3820    0.6960    0.1980 ca        1 CBC     -0.121800
     23 C49        -5.7590    0.6440    0.3960 ca        1 CBC     -0.061000
     24 C52        -4.3740   -1.5980   -0.7470 ca        1 CBC     -0.119000
     25 C47        -5.7500   -1.6270   -0.5400 ca        1 CBC     -0.092000
     26 C48        -6.4250   -0.5250    0.0210 ca        1 CBC     -0.006600
     27 CL1        -8.1070   -0.6280    0.2470 cl        1 CBC     -0.083400
     28 H42         5.0130   -2.9550   -0.9280 ha        1 CBC      0.160000
     29 H43         4.1080   -4.3810    0.8970 ha        1 CBC      0.147000
     30 H44         2.5950   -3.3770    2.6280 ha        1 CBC      0.150000
     31 H45         2.0230   -0.9650    2.5220 ha        1 CBC      0.175000
     32 H33         1.6900    1.6230   -1.1710 hn        1 CBC      0.451800
     33 H32         0.0230   -0.0460   -0.6530 hn        1 CBC      0.300500
     34 H53        -3.4940    2.6800    0.8640 ha        1 CBC      0.188000
     35 H49        -6.3000    1.4960    0.8330 ha        1 CBC      0.161000
     36 H52        -3.8360   -2.4490   -1.1830 ha        1 CBC      0.159000
     37 H47        -6.3190   -2.5270   -0.8200 ha        1 CBC      0.156000
@<TRIPOS>BOND
     1    1    2 1   
     2    2    3 1   
     3    2    4 1   
     4    2    5 1   
     5    5    6 ar  
     6    5   10 ar  
     7    6    7 ar  
     8    6   28 1   
     9    7    8 ar  
    10    7   29 1   
    11    8    9 ar  
    12    8   30 1   
    13    9   10 ar  
    14    9   31 1   
    15   10   11 1   
    16   11   12 2   
    17   11   13 2   
    18   11   14 1   
    19   14   15 1   
    20   14   32 1   
    21   15   16 1   
    22   15   33 1   
    23   16   17 2   
    24   16   18 1   
    25   18   19 2   
    26   18   20 1   
    27   19   22 1   
    28   19   34 1   
    29   20   21 1   
    30   21   22 ar  
    31   21   24 ar  
    32   22   23 ar  
    33   23   26 ar  
    34   23   35 1   
    35   24   25 ar  
    36   24   36 1   
    37   25   26 ar  
    38   25   37 1   
    39   26   27 1   
@<TRIPOS>SUBSTRUCTURE
     1 CBC         1 TEMP              0 ****  ****    0 ROOT
