@<TRIPOS>MOLECULE
CBE
   29    30     1     0     0
SMALL
bcc


@<TRIPOS>ATOM
      1 C1          0.0200   -0.4100   -0.4900 c3        1 CBE     -0.061900
      2 C2          1.3770    0.0960   -0.1570 c2        1 CBE      0.169900
      3 C3          1.8410    0.3320    1.0990 ce        1 CBE     -0.229600
      4 S4          3.4050    0.8810    1.4710 ss        1 CBE     -0.181700
      5 C5          4.2100    0.6200   -0.0720 c3        1 CBE     -0.079300
      6 C6          3.3180    1.0290   -1.2180 c3        1 CBE      0.121400
      7 O7          2.1260    0.2430   -1.3020 os        1 CBE     -0.320900
      8 C8          0.9310    0.1380    2.2630 c         1 CBE      0.710300
      9 O9         -0.2960    0.3310    2.1670 o         1 CBE     -0.598100
     10 N10         1.5410   -0.2800    3.4380 n         1 CBE     -0.465100
     11 C11         0.9310   -0.5130    4.6810 ca        1 CBE      0.074600
     12 C12         1.7330   -1.0280    5.7310 ca        1 CBE     -0.171000
     13 C13         1.1810   -1.2740    6.9820 ca        1 CBE     -0.104500
     14 C14        -0.1670   -1.0190    7.2260 ca        1 CBE     -0.160000
     15 C15        -0.9630   -0.5120    6.2020 ca        1 CBE     -0.104500
     16 C16        -0.4330   -0.2570    4.9400 ca        1 CBE     -0.171000
     17 H11        -0.7230    0.4120   -0.3200 hc        1 CBE      0.074033
     18 H12A       -0.2460   -1.2610    0.1850 hc        1 CBE      0.074033
     19 H13A       -0.0300   -0.7430   -1.5550 hc        1 CBE      0.074033
     20 H51         4.5130   -0.4490   -0.1860 h1        1 CBE      0.090700
     21 H52         5.1360    1.2480   -0.0620 h1        1 CBE      0.090700
     22 H61         3.0300    2.1110   -1.1360 h1        1 CBE      0.074200
     23 H62         3.8120    0.8380   -2.2100 h1        1 CBE      0.074200
     24 H10         2.5270   -0.4390    3.4060 hn        1 CBE      0.328500
     25 H12         2.8010   -1.2380    5.5650 ha        1 CBE      0.150500
     26 H13         1.8190   -1.6740    7.7840 ha        1 CBE      0.131500
     27 H14        -0.5970   -1.2170    8.2180 ha        1 CBE      0.132000
     28 H15        -2.0290   -0.3070    6.3850 ha        1 CBE      0.131500
     29 H16        -1.0900    0.1450    4.1520 ha        1 CBE      0.150500
@<TRIPOS>BOND
     1    1    2 1   
     2    1   17 1   
     3    1   18 1   
     4    1   19 1   
     5    2    3 2   
     6    2    7 1   
     7    3    4 1   
     8    3    8 1   
     9    4    5 1   
    10    5    6 1   
    11    5   20 1   
    12    5   21 1   
    13    6    7 1   
    14    6   22 1   
    15    6   23 1   
    16    8    9 2   
    17    8   10 1   
    18   10   11 1   
    19   10   24 1   
    20   11   12 ar  
    21   11   16 ar  
    22   12   13 ar  
    23   12   25 1   
    24   13   14 ar  
    25   13   26 1   
    26   14   15 ar  
    27   14   27 1   
    28   15   16 ar  
    29   15   28 1   
    30   16   29 1   
@<TRIPOS>SUBSTRUCTURE
     1 CBE         1 TEMP              0 ****  ****    0 ROOT
