@<TRIPOS>MOLECULE
CBE
   30    31     1     0     0
SMALL
bcc


@<TRIPOS>ATOM
      1 C1         -0.0710    0.3990   -0.5200 c3        1 CBE     -0.098900
      2 C2          1.2690    0.4840    0.1140 c2        1 CBE      0.296900
      3 C3          1.6400   -0.2030    1.2570 ce        1 CBE     -0.308600
      4 S4          3.1890   -0.0710    1.9560 ss        1 CBE     -0.217700
      5 C5          4.1040    0.4260    0.5330 c3        1 CBE     -0.064300
      6 C6          3.4130    1.5910   -0.1240 c3        1 CBE      0.113400
      7 O7          2.0900    1.2790   -0.6030 os        1 CBE     -0.278900
      8 C8          0.6820   -1.0750    1.8870 c         1 CBE      0.602300
      9 O9         -0.4900   -1.2960    1.5940 o         1 CBE     -0.472100
     10 N10         1.1920   -1.8910    3.0710 n4        1 CBE     -0.540200
     11 C11         0.8850   -1.2510    4.3530 ca        1 CBE     -0.053400
     12 C12         1.8280   -0.3950    4.9490 ca        1 CBE     -0.097500
     13 C13         1.5310    0.1920    6.1760 ca        1 CBE     -0.106500
     14 C14         0.3110   -0.0630    6.8050 ca        1 CBE     -0.073000
     15 C15        -0.6240   -0.9070    6.2050 ca        1 CBE     -0.106500
     16 C16        -0.3500   -1.5070    4.9770 ca        1 CBE     -0.097500
     17 H11        -0.3020   -0.6680   -0.7770 hc        1 CBE      0.101033
     18 H12A       -0.8470    0.7560    0.2060 hc        1 CBE      0.101033
     19 H13A       -0.1190    1.0220   -1.4500 hc        1 CBE      0.101033
     20 H51         4.2340   -0.4190   -0.1880 h1        1 CBE      0.114200
     21 H52         5.1180    0.7360    0.8960 h1        1 CBE      0.114200
     22 H61         3.3190    2.4650    0.5760 h1        1 CBE      0.104700
     23 H62         3.9390    1.9070   -1.0700 h1        1 CBE      0.104700
     24 H10         2.2140   -2.0130    2.9850 hn        1 CBE      0.466300
     25 H12         2.7930   -0.1750    4.4550 ha        1 CBE      0.162000
     26 H13         2.2680    0.8610    6.6490 ha        1 CBE      0.169000
     27 H14         0.0850    0.4060    7.7780 ha        1 CBE      0.168000
     28 H15        -1.5890   -1.1060    6.6990 ha        1 CBE      0.169000
     29 H16        -1.1020   -2.1640    4.5100 ha        1 CBE      0.162000
     30 H102        0.7330   -2.8110    3.0480 hn        1 CBE      0.466300
@<TRIPOS>BOND
     1    1    2 1   
     2    1   17 1   
     3    1   18 1   
     4    1   19 1   
     5    2    3 2   
     6    2    7 1   
     7    3    4 1   
     8    3    8 1   
     9    4    5 1   
    10    5    6 1   
    11    5   20 1   
    12    5   21 1   
    13    6    7 1   
    14    6   22 1   
    15    6   23 1   
    16    8    9 2   
    17    8   10 1   
    18   10   11 1   
    19   10   24 1   
    20   10   30 1   
    21   11   12 ar  
    22   11   16 ar  
    23   12   13 ar  
    24   12   25 1   
    25   13   14 ar  
    26   13   26 1   
    27   14   15 ar  
    28   14   27 1   
    29   15   16 ar  
    30   15   28 1   
    31   16   29 1   
@<TRIPOS>SUBSTRUCTURE
     1 CBE         1 TEMP              0 ****  ****    0 ROOT
