@<TRIPOS>MOLECULE
CBE
   29    30     1     0     0
SMALL
bcc


@<TRIPOS>ATOM
      1 C1          0.0050   -0.4020   -0.4840 c3        1 CBE     -0.061900
      2 C2          1.3670    0.0960   -0.1570 c2        1 CBE      0.169900
      3 C3          1.8380    0.3290    1.0960 ce        1 CBE     -0.229600
      4 S4          3.4060    0.8690    1.4620 ss        1 CBE     -0.181700
      5 C5          4.2030    0.6030   -0.0840 c3        1 CBE     -0.079300
      6 C6          3.3080    1.0170   -1.2260 c3        1 CBE      0.121400
      7 O7          2.1110    0.2380   -1.3060 os        1 CBE     -0.320900
      8 C8          0.9320    0.1410    2.2640 c         1 CBE      0.710300
      9 O9         -0.2950    0.3400    2.1740 o         1 CBE     -0.598100
     10 N10         1.5440   -0.2810    3.4380 ns        1 CBE     -0.466100
     11 C11         0.9380   -0.5100    4.6830 ca        1 CBE      0.074600
     12 C12         1.7420   -1.0320    5.7290 ca        1 CBE     -0.171000
     13 C13         1.1940   -1.2740    6.9820 ca        1 CBE     -0.104500
     14 C14        -0.1520   -1.0100    7.2320 ca        1 CBE     -0.160000
     15 C15        -0.9490   -0.4970    6.2120 ca        1 CBE     -0.104500
     16 C16        -0.4230   -0.2450    4.9480 ca        1 CBE     -0.171000
     17 H11        -0.2630   -1.2510    0.1920 hc        1 CBE      0.074033
     18 H12A       -0.7320    0.4240   -0.3110 hc        1 CBE      0.074033
     19 H13A       -0.0510   -0.7350   -1.5490 hc        1 CBE      0.074033
     20 H51         4.4990   -0.4680   -0.1990 h1        1 CBE      0.090700
     21 H52         5.1330    1.2250   -0.0790 h1        1 CBE      0.090700
     22 H61         3.7970    0.8230   -2.2210 h1        1 CBE      0.074200
     23 H62         3.0270    2.1010   -1.1440 h1        1 CBE      0.074200
     24 H10         2.5290   -0.4460    3.4010 hn        1 CBE      0.328500
     25 H12         2.8070   -1.2480    5.5590 ha        1 CBE      0.150500
     26 H13         1.8320   -1.6790    7.7820 ha        1 CBE      0.131500
     27 H14        -0.5790   -1.2050    8.2260 ha        1 CBE      0.132000
     28 H15        -2.0130   -0.2850    6.4000 ha        1 CBE      0.131500
     29 H16        -1.0810    0.1620    4.1630 ha        1 CBE      0.150500
@<TRIPOS>BOND
     1    1    2 1   
     2    1   17 1   
     3    1   18 1   
     4    1   19 1   
     5    2    3 2   
     6    2    7 1   
     7    3    4 1   
     8    3    8 1   
     9    4    5 1   
    10    5    6 1   
    11    5   20 1   
    12    5   21 1   
    13    6    7 1   
    14    6   22 1   
    15    6   23 1   
    16    8    9 2   
    17    8   10 1   
    18   10   11 1   
    19   10   24 1   
    20   11   12 ar  
    21   11   16 ar  
    22   12   13 ar  
    23   12   25 1   
    24   13   14 ar  
    25   13   26 1   
    26   14   15 ar  
    27   14   27 1   
    28   15   16 ar  
    29   15   28 1   
    30   16   29 1   
@<TRIPOS>SUBSTRUCTURE
     1 CBE         1 TEMP              0 ****  ****    0 ROOT
