@<TRIPOS>MOLECULE
CBE
   29    27     1     0     0
SMALL
bcc


@<TRIPOS>ATOM
      1 C1         -1.7360    0.1520   -2.9190 c3        1 CBE     -0.184000
      2 C2         -0.2250    0.2030   -2.8710 c2        1 CBE      0.130000
      3 C3          0.5570    0.2480   -1.4060 c1        1 CBE     -0.451000
      4 S4          1.6270    1.3540   -1.3080 s         1 CBE      0.241000
      5 C5          2.3710    1.8050   -2.7720 c3        1 CBE     -0.340000
      6 C6          1.6140    2.0500   -3.6580 c3        1 CBE     -0.029000
      7 O7          0.5590    0.8270   -4.0330 os        1 CBE     -0.205000
      8 C8         -0.1450   -0.2380   -0.1580 c2        1 CBE      0.385000
      9 O9         -1.2820   -0.6610   -0.2260 o         1 CBE     -0.359000
     10 N10         0.5460   -0.2610    1.0810 n         1 CBE     -0.320000
     11 C11        -0.0900   -0.7790    2.2390 c2        1 CBE      0.082000
     12 C12        -0.9040    0.0390    3.0060 c2        1 CBE     -0.157000
     13 C13        -1.4720   -0.4460    4.1740 c1        1 CBE     -0.105000
     14 C14        -1.2260   -1.7500    4.5740 c1        1 CBE     -0.132000
     15 C15        -0.4120   -2.5690    3.8060 c1        1 CBE     -0.132000
     16 C16         0.1560   -2.0830    2.6390 c1        1 CBE     -0.185000
     17 H11        -2.0360   -0.7710   -2.7830 hc        1 CBE      0.113333
     18 H12A       -2.1050    0.7230   -2.2130 hc        1 CBE      0.113333
     19 H13A       -2.0460    0.4710   -3.7930 hc        1 CBE      0.113333
     20 H51         2.9230    2.5980   -2.6080 h1        1 CBE      0.130000
     21 H52         2.9570    1.0730   -3.0600 h1        1 CBE      0.130000
     22 H61         2.1360    2.2640   -4.4590 h1        1 CBE      0.113500
     23 H62         1.0930    2.8420   -3.4070 h1        1 CBE      0.113500
     24 H10         1.3970    0.0640    1.1340 hn        1 CBE      0.242000
     25 H12        -1.0770    0.9580    2.7250 ha        1 CBE      0.172000
     26 H13        -2.0450    0.1300    4.7140 ha        1 CBE      0.133000
     27 H14        -1.6260   -2.0920    5.3960 ha        1 CBE      0.131000
     28 H15        -0.2390   -3.4870    4.0880 ha        1 CBE      0.131000
     29 H16         0.7290   -2.6600    2.0990 ha        1 CBE      0.129000
@<TRIPOS>BOND
     1    1    2 1   
     2    1   17 1   
     3    1   18 1   
     4    1   19 1   
     5    2    3 1   
     6    2    7 1   
     7    3    8 1   
     8    4    5 1   
     9    5    6 1   
    10    5   20 1   
    11    5   21 1   
    12    6    7 1   
    13    6   22 1   
    14    6   23 1   
    15    8    9 1   
    16    8   10 1   
    17   10   11 1   
    18   10   24 1   
    19   11   12 1   
    20   11   16 1   
    21   12   13 1   
    22   12   25 1   
    23   13   26 1   
    24   14   15 1   
    25   14   27 1   
    26   15   28 1   
    27   16   29 1   
@<TRIPOS>SUBSTRUCTURE
     1 CBE         1 TEMP              0 ****  ****    0 ROOT
