@<TRIPOS>MOLECULE
CBE
   29    30     1     0     0
SMALL
bcc


@<TRIPOS>ATOM
      1 C1         83.9130   98.8750  107.3940 c3        1 CBE     -0.061900
      2 C2         83.2550   97.8950  106.4920 c2        1 CBE      0.169900
      3 C3         83.7510   96.6730  106.1630 ce        1 CBE     -0.229600
      4 S4         82.9770   95.5460  105.1550 ss        1 CBE     -0.181700
      5 C5         81.3590   96.2360  105.0910 c3        1 CBE     -0.079300
      6 C6         81.4220   97.7370  104.9500 c3        1 CBE      0.121400
      7 O7         82.0350   98.3760  106.0740 os        1 CBE     -0.320900
      8 C8         85.0880   96.2650  106.6790 c         1 CBE      0.710300
      9 O9         85.9880   97.1020  106.8870 o         1 CBE     -0.598100
     10 N10        85.2500   94.9070  106.9200 n         1 CBE     -0.466100
     11 C11        86.4040   94.2520  107.3800 ca        1 CBE      0.074600
     12 C12        86.3180   92.8630  107.6520 ca        1 CBE     -0.171000
     13 C13        87.4300   92.1650  108.1050 ca        1 CBE     -0.104500
     14 C14        88.6470   92.8170  108.3000 ca        1 CBE     -0.160000
     15 C15        88.7420   94.1810  108.0350 ca        1 CBE     -0.104500
     16 C16        87.6410   94.9020  107.5790 ca        1 CBE     -0.171000
     17 H11        84.7900   99.3240  106.8610 hc        1 CBE      0.074033
     18 H12A       83.2010   99.6850  107.6890 hc        1 CBE      0.074033
     19 H13A       84.2940   98.3560  108.3080 hc        1 CBE      0.074033
     20 H51        80.7740   95.9620  106.0020 h1        1 CBE      0.090700
     21 H52        80.8530   95.7870  104.2010 h1        1 CBE      0.090700
     22 H61        80.3920   98.1910  104.9390 h1        1 CBE      0.074200
     23 H62        81.9800   98.0310  104.0210 h1        1 CBE      0.074200
     24 H10        84.4590   94.3190  106.7540 hn        1 CBE      0.328500
     25 H12        85.3700   92.3240  107.5060 ha        1 CBE      0.150500
     26 H13        87.3450   91.0880  108.3110 ha        1 CBE      0.131500
     27 H14        89.5230   92.2590  108.6600 ha        1 CBE      0.132000
     28 H15        89.6980   94.7040  108.1850 ha        1 CBE      0.131500
     29 H16        87.7500   95.9800  107.3770 ha        1 CBE      0.150500
@<TRIPOS>BOND
     1    1    2 1   
     2    1   17 1   
     3    1   18 1   
     4    1   19 1   
     5    2    3 2   
     6    2    7 1   
     7    3    4 1   
     8    3    8 1   
     9    4    5 1   
    10    5    6 1   
    11    5   20 1   
    12    5   21 1   
    13    6    7 1   
    14    6   22 1   
    15    6   23 1   
    16    8    9 2   
    17    8   10 1   
    18   10   11 1   
    19   10   24 1   
    20   11   12 ar  
    21   11   16 ar  
    22   12   13 ar  
    23   12   25 1   
    24   13   14 ar  
    25   13   26 1   
    26   14   15 ar  
    27   14   27 1   
    28   15   16 ar  
    29   15   28 1   
    30   16   29 1   
@<TRIPOS>SUBSTRUCTURE
     1 CBE         1 TEMP              0 ****  ****    0 ROOT
