@<TRIPOS>MOLECULE
CBF
   29    29     1     0     0
SMALL
bcc


@<TRIPOS>ATOM
      1 O6         -0.0450    0.9360    0.5550 oh        1 CBF     -0.597800
      2 C6          1.2050    0.3760    0.2040 c3        1 CBF      0.138400
      3 C5          1.9540    0.1610    1.5240 c3        1 CBF      0.106100
      4 O5          1.4880   -1.1290    1.9850 os        1 CBF     -0.413600
      5 C1          2.1110   -1.6010    3.1510 c3        1 CBF      0.310600
      6 O1          1.6770   -0.8210    4.2320 oh        1 CBF     -0.617800
      7 C7          1.6060   -3.0520    3.3470 c         1 CBF      0.523100
      8 O7          1.1320   -3.8230    2.5380 o         1 CBF     -0.364100
      9 N1          1.7920   -3.5540    4.7570 nz        1 CBF     -0.753400
     10 C2          3.6560   -1.6420    3.0470 c3        1 CBF      0.132100
     11 O2          4.1640   -2.1030    4.2820 oh        1 CBF     -0.644800
     12 C3          4.1520   -0.2400    2.6720 c3        1 CBF      0.119100
     13 O3          5.5530   -0.3490    2.5340 oh        1 CBF     -0.598800
     14 C4          3.4800    0.1800    1.3490 c3        1 CBF      0.083100
     15 O4          3.9380    1.4980    1.1170 oh        1 CBF     -0.581800
     16 HO6        -0.5770    0.9730   -0.2510 ho        1 CBF      0.428000
     17 H61         1.0720   -0.5980   -0.3370 h1        1 CBF      0.053200
     18 H62         1.7850    1.0940   -0.4360 h1        1 CBF      0.053200
     19 H5          1.6460    0.9440    2.2730 h1        1 CBF      0.096700
     20 HO1         0.8890   -0.3150    3.9630 ho        1 CBF      0.468000
     21 HN11        1.3940   -2.8630    5.4050 hn        1 CBF      0.480133
     22 HN12        2.8050   -3.6190    4.9510 hn        1 CBF      0.480133
     23 H2          3.9430   -2.3790    2.2420 h1        1 CBF      0.093700
     24 HO2         5.0370   -1.6990    4.4160 ho        1 CBF      0.478000
     25 H3          3.8970    0.4990    3.4840 h1        1 CBF      0.088700
     26 HO3         5.8730    0.5110    2.2200 ho        1 CBF      0.453000
     27 H4          3.7930   -0.5080    0.5170 h1        1 CBF      0.075700
     28 HO4         3.7370    1.7240    0.1990 ho        1 CBF      0.430000
     29 H13         1.3510   -4.4670    4.8920 hn        1 CBF      0.480133
@<TRIPOS>BOND
     1    1    2 1   
     2    1   16 1   
     3    2    3 1   
     4    2   17 1   
     5    2   18 1   
     6    3    4 1   
     7    3   14 1   
     8    3   19 1   
     9    4    5 1   
    10    5    6 1   
    11    5    7 1   
    12    5   10 1   
    13    6   20 1   
    14    7    8 2   
    15    7    9 1   
    16    9   21 1   
    17    9   22 1   
    18    9   29 1   
    19   10   11 1   
    20   10   12 1   
    21   10   23 1   
    22   11   24 1   
    23   12   13 1   
    24   12   14 1   
    25   12   25 1   
    26   13   26 1   
    27   14   15 1   
    28   14   27 1   
    29   15   28 1   
@<TRIPOS>SUBSTRUCTURE
     1 CBF         1 TEMP              0 ****  ****    0 ROOT
