@<TRIPOS>MOLECULE
CBF
   29    29     1     0     0
SMALL
bcc


@<TRIPOS>ATOM
      1 O6         -0.0430    0.9220    0.5350 oh        1 CBF     -0.597800
      2 C6          1.2200    0.3840    0.1970 c3        1 CBF      0.138400
      3 C5          1.9520    0.1640    1.5250 c3        1 CBF      0.106100
      4 O5          1.4980   -1.1380    1.9640 os        1 CBF     -0.413600
      5 C1          2.1090   -1.6150    3.1340 c3        1 CBF      0.310600
      6 O1          1.6480   -0.8540    4.2170 oh        1 CBF     -0.617800
      7 C7          1.6220   -3.0760    3.3050 c         1 CBF      0.523100
      8 O7          1.1720   -3.8440    2.4800 o         1 CBF     -0.364100
      9 N1          1.7940   -3.5910    4.7120 n4        1 CBF     -0.753400
     10 C2          3.6560   -1.6330    3.0540 c3        1 CBF      0.132100
     11 O2          4.1520   -2.1020    4.2900 oh        1 CBF     -0.644800
     12 C3          4.1380   -0.2200    2.7020 c3        1 CBF      0.119100
     13 O3          5.5420   -0.3070    2.5840 oh        1 CBF     -0.598800
     14 C4          3.4790    0.2060    1.3750 c3        1 CBF      0.083100
     15 O4          3.9230    1.5330    1.1650 oh        1 CBF     -0.581800
     16 HO6        -0.5630    0.9610   -0.2790 ho        1 CBF      0.428000
     17 H61         1.7990    1.1170   -0.4260 h1        1 CBF      0.053200
     18 H62         1.1090   -0.5860   -0.3570 h1        1 CBF      0.053200
     19 H5          1.6210    0.9320    2.2790 h1        1 CBF      0.096700
     20 HO1         0.8570   -0.3570    3.9430 ho        1 CBF      0.468000
     21 HN11        2.8040   -3.6450    4.9210 hn        1 CBF      0.480133
     22 HN12        1.3750   -2.9140    5.3620 hn        1 CBF      0.480133
     23 H2          3.9660   -2.3570    2.2440 h1        1 CBF      0.093700
     24 HO2         5.0160   -1.6870    4.4420 ho        1 CBF      0.478000
     25 H3          3.8600    0.5050    3.5190 h1        1 CBF      0.088700
     26 HO3         5.8540    0.5600    2.2850 ho        1 CBF      0.453000
     27 H4          3.8150   -0.4680    0.5390 h1        1 CBF      0.075700
     28 HO4         3.7320    1.7670    0.2470 ho        1 CBF      0.430000
     29 H13         1.3630   -4.5130    4.8300 hn        1 CBF      0.480133
@<TRIPOS>BOND
     1    1    2 1   
     2    1   16 1   
     3    2    3 1   
     4    2   17 1   
     5    2   18 1   
     6    3    4 1   
     7    3   14 1   
     8    3   19 1   
     9    4    5 1   
    10    5    6 1   
    11    5    7 1   
    12    5   10 1   
    13    6   20 1   
    14    7    8 2   
    15    7    9 1   
    16    9   21 1   
    17    9   22 1   
    18    9   29 1   
    19   10   11 1   
    20   10   12 1   
    21   10   23 1   
    22   11   24 1   
    23   12   13 1   
    24   12   14 1   
    25   12   25 1   
    26   13   26 1   
    27   14   15 1   
    28   14   27 1   
    29   15   28 1   
@<TRIPOS>SUBSTRUCTURE
     1 CBF         1 TEMP              0 ****  ****    0 ROOT
