@<TRIPOS>MOLECULE
CBF
   28    28     1     0     0
SMALL
bcc


@<TRIPOS>ATOM
      1 O6          2.4570    2.7770    0.3910 oh        1 CBF     -0.594800
      2 C6          2.3840    1.6670   -0.4870 c3        1 CBF      0.136400
      3 C5          1.3850    0.6830    0.1250 c3        1 CBF      0.148100
      4 O5          0.0910    1.0980   -0.3330 os        1 CBF     -0.438600
      5 C1         -0.9850    0.3110    0.1510 c3        1 CBF      0.246600
      6 O1         -0.9720    0.4190    1.5500 oh        1 CBF     -0.613800
      7 C7         -2.2720    0.9300   -0.4460 c         1 CBF      0.654100
      8 O7         -3.1650    1.3170    0.3320 o         1 CBF     -0.598100
      9 N1         -2.3880    0.9980   -1.8040 n         1 CBF     -0.640000
     10 C2         -0.8290   -1.1880   -0.1930 c3        1 CBF      0.107100
     11 O2         -1.8150   -1.9740    0.4400 oh        1 CBF     -0.589800
     12 C3          0.5700   -1.6760    0.2190 c3        1 CBF      0.075100
     13 O3          0.8220   -2.9710   -0.3010 oh        1 CBF     -0.606800
     14 C4          1.6530   -0.7520   -0.3590 c3        1 CBF      0.124100
     15 O4          2.9370   -1.1250    0.1060 oh        1 CBF     -0.593800
     16 HO6         3.0710    3.4030   -0.0110 ho        1 CBF      0.403000
     17 H61         2.0390    1.9950   -1.5040 h1        1 CBF      0.045700
     18 H62         3.3860    1.1640   -0.5620 h1        1 CBF      0.045700
     19 H5          1.4210    0.7340    1.2480 h1        1 CBF      0.097700
     20 HO1        -1.4100    1.2470    1.8010 ho        1 CBF      0.450000
     21 HN11       -1.5900    0.8570   -2.3710 hn        1 CBF      0.319500
     22 HN12       -3.1810    1.4420   -2.2000 hn        1 CBF      0.319500
     23 H2         -0.9860   -1.3520   -1.2950 h1        1 CBF      0.097700
     24 HO2        -1.8510   -1.7060    1.3700 ho        1 CBF      0.429000
     25 H3          0.6460   -1.6990    1.3430 h1        1 CBF      0.070700
     26 HO3         0.0660   -3.5210   -0.0510 ho        1 CBF      0.426000
     27 H4          1.6310   -0.8010   -1.4830 h1        1 CBF      0.053700
     28 HO4         3.0230   -2.0750   -0.0590 ho        1 CBF      0.426000
@<TRIPOS>BOND
     1    1    2 1   
     2    1   16 1   
     3    2    3 1   
     4    2   17 1   
     5    2   18 1   
     6    3    4 1   
     7    3   14 1   
     8    3   19 1   
     9    4    5 1   
    10    5    6 1   
    11    5    7 1   
    12    5   10 1   
    13    6   20 1   
    14    7    8 2   
    15    7    9 1   
    16    9   21 1   
    17    9   22 1   
    18   10   11 1   
    19   10   12 1   
    20   10   23 1   
    21   11   24 1   
    22   12   13 1   
    23   12   14 1   
    24   12   25 1   
    25   13   26 1   
    26   14   15 1   
    27   14   27 1   
    28   15   28 1   
@<TRIPOS>SUBSTRUCTURE
     1 CBF         1 TEMP              0 ****  ****    0 ROOT
