@<TRIPOS>MOLECULE
CBF
   28    28     1     0     0
SMALL
bcc


@<TRIPOS>ATOM
      1 O6         -2.4030    0.6950   -2.5160 oh        1 CBF     -0.594800
      2 C6         -0.9920    0.6950   -2.5160 c3        1 CBF      0.134400
      3 C5         -0.4880    0.6950   -1.0910 c3        1 CBF      0.148100
      4 O5         -0.9200   -0.5510   -0.4360 os        1 CBF     -0.410600
      5 C1         -0.4750   -0.6650    0.9940 c3        1 CBF      0.252600
      6 O1         -1.2100    0.1980    1.8280 oh        1 CBF     -0.600800
      7 C7         -0.8180   -1.9780    1.5660 c         1 CBF      0.661100
      8 O7          0.0540   -2.6870    2.0260 o         1 CBF     -0.646100
      9 N1         -2.1680   -2.4160    1.5750 n         1 CBF     -0.628000
     10 C2          1.0470   -0.4130    1.0710 c3        1 CBF      0.075100
     11 O2          1.4320   -0.3470    2.4450 oh        1 CBF     -0.618800
     12 C3          1.4610    0.8440    0.4000 c3        1 CBF      0.107100
     13 O3          2.9310    0.8210    0.4340 oh        1 CBF     -0.604800
     14 C4          0.9890    0.8600   -1.1060 c3        1 CBF      0.120100
     15 O4          1.3070    2.2060   -1.6100 oh        1 CBF     -0.593800
     16 HO6        -2.6980    0.7900   -3.3480 ho        1 CBF      0.402000
     17 H61        -0.6670   -0.1020   -2.9760 h1        1 CBF      0.046700
     18 H62        -0.6670    1.4920   -2.9760 h1        1 CBF      0.046700
     19 H5         -0.8840    1.4510   -0.6180 h1        1 CBF      0.098700
     20 HO1        -1.0910   -0.0380    2.6750 ho        1 CBF      0.435000
     21 HN11       -2.3790   -3.2350    1.9170 hn        1 CBF      0.328000
     22 HN12       -2.8220   -1.8870    1.2240 hn        1 CBF      0.328000
     23 H2          1.5110   -1.1610    0.6500 h1        1 CBF      0.085700
     24 HO2         2.1910   -0.7920    2.5620 ho        1 CBF      0.447000
     25 H3          1.1170    1.6220    0.8790 h1        1 CBF      0.067700
     26 HO3         3.2310    1.5870    0.7650 ho        1 CBF      0.427000
     27 H4          1.4280    0.1630   -1.6300 h1        1 CBF      0.059700
     28 HO4         1.9800    2.1540   -2.1870 ho        1 CBF      0.426000
@<TRIPOS>BOND
     1    1    2 1   
     2    1   16 1   
     3    2    3 1   
     4    2   17 1   
     5    2   18 1   
     6    3    4 1   
     7    3   14 1   
     8    3   19 1   
     9    4    5 1   
    10    5    6 1   
    11    5    7 1   
    12    5   10 1   
    13    6   20 1   
    14    7    8 2   
    15    7    9 1   
    16    9   21 1   
    17    9   22 1   
    18   10   11 1   
    19   10   12 1   
    20   10   23 1   
    21   11   24 1   
    22   12   13 1   
    23   12   14 1   
    24   12   25 1   
    25   13   26 1   
    26   14   15 1   
    27   14   27 1   
    28   15   28 1   
@<TRIPOS>SUBSTRUCTURE
     1 CBF         1 TEMP              0 ****  ****    0 ROOT
