@<TRIPOS>MOLECULE
CBF
   29    29     1     0     0
SMALL
bcc


@<TRIPOS>ATOM
      1 O6          0.0070    0.9100    0.4430 oh        1 CBF     -0.597800
      2 C6          1.2660    0.3420    0.1370 c3        1 CBF      0.138400
      3 C5          1.9780    0.1490    1.4800 c3        1 CBF      0.106100
      4 O5          1.4960   -1.1310    1.9520 os        1 CBF     -0.413600
      5 C1          2.0860   -1.5840    3.1420 c3        1 CBF      0.310600
      6 O1          1.6230   -0.7840    4.1970 oh        1 CBF     -0.617800
      7 C7          1.5730   -3.0310    3.3500 c         1 CBF      0.523100
      8 O7          1.1200   -3.8150    2.5420 o         1 CBF     -0.364100
      9 N1          1.7190   -3.5080    4.7730 n4        1 CBF     -0.753400
     10 C2          3.6330   -1.6290    3.0830 c3        1 CBF      0.132100
     11 O2          4.1050   -2.0690    4.3390 oh        1 CBF     -0.644800
     12 C3          4.1420   -0.2350    2.6960 c3        1 CBF      0.119100
     13 O3          5.5460   -0.3480    2.5990 oh        1 CBF     -0.598800
     14 C4          3.5070    0.1630    1.3480 c3        1 CBF      0.083100
     15 O4          3.9750    1.4760    1.1050 oh        1 CBF     -0.581800
     16 HO6        -0.5020    0.9330   -0.3780 ho        1 CBF      0.428000
     17 H61         1.1460   -0.6410   -0.3900 h1        1 CBF      0.053200
     18 H62         1.8640    1.0480   -0.4990 h1        1 CBF      0.053200
     19 H5          1.6500    0.9450    2.2080 h1        1 CBF      0.096700
     20 HO1         0.8440   -0.2820    3.8980 ho        1 CBF      0.468000
     21 HN11        1.3030   -2.8050    5.3980 hn        1 CBF      0.480133
     22 HN12        2.7250   -3.5710    4.9960 hn        1 CBF      0.480133
     23 H2          3.9410   -2.3810    2.2990 h1        1 CBF      0.093700
     24 HO2         4.9750   -1.6640    4.4900 ho        1 CBF      0.478000
     25 H3          3.8660    0.5180    3.4880 h1        1 CBF      0.088700
     26 HO3         5.8760    0.5060    2.2790 ho        1 CBF      0.453000
     27 H4          3.8420   -0.5410    0.5370 h1        1 CBF      0.075700
     28 HO4         3.8000    1.6860    0.1790 ho        1 CBF      0.430000
     29 H13         1.2710   -4.4180    4.9120 hn        1 CBF      0.480133
@<TRIPOS>BOND
     1    1    2 1   
     2    1   16 1   
     3    2    3 1   
     4    2   17 1   
     5    2   18 1   
     6    3    4 1   
     7    3   14 1   
     8    3   19 1   
     9    4    5 1   
    10    5    6 1   
    11    5    7 1   
    12    5   10 1   
    13    6   20 1   
    14    7    8 2   
    15    7    9 1   
    16    9   21 1   
    17    9   22 1   
    18    9   29 1   
    19   10   11 1   
    20   10   12 1   
    21   10   23 1   
    22   11   24 1   
    23   12   13 1   
    24   12   14 1   
    25   12   25 1   
    26   13   26 1   
    27   14   15 1   
    28   14   27 1   
    29   15   28 1   
@<TRIPOS>SUBSTRUCTURE
     1 CBF         1 TEMP              0 ****  ****    0 ROOT
