@<TRIPOS>MOLECULE
CBG
   10     9     1     0     0
SMALL
bcc


@<TRIPOS>ATOM
      1 C1         -0.6850    0.2150    0.3360 c         1 CBG      0.564900
      2 O1         -1.8120   -0.1700    0.0230 o         1 CBG     -0.528100
      3 C2          0.5560   -0.5760    0.0550 c3        1 CBG     -0.204400
      4 C3          1.7600    0.3100   -0.1250 c3        1 CBG     -0.092100
      5 H11        -0.5260    1.1840    0.8620 h4        1 CBG     -0.006800
      6 H21         0.4010   -1.2120   -0.8570 hc        1 CBG      0.073200
      7 H22         0.7170   -1.2740    0.9210 hc        1 CBG      0.073200
      8 H31         1.9350    0.9330    0.7860 hc        1 CBG      0.040033
      9 H32         2.6690   -0.3120   -0.3070 hc        1 CBG      0.040033
     10 H33         1.6210    0.9940   -0.9970 hc        1 CBG      0.040033
@<TRIPOS>BOND
     1    1    2 2   
     2    1    3 1   
     3    1    5 1   
     4    3    4 1   
     5    3    6 1   
     6    3    7 1   
     7    4    8 1   
     8    4    9 1   
     9    4   10 1   
@<TRIPOS>SUBSTRUCTURE
     1 CBG         1 TEMP              0 ****  ****    0 ROOT
