@<TRIPOS>MOLECULE
CBG
   10     8     1     0     0
SMALL
bcc


@<TRIPOS>ATOM
      1 C1          0.7250   -0.5500   -1.0230 c1        1 CBG      0.183000
      2 O1          1.9420   -0.5500   -1.0230 o         1 CBG     -0.289000
      3 C2         -0.0310   -0.5500    0.2870 c2        1 CBG     -0.233000
      4 C3         -0.5810    0.8340    0.5520 c3        1 CBG     -0.210000
      5 H11         0.2370   -0.5840   -1.8680 ha        1 CBG      0.086000
      6 H21         0.5720   -0.8060    1.0110 ha        1 CBG      0.112500
      7 H22        -0.7680   -1.1890    0.2370 ha        1 CBG      0.112500
      8 H31         0.1540    1.4770    0.5750 hc        1 CBG      0.079333
      9 H32        -1.2050    1.0780   -0.1580 hc        1 CBG      0.079333
     10 H33        -1.0450    0.8410    1.4110 hc        1 CBG      0.079333
@<TRIPOS>BOND
     1    1    2 1   
     2    1    5 1   
     3    3    4 1   
     4    3    6 1   
     5    3    7 1   
     6    4    8 1   
     7    4    9 1   
     8    4   10 1   
@<TRIPOS>SUBSTRUCTURE
     1 CBG         1 TEMP              0 ****  ****    0 ROOT
