@<TRIPOS>MOLECULE
CBG
   10     9     1     0     0
SMALL
bcc


@<TRIPOS>ATOM
      1 C1          0.0410    0.0090    0.0150 c         1 CBG      0.564900
      2 O1          1.2140   -0.3550   -0.0760 o         1 CBG     -0.528100
      3 C2         -0.6980    0.0690    1.3160 c3        1 CBG     -0.204400
      4 C3         -1.7690    1.1270    1.3070 c3        1 CBG     -0.092100
      5 H11        -0.5450    0.3100   -0.8840 h4        1 CBG     -0.006800
      6 H21         0.0250    0.2540    2.1550 hc        1 CBG      0.073200
      7 H22        -1.1570   -0.9420    1.4930 hc        1 CBG      0.073200
      8 H31        -1.3230    2.1400    1.1540 hc        1 CBG      0.040033
      9 H32        -2.3160    1.1270    2.2810 hc        1 CBG      0.040033
     10 H33        -2.5060    0.9410    0.4890 hc        1 CBG      0.040033
@<TRIPOS>BOND
     1    1    2 2   
     2    1    3 1   
     3    1    5 1   
     4    3    4 1   
     5    3    6 1   
     6    3    7 1   
     7    4    8 1   
     8    4    9 1   
     9    4   10 1   
@<TRIPOS>SUBSTRUCTURE
     1 CBG         1 TEMP              0 ****  ****    0 ROOT
