@<TRIPOS>MOLECULE
CBG
   10     9     1     0     0
SMALL
bcc


@<TRIPOS>ATOM
      1 C1          0.0270   -0.0110    0.0110 c         1 CBG      0.564900
      2 O1          1.1910   -0.4020   -0.0850 o         1 CBG     -0.528100
      3 C2         -0.7040    0.0650    1.3150 c3        1 CBG     -0.204400
      4 C3         -1.7530    1.1450    1.3100 c3        1 CBG     -0.092100
      5 H11        -0.5560    0.3010   -0.8850 h4        1 CBG     -0.006800
      6 H21         0.0260    0.2360    2.1500 hc        1 CBG      0.073200
      7 H22        -1.1840   -0.9360    1.4960 hc        1 CBG      0.073200
      8 H31        -1.2870    2.1480    1.1540 hc        1 CBG      0.040033
      9 H32        -2.2950    1.1580    2.2870 hc        1 CBG      0.040033
     10 H33        -2.4980    0.9740    0.4960 hc        1 CBG      0.040033
@<TRIPOS>BOND
     1    1    2 2   
     2    1    3 1   
     3    1    5 1   
     4    3    4 1   
     5    3    6 1   
     6    3    7 1   
     7    4    8 1   
     8    4    9 1   
     9    4   10 1   
@<TRIPOS>SUBSTRUCTURE
     1 CBG         1 TEMP              0 ****  ****    0 ROOT
