@<TRIPOS>MOLECULE
CBH
   31    30     1     0     0
SMALL
bcc


@<TRIPOS>ATOM
      1 O11         2.7810   -0.6110    0.4920 o         1 CBH     -0.800300
      2 C12         3.8990   -0.1910    0.8660 c         1 CBH      0.920600
      3 O13         4.9830   -0.2320    0.2230 o         1 CBH     -0.800300
      4 C14         3.9660    0.4170    2.3260 c3        1 CBH     -0.032500
      5 N15         5.3050    1.0060    2.5950 n4        1 CBH     -0.851600
      6 C16         2.8290    1.4100    2.5350 c3        1 CBH     -0.072400
      7 C17         2.6270    1.7290    3.9950 c3        1 CBH     -0.018300
      8 S18         1.4430    3.0460    4.1320 ss        1 CBH     -0.351200
      9 C19         1.8970    3.9090    5.6130 c3        1 CBH      0.005700
     10 C20         3.3200    4.4090    5.6600 c3        1 CBH     -0.094400
     11 C21         4.1640    3.6830    6.6920 c3        1 CBH     -0.065400
     12 C22         5.6340    3.6960    6.3230 c3        1 CBH     -0.169400
     13 C23         5.8650    2.7990    5.1180 c         1 CBH      0.900600
     14 O25         5.9110    1.5360    5.2720 o         1 CBH     -0.867300
     15 O24         5.9620    3.3100    3.9580 o         1 CBH     -0.867300
     16 H14         3.8330   -0.4500    3.0340 hx        1 CBH      0.074700
     17 H151        5.6520    0.7540    3.5380 hn        1 CBH      0.463800
     18 H152        5.2760    2.0380    2.5720 hn        1 CBH      0.463800
     19 H161        3.0190    2.3530    1.9560 hc        1 CBH      0.080700
     20 H162        1.9050    0.9350    2.1020 hc        1 CBH      0.080700
     21 H171        3.5920    2.0320    4.4790 h1        1 CBH      0.076700
     22 H172        2.2400    0.8330    4.5370 h1        1 CBH      0.076700
     23 H191        1.1800    4.7690    5.6290 h1        1 CBH      0.055700
     24 H192        1.6760    3.2660    6.5000 h1        1 CBH      0.055700
     25 H201        3.3220    5.5060    5.8950 hc        1 CBH      0.062700
     26 H102        3.8020    4.2980    4.6470 hc        1 CBH      0.062700
     27 H211        3.8330    2.6130    6.7810 hc        1 CBH      0.031200
     28 H212        4.0210    4.1610    7.6960 hc        1 CBH      0.031200
     29 H221        5.9660    4.7370    6.0850 hc        1 CBH      0.040200
     30 H222        6.2400    3.3140    7.1830 hc        1 CBH      0.040200
     31 H153        5.9490    0.6700    1.8670 hn        1 CBH      0.463800
@<TRIPOS>BOND
     1    1    2 1   
     2    2    3 1   
     3    2    4 1   
     4    4    5 1   
     5    4    6 1   
     6    4   16 1   
     7    5   17 1   
     8    5   18 1   
     9    5   31 1   
    10    6    7 1   
    11    6   19 1   
    12    6   20 1   
    13    7    8 1   
    14    7   21 1   
    15    7   22 1   
    16    8    9 1   
    17    9   10 1   
    18    9   23 1   
    19    9   24 1   
    20   10   11 1   
    21   10   25 1   
    22   10   26 1   
    23   11   12 1   
    24   11   27 1   
    25   11   28 1   
    26   12   13 1   
    27   12   29 1   
    28   12   30 1   
    29   13   14 1   
    30   13   15 1   
@<TRIPOS>SUBSTRUCTURE
     1 CBH         1 TEMP              0 ****  ****    0 ROOT
