@<TRIPOS>MOLECULE
CBH
   31    30     1     0     0
SMALL
bcc


@<TRIPOS>ATOM
      1 O11         3.4350   -1.0750    0.8710 o         1 CBH     -0.792800
      2 C12         4.1250   -0.0800    1.1820 c         1 CBH      0.927600
      3 O13         5.0050    0.5010    0.4950 o         1 CBH     -0.792800
      4 C14         3.8330    0.5280    2.6230 c3        1 CBH     -0.045500
      5 N15         4.7910    1.6150    2.9530 n4        1 CBH     -0.871600
      6 C16         2.3740    0.9650    2.6250 c3        1 CBH     -0.079400
      7 C17         1.9240    1.6420    3.8930 c3        1 CBH     -0.010300
      8 S18         2.1120    3.3910    3.6260 ss        1 CBH     -0.363200
      9 C19         2.1600    4.1030    5.2520 c3        1 CBH     -0.002300
     10 C20         3.5470    4.5690    5.6170 c3        1 CBH     -0.081400
     11 C21         4.4390    3.4290    6.0690 c3        1 CBH     -0.072400
     12 C22         5.8770    3.6170    5.6500 c3        1 CBH     -0.202400
     13 C23         6.6750    2.3350    5.9190 c         1 CBH      0.911600
     14 O25         7.5810    2.3480    6.7870 o         1 CBH     -0.830800
     15 O24         6.3810    1.2920    5.2410 o         1 CBH     -0.830800
     16 H14         3.9890   -0.2960    3.3740 hx        1 CBH      0.093700
     17 H151        4.3000    2.5080    3.0540 hn        1 CBH      0.461467
     18 H152        5.3180    1.4140    3.8450 hn        1 CBH      0.461467
     19 H161        1.7740    0.0290    2.4500 hc        1 CBH      0.083200
     20 H162        2.1820    1.6390    1.7440 hc        1 CBH      0.083200
     21 H171        0.8490    1.4190    4.0960 h1        1 CBH      0.066700
     22 H172        2.5160    1.3010    4.7760 h1        1 CBH      0.066700
     23 H191        1.7760    3.3750    6.0060 h1        1 CBH      0.064200
     24 H192        1.4610    4.9750    5.2190 h1        1 CBH      0.064200
     25 H201        4.0030    5.0890    4.7320 hc        1 CBH      0.043700
     26 H102        3.4720    5.3310    6.4380 hc        1 CBH      0.043700
     27 H211        4.0720    2.4570    5.6410 hc        1 CBH      0.041200
     28 H212        4.3870    3.3290    7.1850 hc        1 CBH      0.041200
     29 H221        6.3390    4.4680    6.2090 hc        1 CBH      0.030200
     30 H222        5.9340    3.8490    4.5550 hc        1 CBH      0.030200
     31 H153        5.4630    1.6790    2.1720 hn        1 CBH      0.461467
@<TRIPOS>BOND
     1    1    2 1   
     2    2    3 1   
     3    2    4 1   
     4    4    5 1   
     5    4    6 1   
     6    4   16 1   
     7    5   17 1   
     8    5   18 1   
     9    5   31 1   
    10    6    7 1   
    11    6   19 1   
    12    6   20 1   
    13    7    8 1   
    14    7   21 1   
    15    7   22 1   
    16    8    9 1   
    17    9   10 1   
    18    9   23 1   
    19    9   24 1   
    20   10   11 1   
    21   10   25 1   
    22   10   26 1   
    23   11   12 1   
    24   11   27 1   
    25   11   28 1   
    26   12   13 1   
    27   12   29 1   
    28   12   30 1   
    29   13   14 1   
    30   13   15 1   
@<TRIPOS>SUBSTRUCTURE
     1 CBH         1 TEMP              0 ****  ****    0 ROOT
