@<TRIPOS>MOLECULE
CBH
   31    30     1     0     0
SMALL
bcc


@<TRIPOS>ATOM
      1 O11         2.5910   -0.9040    0.8130 o         1 CBH     -0.800300
      2 C12         3.7340   -0.5330    1.1590 c         1 CBH      0.920600
      3 O13         4.8180   -0.7280    0.5450 o         1 CBH     -0.800300
      4 C14         3.8350    0.2250    2.5450 c3        1 CBH     -0.032500
      5 N15         5.2140    0.7350    2.7720 nz        1 CBH     -0.851600
      6 C16         2.7770    1.3200    2.6240 c3        1 CBH     -0.072400
      7 C17         2.5870    1.8120    4.0370 c3        1 CBH     -0.018300
      8 S18         1.5080    3.2220    4.0080 ss        1 CBH     -0.351200
      9 C19         2.0140    4.2060    5.3940 c3        1 CBH      0.005700
     10 C20         3.4720    4.5980    5.4110 c3        1 CBH     -0.094400
     11 C21         4.2470    3.9290    6.5310 c3        1 CBH     -0.065400
     12 C22         5.7170    3.7880    6.1890 c3        1 CBH     -0.169400
     13 C23         5.8890    2.7480    5.0930 c         1 CBH      0.900600
     14 O25         5.8330    1.5100    5.3860 o         1 CBH     -0.867300
     15 O24         6.0370    3.1180    3.8860 o         1 CBH     -0.867300
     16 H14         3.6280   -0.5470    3.3410 hx        1 CBH      0.074700
     17 H151        5.5310    0.5640    3.7440 hn        1 CBH      0.463800
     18 H152        5.8360    0.2720    2.0980 hn        1 CBH      0.463800
     19 H161        1.8230    0.8720    2.2290 hc        1 CBH      0.080700
     20 H162        3.0470    2.1750    1.9500 hc        1 CBH      0.080700
     21 H171        3.5680    2.0910    4.5030 h1        1 CBH      0.076700
     22 H172        2.1270    1.0120    4.6670 h1        1 CBH      0.076700
     23 H191        1.3670    5.1140    5.3030 h1        1 CBH      0.055700
     24 H192        1.7370    3.6840    6.3420 h1        1 CBH      0.055700
     25 H201        3.5570    5.7110    5.5240 hc        1 CBH      0.062700
     26 H102        3.9530    4.3390    4.4250 hc        1 CBH      0.062700
     27 H211        4.1330    4.5240    7.4740 hc        1 CBH      0.031200
     28 H212        3.8330    2.9040    6.7310 hc        1 CBH      0.031200
     29 H221        6.1320    4.7680    5.8430 hc        1 CBH      0.040200
     30 H222        6.2840    3.4590    7.0960 hc        1 CBH      0.040200
     31 H153        5.2660    1.7580    2.6360 hn        1 CBH      0.463800
@<TRIPOS>BOND
     1    1    2 1   
     2    2    3 1   
     3    2    4 1   
     4    4    5 1   
     5    4    6 1   
     6    4   16 1   
     7    5   17 1   
     8    5   18 1   
     9    5   31 1   
    10    6    7 1   
    11    6   19 1   
    12    6   20 1   
    13    7    8 1   
    14    7   21 1   
    15    7   22 1   
    16    8    9 1   
    17    9   10 1   
    18    9   23 1   
    19    9   24 1   
    20   10   11 1   
    21   10   25 1   
    22   10   26 1   
    23   11   12 1   
    24   11   27 1   
    25   11   28 1   
    26   12   13 1   
    27   12   29 1   
    28   12   30 1   
    29   13   14 1   
    30   13   15 1   
@<TRIPOS>SUBSTRUCTURE
     1 CBH         1 TEMP              0 ****  ****    0 ROOT
