@<TRIPOS>MOLECULE
CBH
   30    29     1     0     0
SMALL
bcc


@<TRIPOS>ATOM
      1 O11        -1.2060    0.8520    5.5150 o         1 CBH     -0.848300
      2 C12        -0.1880    0.1140    5.4130 c         1 CBH      0.887600
      3 O13         0.2200   -0.6610    6.3280 o         1 CBH     -0.848300
      4 C14         0.6410    0.1930    4.0880 c3        1 CBH      0.023500
      5 N15         1.8420   -0.6340    4.0840 n3        1 CBH     -0.893800
      6 C16        -0.2980   -0.0870    2.9100 c3        1 CBH     -0.057400
      7 C17         0.3450    0.2360    1.5870 c3        1 CBH      0.017700
      8 S18        -0.8200   -0.0960    0.2820 ss        1 CBH     -0.374200
      9 C19         0.1770    0.1860   -1.1600 c3        1 CBH      0.007700
     10 C20        -0.6550   -0.0920   -2.3860 c3        1 CBH     -0.071400
     11 C21         0.1470    0.1030   -3.6590 c3        1 CBH     -0.063400
     12 C22        -0.6730   -0.2060   -4.8880 c3        1 CBH     -0.189400
     13 C23         0.0860    0.1200   -6.1840 c         1 CBH      0.906600
     14 O25         0.6890    1.2290   -6.2800 o         1 CBH     -0.859800
     15 O24         0.0520   -0.7350   -7.1190 o         1 CBH     -0.859800
     16 H14         0.9970    1.2620    4.0040 h1        1 CBH      0.041700
     17 H151        2.2070   -0.6350    5.0230 hn        1 CBH      0.329800
     18 H152        1.5770   -1.5830    3.8840 hn        1 CBH      0.329800
     19 H161       -0.6210   -1.1610    2.9260 hc        1 CBH      0.058200
     20 H162       -1.2150    0.5440    3.0640 hc        1 CBH      0.058200
     21 H171        0.6470    1.3100    1.5530 h1        1 CBH      0.052200
     22 H172        1.2620   -0.3810    1.4270 h1        1 CBH      0.052200
     23 H191        0.5430    1.2410   -1.1680 h1        1 CBH      0.049700
     24 H192        1.0720   -0.4820   -1.1360 h1        1 CBH      0.049700
     25 H201       -1.0440   -1.1440   -2.3470 hc        1 CBH      0.039700
     26 H102       -1.5460    0.5910   -2.3980 hc        1 CBH      0.039700
     27 H211        0.5160    1.1610   -3.7250 hc        1 CBH      0.041700
     28 H212        1.0510   -0.5610   -3.6360 hc        1 CBH      0.041700
     29 H221       -0.9670   -1.2860   -4.8960 hc        1 CBH      0.019700
     30 H222       -1.6120    0.4040   -4.8810 hc        1 CBH      0.019700
@<TRIPOS>BOND
     1    1    2 1   
     2    2    3 1   
     3    2    4 1   
     4    4    5 1   
     5    4    6 1   
     6    4   16 1   
     7    5   17 1   
     8    5   18 1   
     9    6    7 1   
    10    6   19 1   
    11    6   20 1   
    12    7    8 1   
    13    7   21 1   
    14    7   22 1   
    15    8    9 1   
    16    9   10 1   
    17    9   23 1   
    18    9   24 1   
    19   10   11 1   
    20   10   25 1   
    21   10   26 1   
    22   11   12 1   
    23   11   27 1   
    24   11   28 1   
    25   12   13 1   
    26   12   29 1   
    27   12   30 1   
    28   13   14 1   
    29   13   15 1   
@<TRIPOS>SUBSTRUCTURE
     1 CBH         1 TEMP              0 ****  ****    0 ROOT
