@<TRIPOS>MOLECULE
CBI
   45    46     1     0     0
SMALL
bcc


@<TRIPOS>ATOM
      1 C1         -0.5160   -0.0890   -1.1920 c3        1 CBI      0.308900
      2 C2         -1.2810    0.7070   -2.2680 c3        1 CBI      0.086100
      3 C3         -0.9330    0.1320   -3.6490 c3        1 CBI      0.108100
      4 C4          0.5950    0.1120   -3.8380 c3        1 CBI      0.122100
      5 C5          1.2580   -0.6460   -2.6780 c3        1 CBI      0.106100
      6 C6          2.7850   -0.5190   -2.7230 c3        1 CBI      0.149400
      7 O2         -2.6780    0.5440   -2.0980 oh        1 CBI     -0.602800
      8 O3         -1.4530    0.9510   -4.6810 oh        1 CBI     -0.603800
      9 O4          0.9310   -0.5770   -5.0280 oh        1 CBI     -0.593800
     10 O5          0.8810   -0.0700   -1.4250 os        1 CBI     -0.425600
     11 O6          3.3790   -1.1490   -1.6110 oh        1 CBI     -0.603800
     12 C1'        -0.1100    0.2550    4.0680 c3        1 CBI      0.310900
     13 C2'         1.2010    0.2220    3.2630 c3        1 CBI      0.048100
     14 C3'         0.9720    0.6690    1.8080 c3        1 CBI      0.145100
     15 C4'        -0.2200   -0.0810    1.1890 c3        1 CBI      0.126100
     16 C5'        -1.4400   -0.0660    2.1290 c3        1 CBI      0.091100
     17 C6'        -2.5330   -1.0110    1.6170 c3        1 CBI      0.137400
     18 O1'         0.0320   -0.3600    5.3190 oh        1 CBI     -0.591800
     19 O2'         2.1400    1.1310    3.8100 oh        1 CBI     -0.597800
     20 O3'         2.1170    0.3340    1.0410 oh        1 CBI     -0.590800
     21 O4'        -0.6320    0.6340    0.0170 os        1 CBI     -0.412600
     22 O5'        -1.1010   -0.5390    3.4310 os        1 CBI     -0.455600
     23 O6'        -3.7420   -0.8160    2.3140 oh        1 CBI     -0.591800
     24 H1         -0.9010   -1.1420   -1.1000 h2        1 CBI      0.053700
     25 H2         -1.0010    1.7940   -2.2110 h1        1 CBI      0.080700
     26 H3         -1.3520   -0.9080   -3.7460 h1        1 CBI      0.064700
     27 H4          0.9770    1.1700   -3.8850 h1        1 CBI      0.064700
     28 H5          0.9540   -1.7280   -2.7010 h1        1 CBI      0.066700
     29 H61         3.0750    0.5640   -2.7610 h1        1 CBI      0.059200
     30 H62         3.1720   -1.0590   -3.6270 h1        1 CBI      0.059200
     31 HO2        -2.9030    0.9530   -1.2520 ho        1 CBI      0.423000
     32 HO3        -2.4060    1.0120   -4.5310 ho        1 CBI      0.427000
     33 HO4         0.4530   -0.1340   -5.7430 ho        1 CBI      0.425000
     34 HO6         3.0150   -0.7320   -0.8150 ho        1 CBI      0.427000
     35 H1'        -0.4630    1.3060    4.2580 h2        1 CBI      0.091700
     36 H2'         1.6290   -0.8190    3.2760 h1        1 CBI      0.062700
     37 H3'         0.7900    1.7780    1.7690 h1        1 CBI      0.070700
     38 H4'         0.0890   -1.1320    0.9440 h1        1 CBI      0.082700
     39 H5'        -1.8450    0.9820    2.2080 h1        1 CBI      0.073700
     40 H6'1       -2.7630   -0.7620    0.5450 h1        1 CBI      0.058200
     41 H6'2       -2.1930   -2.0770    1.7060 h1        1 CBI      0.058200
     42 HO1'        0.0200   -1.3190    5.1870 ho        1 CBI      0.426000
     43 HO2'        2.2240    0.9110    4.7480 ho        1 CBI      0.422000
     44 HO3'        2.8440    0.8620    1.3980 ho        1 CBI      0.421000
     45 HO6'       -3.5640   -0.9940    3.2470 ho        1 CBI      0.415000
@<TRIPOS>BOND
     1    1    2 1   
     2    1   10 1   
     3    1   21 1   
     4    1   24 1   
     5    2    3 1   
     6    2    7 1   
     7    2   25 1   
     8    3    4 1   
     9    3    8 1   
    10    3   26 1   
    11    4    5 1   
    12    4    9 1   
    13    4   27 1   
    14    5    6 1   
    15    5   10 1   
    16    5   28 1   
    17    6   11 1   
    18    6   29 1   
    19    6   30 1   
    20    7   31 1   
    21    8   32 1   
    22    9   33 1   
    23   11   34 1   
    24   12   13 1   
    25   12   18 1   
    26   12   22 1   
    27   12   35 1   
    28   13   14 1   
    29   13   19 1   
    30   13   36 1   
    31   14   15 1   
    32   14   20 1   
    33   14   37 1   
    34   15   16 1   
    35   15   21 1   
    36   15   38 1   
    37   16   17 1   
    38   16   22 1   
    39   16   39 1   
    40   17   23 1   
    41   17   40 1   
    42   17   41 1   
    43   18   42 1   
    44   19   43 1   
    45   20   44 1   
    46   23   45 1   
@<TRIPOS>SUBSTRUCTURE
     1 CBI         1 TEMP              0 ****  ****    0 ROOT
