@<TRIPOS>MOLECULE
CBI
   45    46     1     0     0
SMALL
bcc


@<TRIPOS>ATOM
      1 C1          0.8050   -0.2620    0.2700 c3        1 CBI      0.335900
      2 C2          2.2720   -0.6150    0.3740 c3        1 CBI      0.121100
      3 C3          2.7350   -0.6830    1.7760 c3        1 CBI      0.071100
      4 C4          2.3790    0.5510    2.5540 c3        1 CBI      0.075100
      5 C5          0.9110    0.8990    2.4410 c3        1 CBI      0.107100
      6 C6          0.6740    2.2270    3.0900 c3        1 CBI      0.143400
      7 O2          2.4860   -1.8990   -0.2440 oh        1 CBI     -0.601800
      8 O3          4.1820   -0.8420    1.7820 oh        1 CBI     -0.601800
      9 O4          2.7010    0.3360    3.9360 oh        1 CBI     -0.603800
     10 O5          0.4550    0.9600    1.0490 os        1 CBI     -0.411600
     11 O6          0.4510    2.0450    4.4550 oh        1 CBI     -0.596800
     12 C1'        -3.2580   -0.3340   -2.0890 c3        1 CBI      0.305900
     13 C2'        -2.8840    1.0200   -2.0000 c3        1 CBI      0.077100
     14 C3'        -1.4320    1.1600   -1.7810 c3        1 CBI      0.158100
     15 C4'        -0.7490   -0.1820   -1.2230 c3        1 CBI      0.127100
     16 C5'        -1.1000   -1.1090   -2.4810 c3        1 CBI      0.063100
     17 C6'        -0.5140   -2.3990   -2.2780 c3        1 CBI      0.097400
     18 O1'        -3.4440   -0.8400   -0.5600 oh        1 CBI     -0.647800
     19 O2'        -3.2550    1.7170   -3.2740 oh        1 CBI     -0.600800
     20 O3'        -1.2130    2.1940   -0.8610 oh        1 CBI     -0.588800
     21 O4'         0.4810   -0.0510   -1.0710 os        1 CBI     -0.383600
     22 O5'        -2.5560   -1.2750   -2.6990 os        1 CBI     -0.423600
     23 O6'        -1.0170   -3.3070   -3.2460 oh        1 CBI     -0.594800
     24 H1          0.2710   -1.0190    0.6100 h2        1 CBI      0.055700
     25 H2          2.7970    0.0600   -0.1020 h1        1 CBI      0.085700
     26 H3          2.3210   -1.4740    2.2150 h1        1 CBI      0.064700
     27 H4          2.9120    1.3060    2.2170 h1        1 CBI      0.070700
     28 H5          0.4050    0.2410    2.8990 h1        1 CBI      0.064700
     29 H61         1.4410    2.7850    2.9640 h1        1 CBI      0.062200
     30 H62        -0.1110    2.6540    2.6850 h1        1 CBI      0.062200
     31 HO2         3.3270   -1.9460   -0.5500 ho        1 CBI      0.425000
     32 HO3         4.3960   -1.6000    2.1940 ho        1 CBI      0.410000
     33 HO4         3.5270    0.6760    4.1120 ho        1 CBI      0.412000
     34 HO6         0.4150    2.8260    4.8510 ho        1 CBI      0.415000
     35 H1'        -4.1520   -0.3450   -2.5060 h2        1 CBI      0.087700
     36 H2'        -3.3640    1.4380   -1.2530 h1        1 CBI      0.072700
     37 H3'        -1.0120    1.3960   -2.6200 h1        1 CBI      0.080700
     38 H4'        -1.1850   -0.4980   -0.4090 h1        1 CBI      0.080700
     39 H5'        -0.7100   -0.7120   -3.2760 h1        1 CBI      0.109700
     40 H6'1        0.4750   -2.3330   -2.3680 h1        1 CBI      0.058700
     41 H6'2       -0.7350   -2.7150   -1.3940 h1        1 CBI      0.058700
     42 HO1'       -4.2620   -1.1830   -0.4560 ho        1 CBI      0.447000
     43 HO2'       -4.0490    2.1600   -3.1600 ho        1 CBI      0.420000
     44 HO3'       -1.3470    2.9740   -1.2580 ho        1 CBI      0.421000
     45 HO6'       -0.4690   -4.0050   -3.3120 ho        1 CBI      0.407000
@<TRIPOS>BOND
     1    1    2 1   
     2    1   10 1   
     3    1   21 1   
     4    1   24 1   
     5    2    3 1   
     6    2    7 1   
     7    2   25 1   
     8    3    4 1   
     9    3    8 1   
    10    3   26 1   
    11    4    5 1   
    12    4    9 1   
    13    4   27 1   
    14    5    6 1   
    15    5   10 1   
    16    5   28 1   
    17    6   11 1   
    18    6   29 1   
    19    6   30 1   
    20    7   31 1   
    21    8   32 1   
    22    9   33 1   
    23   11   34 1   
    24   12   13 1   
    25   12   18 1   
    26   12   22 1   
    27   12   35 1   
    28   13   14 1   
    29   13   19 1   
    30   13   36 1   
    31   14   15 1   
    32   14   20 1   
    33   14   37 1   
    34   15   16 1   
    35   15   21 1   
    36   15   38 1   
    37   16   17 1   
    38   16   22 1   
    39   16   39 1   
    40   17   23 1   
    41   17   40 1   
    42   17   41 1   
    43   18   42 1   
    44   19   43 1   
    45   20   44 1   
    46   23   45 1   
@<TRIPOS>SUBSTRUCTURE
     1 CBI         1 TEMP              0 ****  ****    0 ROOT
