@<TRIPOS>MOLECULE
CBJ
   37    40     1     0     0
SMALL
bcc


@<TRIPOS>ATOM
      1 O1          0.2020    0.2100    1.0330 o         1 CBJ     -0.565500
      2 C2          1.3500    0.1190    0.5920 c         1 CBJ      0.597500
      3 C3          2.6630    0.1010    1.4260 c         1 CBJ      0.528700
      4 O4          2.7190    0.1480    2.6470 o         1 CBJ     -0.482100
      5 C5          3.7280    0.0130    0.4180 ca        1 CBJ     -0.267600
      6 C6          5.1050   -0.0200    0.5520 ca        1 CBJ     -0.010000
      7 C7          5.8870   -0.0940   -0.6060 ca        1 CBJ     -0.091900
      8 BR8         7.7560   -0.1470   -0.4540 br        1 CBJ     -0.117100
      9 C9          5.2880   -0.1250   -1.8720 ca        1 CBJ     -0.039000
     10 C10         3.9040   -0.0920   -2.0320 ca        1 CBJ     -0.161000
     11 C11         3.1120   -0.0310   -0.8810 ca        1 CBJ      0.122600
     12 N12         1.7070   -0.0250   -0.7660 n         1 CBJ     -0.361000
     13 C13         0.7960    0.0880   -1.8810 c3        1 CBJ      0.141300
     14 C14         0.6700    1.4640   -2.4730 ca        1 CBJ     -0.124300
     15 C15         0.3140    2.5360   -1.6450 ca        1 CBJ     -0.126000
     16 C16         0.1730    3.8200   -2.1550 ca        1 CBJ     -0.153000
     17 C17         0.3970    4.0270   -3.5230 ca        1 CBJ      0.046100
     18 O18         0.2160    5.3220   -3.9950 os        1 CBJ     -0.332900
     19 C19         0.7190    5.5270   -5.3170 c3        1 CBJ      0.092400
     20 C20         0.4110    4.3420   -6.2190 c3        1 CBJ      0.090400
     21 O21         1.0110    3.1530   -5.7080 os        1 CBJ     -0.283900
     22 C22         0.7390    2.9500   -4.3600 ca        1 CBJ      0.062100
     23 C23         0.8660    1.6480   -3.8480 ca        1 CBJ     -0.070600
     24 C24         1.1600    0.4690   -4.7750 c         1 CBJ      0.923200
     25 O25         0.2230    0.0520   -5.5010 o         1 CBJ     -0.817300
     26 O26         2.3150   -0.0460   -4.7280 o         1 CBJ     -0.817300
     27 H6          5.5610    0.0140    1.5540 ha        1 CBJ      0.149000
     28 H9          5.9150   -0.1750   -2.7790 ha        1 CBJ      0.153000
     29 H10         3.4440   -0.0990   -3.0480 ha        1 CBJ      0.243000
     30 H13        -0.2180   -0.2370   -1.5050 h1        1 CBJ      0.093200
     31 H13A        1.1470   -0.6360   -2.6780 h1        1 CBJ      0.093200
     32 H15         0.1330    2.3560   -0.5730 ha        1 CBJ      0.128000
     33 H16        -0.1090    4.6650   -1.5150 ha        1 CBJ      0.132000
     34 H19         1.8270    5.6950   -5.2550 h1        1 CBJ      0.052700
     35 H19A        0.2010    6.4570   -5.6660 h1        1 CBJ      0.052700
     36 H20         0.8730    4.4670   -7.2320 h1        1 CBJ      0.060700
     37 H20A       -0.6960    4.1910   -6.3090 h1        1 CBJ      0.060700
@<TRIPOS>BOND
     1    1    2 2   
     2    2    3 1   
     3    2   12 1   
     4    3    4 2   
     5    3    5 1   
     6    5    6 ar  
     7    5   11 ar  
     8    6    7 ar  
     9    6   27 1   
    10    7    8 1   
    11    7    9 ar  
    12    9   10 ar  
    13    9   28 1   
    14   10   11 ar  
    15   10   29 1   
    16   11   12 1   
    17   12   13 1   
    18   13   14 1   
    19   13   30 1   
    20   13   31 1   
    21   14   15 ar  
    22   14   23 ar  
    23   15   16 ar  
    24   15   32 1   
    25   16   17 ar  
    26   16   33 1   
    27   17   18 1   
    28   17   22 ar  
    29   18   19 1   
    30   19   20 1   
    31   19   34 1   
    32   19   35 1   
    33   20   21 1   
    34   20   36 1   
    35   20   37 1   
    36   21   22 1   
    37   22   23 ar  
    38   23   24 1   
    39   24   25 1   
    40   24   26 1   
@<TRIPOS>SUBSTRUCTURE
     1 CBJ         1 TEMP              0 ****  ****    0 ROOT
