@<TRIPOS>MOLECULE
CBJ
   37    36     1     0     0
SMALL
bcc


@<TRIPOS>ATOM
      1 O1          1.6910   -0.4310    2.4230 o         1 CBJ     -0.290000
      2 C2          1.7960    0.6620    1.9070 c1        1 CBJ      0.255000
      3 C3          2.9940    1.4930    1.8950 c1        1 CBJ      0.269000
      4 O4          4.0680    1.2230    2.4320 o         1 CBJ     -0.243000
      5 C5          2.6900    2.7210    1.1210 c2        1 CBJ     -0.247000
      6 C6          3.4130    3.8930    0.9340 c2        1 CBJ     -0.010000
      7 C7          2.8180    4.9890    0.3080 c1        1 CBJ     -0.232000
      8 BR8         3.7560    6.5570   -0.2370 br        1 CBJ      0.023000
      9 C9          1.4730    4.9060   -0.1370 c2        1 CBJ     -0.039000
     10 C10         0.7540    3.7370    0.0500 c1        1 CBJ     -0.161000
     11 C11         1.3550    2.6380    0.6790 c1        1 CBJ      0.130000
     12 N12         0.7810    1.3420    1.1710 n3        1 CBJ     -0.264000
     13 C13        -0.5800    0.8910    0.9790 c3        1 CBJ      0.018000
     14 C14        -0.5760   -0.4940    0.2640 c2        1 CBJ     -0.117000
     15 C15         0.5840   -1.3370    0.3480 c2        1 CBJ     -0.126000
     16 C16         0.5360   -2.6520   -0.1430 c1        1 CBJ     -0.153000
     17 C17        -0.6350   -3.1430   -0.7110 c1        1 CBJ      0.001000
     18 O18        -0.7180   -4.4880   -1.3310 os        1 CBJ     -0.216000
     19 C19        -1.7890   -4.7570   -2.0280 c3        1 CBJ     -0.058000
     20 C20        -3.0540   -4.1850   -1.5460 c3        1 CBJ     -0.060000
     21 O21        -3.0670   -2.8940   -1.3260 os        1 CBJ     -0.167000
     22 C22        -1.8180   -2.2850   -0.7970 c2        1 CBJ      0.017000
     23 C23        -1.7670   -0.9870   -0.3110 c2        1 CBJ     -0.050000
     24 C24        -2.9880   -0.1060   -0.3830 c2        1 CBJ      0.372000
     25 O25        -3.9500   -0.3060    0.3950 o         1 CBJ     -0.552000
     26 O26        -3.0850    0.7570   -1.2910 o         1 CBJ     -0.552000
     27 H6          4.3190    3.9650    1.2850 ha        1 CBJ      0.149000
     28 H9          1.0890    5.6300   -0.6560 ha        1 CBJ      0.153000
     29 H10        -0.1810    3.6780   -0.2590 ha        1 CBJ      0.243000
     30 H13        -1.0240    0.8070    1.8520 h1        1 CBJ      0.132500
     31 H13A       -1.0670    1.5480    0.4230 h1        1 CBJ      0.132500
     32 H15         1.4140   -0.9790    0.6780 ha        1 CBJ      0.128000
     33 H16         1.3050   -3.2120   -0.0790 ha        1 CBJ      0.132000
     34 H19        -1.8930   -5.7390   -2.0580 h1        1 CBJ      0.092000
     35 H19A       -1.6410   -4.4390   -2.9450 h1        1 CBJ      0.092000
     36 H20        -3.7290   -4.3710   -2.2130 h1        1 CBJ      0.100000
     37 H20A       -3.2740   -4.6320   -0.6950 h1        1 CBJ      0.100000
@<TRIPOS>BOND
     1    1    2 1   
     2    2   12 1   
     3    3    4 1   
     4    3    5 1   
     5    5    6 1   
     6    5   11 1   
     7    6    7 1   
     8    6   27 1   
     9    7    9 1   
    10    9   10 1   
    11    9   28 1   
    12   10   29 1   
    13   11   12 1   
    14   12   13 1   
    15   13   14 1   
    16   13   30 1   
    17   13   31 1   
    18   14   15 1   
    19   14   23 1   
    20   15   16 1   
    21   15   32 1   
    22   16   33 1   
    23   17   18 1   
    24   17   22 1   
    25   18   19 1   
    26   19   20 1   
    27   19   34 1   
    28   19   35 1   
    29   20   21 1   
    30   20   36 1   
    31   20   37 1   
    32   21   22 1   
    33   22   23 1   
    34   23   24 1   
    35   24   25 1   
    36   24   26 1   
@<TRIPOS>SUBSTRUCTURE
     1 CBJ         1 TEMP              0 ****  ****    0 ROOT
