@<TRIPOS>MOLECULE
CBJ
   37    40     1     0     0
SMALL
bcc


@<TRIPOS>ATOM
      1 O1          0.2120    0.4320    1.1220 o         1 CBJ     -0.565500
      2 C2          1.3440    0.2670    0.6620 c         1 CBJ      0.597500
      3 C3          2.6720    0.2140    1.4680 c         1 CBJ      0.528700
      4 O4          2.7590    0.3040    2.6860 o         1 CBJ     -0.482100
      5 C5          3.7090    0.0340    0.4420 ca        1 CBJ     -0.267600
      6 C6          5.0850   -0.0630    0.5500 ca        1 CBJ     -0.010000
      7 C7          5.8370   -0.2210   -0.6210 ca        1 CBJ     -0.091900
      8 BR8         7.7030   -0.3630   -0.5060 br        1 CBJ     -0.117100
      9 C9          5.2080   -0.2690   -1.8720 ca        1 CBJ     -0.039000
     10 C10         3.8240   -0.1710   -2.0040 ca        1 CBJ     -0.161000
     11 C11         3.0620   -0.0270   -0.8400 ca        1 CBJ      0.122600
     12 N12         1.6630    0.0540   -0.6970 n         1 CBJ     -0.361000
     13 C13         0.7340    0.1710   -1.7960 c3        1 CBJ      0.141300
     14 C14         0.6620    1.5280   -2.4380 ca        1 CBJ     -0.124300
     15 C15         0.3770    2.6470   -1.6450 ca        1 CBJ     -0.126000
     16 C16         0.2880    3.9160   -2.2020 ca        1 CBJ     -0.153000
     17 C17         0.4900    4.0590   -3.5810 ca        1 CBJ      0.046100
     18 O18         0.3620    5.3430   -4.1000 os        1 CBJ     -0.332900
     19 C19         0.8450    5.4720   -5.4380 c3        1 CBJ      0.092400
     20 C20         0.4590    4.2710   -6.2870 c3        1 CBJ      0.090400
     21 O21         1.0110    3.0740   -5.7430 os        1 CBJ     -0.283900
     22 C22         0.7600    2.9360   -4.3830 ca        1 CBJ      0.062100
     23 C23         0.8350    1.6500   -3.8240 ca        1 CBJ     -0.070600
     24 C24         1.0500    0.4240   -4.7090 c         1 CBJ      0.923200
     25 O25         0.0770    0.0260   -5.3990 o         1 CBJ     -0.817300
     26 O26         2.1790   -0.1460   -4.6670 o         1 CBJ     -0.817300
     27 H6          5.5650   -0.0150    1.5400 ha        1 CBJ      0.149000
     28 H9          5.8110   -0.3850   -2.7890 ha        1 CBJ      0.153000
     29 H10         3.3410   -0.1940   -3.0090 ha        1 CBJ      0.243000
     30 H13         1.0300   -0.6000   -2.5710 h1        1 CBJ      0.093200
     31 H13A       -0.2870   -0.0890   -1.3870 h1        1 CBJ      0.093200
     32 H15         0.2110    2.5170   -0.5640 ha        1 CBJ      0.128000
     33 H16         0.0620    4.7980   -1.5900 ha        1 CBJ      0.132000
     34 H19         0.3650    6.4130   -5.8130 h1        1 CBJ      0.052700
     35 H19A        1.9600    5.5880   -5.4060 h1        1 CBJ      0.052700
     36 H20         0.9030    4.3350   -7.3140 h1        1 CBJ      0.060700
     37 H20A       -0.6560    4.1730   -6.3480 h1        1 CBJ      0.060700
@<TRIPOS>BOND
     1    1    2 2   
     2    2    3 1   
     3    2   12 1   
     4    3    4 2   
     5    3    5 1   
     6    5    6 ar  
     7    5   11 ar  
     8    6    7 ar  
     9    6   27 1   
    10    7    8 1   
    11    7    9 ar  
    12    9   10 ar  
    13    9   28 1   
    14   10   11 ar  
    15   10   29 1   
    16   11   12 1   
    17   12   13 1   
    18   13   14 1   
    19   13   30 1   
    20   13   31 1   
    21   14   15 ar  
    22   14   23 ar  
    23   15   16 ar  
    24   15   32 1   
    25   16   17 ar  
    26   16   33 1   
    27   17   18 1   
    28   17   22 ar  
    29   18   19 1   
    30   19   20 1   
    31   19   34 1   
    32   19   35 1   
    33   20   21 1   
    34   20   36 1   
    35   20   37 1   
    36   21   22 1   
    37   22   23 ar  
    38   23   24 1   
    39   24   25 1   
    40   24   26 1   
@<TRIPOS>SUBSTRUCTURE
     1 CBJ         1 TEMP              0 ****  ****    0 ROOT
