@<TRIPOS>MOLECULE
CBJ
   37    40     1     0     0
SMALL
bcc


@<TRIPOS>ATOM
      1 O1          0.3540   -3.3850    1.8270 o         1 CBJ     -0.565500
      2 C2          0.8770   -2.4900    1.1590 c         1 CBJ      0.597500
      3 C3          2.3180   -1.9310    1.3270 c         1 CBJ      0.528700
      4 O4          3.1370   -2.3360    2.1410 o         1 CBJ     -0.482100
      5 C5          2.4140   -0.8710    0.3140 ca        1 CBJ     -0.267600
      6 C6          3.4470   -0.0070   -0.0010 ca        1 CBJ     -0.010000
      7 C7          3.2480    0.9270   -1.0250 ca        1 CBJ     -0.091900
      8 BR8         4.6330    2.1060   -1.4790 br        1 CBJ     -0.117100
      9 C9          2.0260    0.9890   -1.7070 ca        1 CBJ     -0.039000
     10 C10         0.9700    0.1300   -1.4060 ca        1 CBJ     -0.161000
     11 C11         1.1630   -0.8160   -0.3930 ca        1 CBJ      0.122600
     12 N12         0.2820   -1.8120    0.0730 n         1 CBJ     -0.361000
     13 C13        -1.1010   -1.9300   -0.3230 c3        1 CBJ      0.141300
     14 C14        -2.0370   -0.9300    0.2970 ca        1 CBJ     -0.124300
     15 C15        -2.1000   -0.8260    1.6930 ca        1 CBJ     -0.126000
     16 C16        -2.9610    0.0760    2.3050 ca        1 CBJ     -0.153000
     17 C17        -3.7710    0.8850    1.4980 ca        1 CBJ      0.046100
     18 O18        -4.6380    1.7510    2.1540 os        1 CBJ     -0.332900
     19 C19        -5.2270    2.7320    1.2980 c3        1 CBJ      0.092400
     20 C20        -5.6260    2.1340   -0.0420 c3        1 CBJ      0.090400
     21 O21        -4.4840    1.6040   -0.7140 os        1 CBJ     -0.283900
     22 C22        -3.7220    0.7710    0.0980 ca        1 CBJ      0.062100
     23 C23        -2.8630   -0.1510   -0.5230 ca        1 CBJ     -0.070600
     24 C24        -2.8710   -0.3270   -2.0410 c         1 CBJ      0.923200
     25 O25        -3.8400   -0.9440   -2.5510 o         1 CBJ     -0.817300
     26 O26        -1.8820    0.1200   -2.6930 o         1 CBJ     -0.817300
     27 H6          4.3990   -0.0630    0.5500 ha        1 CBJ      0.149000
     28 H9          1.8770    1.7350   -2.5060 ha        1 CBJ      0.153000
     29 H10        -0.0020    0.2050   -1.9460 ha        1 CBJ      0.243000
     30 H13        -1.1390   -1.8350   -1.4510 h1        1 CBJ      0.093200
     31 H13A       -1.4360   -2.9680   -0.0270 h1        1 CBJ      0.093200
     32 H15        -1.4640   -1.4750    2.3150 ha        1 CBJ      0.128000
     33 H16        -3.0200    0.1630    3.3980 ha        1 CBJ      0.132000
     34 H19        -6.1200    3.0940    1.8700 h1        1 CBJ      0.052700
     35 H19A       -4.4920    3.5660    1.1530 h1        1 CBJ      0.052700
     36 H20        -6.3860    1.3210    0.0990 h1        1 CBJ      0.060700
     37 H20A       -6.0150    2.9170   -0.7420 h1        1 CBJ      0.060700
@<TRIPOS>BOND
     1    1    2 2   
     2    2    3 1   
     3    2   12 1   
     4    3    4 2   
     5    3    5 1   
     6    5    6 ar  
     7    5   11 ar  
     8    6    7 ar  
     9    6   27 1   
    10    7    8 1   
    11    7    9 ar  
    12    9   10 ar  
    13    9   28 1   
    14   10   11 ar  
    15   10   29 1   
    16   11   12 1   
    17   12   13 1   
    18   13   14 1   
    19   13   30 1   
    20   13   31 1   
    21   14   15 ar  
    22   14   23 ar  
    23   15   16 ar  
    24   15   32 1   
    25   16   17 ar  
    26   16   33 1   
    27   17   18 1   
    28   17   22 ar  
    29   18   19 1   
    30   19   20 1   
    31   19   34 1   
    32   19   35 1   
    33   20   21 1   
    34   20   36 1   
    35   20   37 1   
    36   21   22 1   
    37   22   23 ar  
    38   23   24 1   
    39   24   25 1   
    40   24   26 1   
@<TRIPOS>SUBSTRUCTURE
     1 CBJ         1 TEMP              0 ****  ****    0 ROOT
