@<TRIPOS>MOLECULE
CBJ
   37    40     1     0     0
SMALL
bcc


@<TRIPOS>ATOM
      1 O1          0.1600    0.1680    0.9930 o         1 CBJ     -0.565500
      2 C2          1.3160    0.0930    0.5720 c         1 CBJ      0.597500
      3 C3          2.6140    0.0830    1.4270 c         1 CBJ      0.528700
      4 O4          2.6490    0.1220    2.6500 o         1 CBJ     -0.482100
      5 C5          3.6980    0.0130    0.4370 ca        1 CBJ     -0.267600
      6 C6          5.0720   -0.0060    0.5950 ca        1 CBJ     -0.010000
      7 C7          5.8750   -0.0650   -0.5500 ca        1 CBJ     -0.091900
      8 Br8         7.7410   -0.1000   -0.3670 br        1 CBJ     -0.117100
      9 C9          5.2980   -0.0940   -1.8260 ca        1 CBJ     -0.039000
     10 C10         3.9160   -0.0740   -2.0100 ca        1 CBJ     -0.161000
     11 C11         3.1040   -0.0290   -0.8720 ca        1 CBJ      0.122600
     12 N12         1.6980   -0.0380   -0.7810 n         1 CBJ     -0.361000
     13 C13         0.8050    0.0720   -1.9100 c3        1 CBJ      0.141300
     14 C14         0.6730    1.4510   -2.4960 ca        1 CBJ     -0.124300
     15 C15         0.2910    2.5130   -1.6670 ca        1 CBJ     -0.126000
     16 C16         0.1450    3.7990   -2.1720 ca        1 CBJ     -0.153000
     17 C17         0.3890    4.0170   -3.5340 ca        1 CBJ      0.046100
     18 O18         0.2010    5.3130   -4.0010 os        1 CBJ     -0.332900
     19 C19         0.7250    5.5320   -5.3120 c3        1 CBJ      0.092400
     20 C20         0.4450    4.3500   -6.2270 c3        1 CBJ      0.090400
     21 O21         1.0500    3.1650   -5.7140 os        1 CBJ     -0.283900
     22 C22         0.7570    2.9500   -4.3720 ca        1 CBJ      0.062100
     23 C23         0.8900    1.6460   -3.8660 ca        1 CBJ     -0.070600
     24 C24         1.2130    0.4770   -4.7950 c         1 CBJ      0.923200
     25 O25         0.2940    0.0540   -5.5400 o         1 CBJ     -0.817300
     26 O26         2.3730   -0.0260   -4.7320 o         1 CBJ     -0.817300
     27 H6          5.5100    0.0250    1.6050 ha        1 CBJ      0.149000
     28 H9          5.9410   -0.1310   -2.7220 ha        1 CBJ      0.153000
     29 H10         3.4740   -0.0790   -3.0330 ha        1 CBJ      0.243000
     30 H13        -0.2120   -0.2660   -1.5540 h1        1 CBJ      0.093200
     31 H13A        1.1770   -0.6430   -2.7060 h1        1 CBJ      0.093200
     32 H15         0.0930    2.3240   -0.6000 ha        1 CBJ      0.128000
     33 H16        -0.1580    4.6370   -1.5310 ha        1 CBJ      0.132000
     34 H19         0.2020    6.4590   -5.6640 h1        1 CBJ      0.052700
     35 H19A        1.8290    5.7130   -5.2300 h1        1 CBJ      0.052700
     36 H20         0.9230    4.4870   -7.2310 h1        1 CBJ      0.060700
     37 H20A       -0.6580    4.1880   -6.3370 h1        1 CBJ      0.060700
@<TRIPOS>BOND
     1    1    2 2   
     2    2    3 1   
     3    2   12 1   
     4    3    4 2   
     5    3    5 1   
     6    5    6 ar  
     7    5   11 ar  
     8    6    7 ar  
     9    6   27 1   
    10    7    8 1   
    11    7    9 ar  
    12    9   10 ar  
    13    9   28 1   
    14   10   11 ar  
    15   10   29 1   
    16   11   12 1   
    17   12   13 1   
    18   13   14 1   
    19   13   30 1   
    20   13   31 1   
    21   14   15 ar  
    22   14   23 ar  
    23   15   16 ar  
    24   15   32 1   
    25   16   17 ar  
    26   16   33 1   
    27   17   18 1   
    28   17   22 ar  
    29   18   19 1   
    30   19   20 1   
    31   19   34 1   
    32   19   35 1   
    33   20   21 1   
    34   20   36 1   
    35   20   37 1   
    36   21   22 1   
    37   22   23 ar  
    38   23   24 1   
    39   24   25 1   
    40   24   26 1   
@<TRIPOS>SUBSTRUCTURE
     1 CBJ         1 TEMP              0 ****  ****    0 ROOT
