@<TRIPOS>MOLECULE
CBK
   45    46     1     0     0
SMALL
bcc


@<TRIPOS>ATOM
      1 C1         -1.0550   -0.6190   -0.1210 c3        1 CBK      0.308900
      2 C2         -1.9880   -1.5040    0.7290 c3        1 CBK      0.086100
      3 O2         -1.6230   -2.8660    0.6030 oh        1 CBK     -0.603800
      4 C3         -3.4190   -1.3760    0.1870 c3        1 CBK      0.108100
      5 O3         -4.3440   -2.0160    1.0480 oh        1 CBK     -0.604800
      6 C4         -3.8270    0.1090    0.1360 c3        1 CBK      0.122100
      7 O4         -5.0710    0.2510   -0.5260 oh        1 CBK     -0.593800
      8 C5         -2.7950    0.9120   -0.6700 c3        1 CBK      0.106100
      9 O5         -1.4850    0.7310   -0.1290 os        1 CBK     -0.425600
     10 C6         -3.0540    2.4200   -0.5680 c3        1 CBK      0.149400
     11 O6         -2.0390    3.1530   -1.2140 oh        1 CBK     -0.604800
     12 C1'         4.0990    0.6080   -0.1660 c3        1 CBK      0.305900
     13 O1'         4.4810    0.2120    1.1300 oh        1 CBK     -0.632800
     14 C2'         3.0930    1.7610   -0.0340 c3        1 CBK      0.091100
     15 O2'         3.6150    2.7970    0.7700 oh        1 CBK     -0.590800
     16 C3'         1.7400    1.2890    0.5280 c3        1 CBK      0.110100
     17 O3'         0.7720    2.3030    0.3090 oh        1 CBK     -0.587800
     18 C4'         1.2520    0.0270   -0.1990 c3        1 CBK      0.135100
     19 O4'         0.1790   -0.5420    0.5620 os        1 CBK     -0.411600
     20 C5'         2.3610   -1.0390   -0.2180 c3        1 CBK      0.083100
     21 O5'         3.5650   -0.5340   -0.8010 os        1 CBK     -0.451600
     22 C6'         1.9550   -2.2340   -1.0860 c3        1 CBK      0.137400
     23 O6'         2.8700   -3.2980   -0.9510 oh        1 CBK     -0.591800
     24 H1         -0.9420   -1.0190   -1.1670 h2        1 CBK      0.052700
     25 H2         -1.9440   -1.1820    1.8060 h1        1 CBK      0.080700
     26 HO2        -0.7420   -2.9530    0.9910 ho        1 CBK      0.423000
     27 H3         -3.4810   -1.8330   -0.8400 h1        1 CBK      0.063700
     28 HO3        -4.0530   -2.9340    1.1310 ho        1 CBK      0.427000
     29 H4         -3.9030    0.5080    1.1850 h1        1 CBK      0.064700
     30 HO4        -5.6970   -0.3130   -0.0520 ho        1 CBK      0.425000
     31 H5         -2.8070    0.5830   -1.7450 h1        1 CBK      0.065700
     32 H6         -4.0060    2.6670   -1.1090 h1        1 CBK      0.058700
     33 H6A        -3.1290    2.7200    0.5100 h1        1 CBK      0.058700
     34 HO6        -1.1990    2.9160   -0.7900 ho        1 CBK      0.428000
     35 HO1'        5.1200   -0.5060    1.0410 ho        1 CBK      0.428000
     36 H2'         2.9390    2.2320   -1.0470 h1        1 CBK      0.102700
     37 HO2'        3.8840    2.4050    1.6130 ho        1 CBK      0.422000
     38 H3'         1.8340    1.0770    1.6290 h1        1 CBK      0.066700
     39 HO3'        1.1180    3.1020    0.7310 ho        1 CBK      0.416000
     40 H4'         0.9240    0.2940   -1.2380 h1        1 CBK      0.080700
     41 H5'         2.5800   -1.3750    0.8340 h1        1 CBK      0.079700
     42 H6'         0.9720   -2.6370   -0.7200 h1        1 CBK      0.057700
     43 H6'A        1.8710   -1.9190   -2.1600 h1        1 CBK      0.057700
     44 HO6'        3.7290   -2.9710   -1.2520 ho        1 CBK      0.411000
     45 H1'         4.9850    0.9010   -0.7980 h2        1 CBK      0.086700
@<TRIPOS>BOND
     1    1    2 1   
     2    1    9 1   
     3    1   19 1   
     4    1   24 1   
     5    2    3 1   
     6    2    4 1   
     7    2   25 1   
     8    3   26 1   
     9    4    5 1   
    10    4    6 1   
    11    4   27 1   
    12    5   28 1   
    13    6    7 1   
    14    6    8 1   
    15    6   29 1   
    16    7   30 1   
    17    8    9 1   
    18    8   10 1   
    19    8   31 1   
    20   10   11 1   
    21   10   32 1   
    22   10   33 1   
    23   11   34 1   
    24   12   13 1   
    25   12   14 1   
    26   12   21 1   
    27   12   45 1   
    28   13   35 1   
    29   14   15 1   
    30   14   16 1   
    31   14   36 1   
    32   15   37 1   
    33   16   17 1   
    34   16   18 1   
    35   16   38 1   
    36   17   39 1   
    37   18   19 1   
    38   18   20 1   
    39   18   40 1   
    40   20   21 1   
    41   20   22 1   
    42   20   41 1   
    43   22   23 1   
    44   22   42 1   
    45   22   43 1   
    46   23   44 1   
@<TRIPOS>SUBSTRUCTURE
     1 CBK         1 TEMP              0 ****  ****    0 ROOT
