@<TRIPOS>MOLECULE
CBK
   45    46     1     0     0
SMALL
bcc


@<TRIPOS>ATOM
      1 C1          1.1160   -0.3460    0.3560 c3        1 CBK      0.342900
      2 C2          2.5880   -0.5840    0.5840 c3        1 CBK      0.128100
      3 O2          2.9410   -1.8540    0.0310 oh        1 CBK     -0.592800
      4 C3          2.9460   -0.5720    2.0280 c3        1 CBK      0.108100
      5 O3          4.3940   -0.6230    2.1530 oh        1 CBK     -0.604800
      6 C4          2.4480    0.6430    2.7190 c3        1 CBK      0.087100
      7 O4          2.6730    0.5000    4.1330 oh        1 CBK     -0.608800
      8 C5          0.9700    0.8780    2.4790 c3        1 CBK      0.117100
      9 O5          0.6230    0.8620    1.0560 os        1 CBK     -0.461600
     10 C6          0.5930    2.2100    3.0590 c3        1 CBK      0.123400
     11 O6          0.3660    2.0730    4.4370 oh        1 CBK     -0.613800
     12 C1'        -3.7890    0.4290   -2.2950 c3        1 CBK      0.308900
     13 O1'        -5.2520    0.1260   -3.1440 oh        1 CBK     -0.619800
     14 C2'        -3.5320    0.8410   -2.5290 c3        1 CBK      0.095100
     15 O2'        -3.2570    0.4450   -4.2940 oh        1 CBK     -0.602800
     16 C3'        -1.8350    1.1130   -1.6800 c3        1 CBK      0.136100
     17 O3'        -1.9760    1.5500   -0.8250 oh        1 CBK     -0.609800
     18 C4'        -0.8150   -0.6020   -1.3820 c3        1 CBK      0.086100
     19 O4'         0.8940   -0.2010   -1.0060 os        1 CBK     -0.392600
     20 C5'        -0.8300   -0.9390   -1.8800 c3        1 CBK      0.089100
     21 O5'        -2.5930   -1.2730   -2.3730 os        1 CBK     -0.444600
     22 C6'         0.0420   -2.6110   -1.5250 c3        1 CBK      0.134400
     23 O6'        -0.5210   -3.6370   -2.3740 oh        1 CBK     -0.592800
     24 H1          0.6200   -1.1180    0.6760 h2        1 CBK      0.065700
     25 H2          3.0990    0.1180    0.1230 h1        1 CBK      0.082700
     26 HO2         3.7070   -1.7780   -0.4240 ho        1 CBK      0.429000
     27 H3          2.5680   -1.3480    2.4500 h1        1 CBK      0.064700
     28 HO3         4.6190   -1.2710    2.7080 ho        1 CBK      0.430000
     29 H4          2.9500    1.4200    2.3940 h1        1 CBK      0.062700
     30 HO4         3.4660    0.8450    4.3430 ho        1 CBK      0.434000
     31 H5          0.4590    0.1760    2.9380 h1        1 CBK      0.072700
     32 H6          1.3240    2.8520    2.9090 h1        1 CBK      0.046700
     33 H6A        -0.2160    2.5340    2.6280 h1        1 CBK      0.046700
     34 HO6         0.2620    2.8600    4.7940 ho        1 CBK      0.418000
     35 H1'        -3.9880    0.6510   -1.3580 h2        1 CBK      0.105700
     36 HO1'       -5.0790    0.0450   -4.0090 ho        1 CBK      0.422000
     37 H2'        -4.0800    1.6610   -2.4520 h1        1 CBK      0.076700
     38 HO2'       -3.3340    1.1870   -4.7800 ho        1 CBK      0.420000
     39 H3'        -1.2920    1.7050   -2.2490 h1        1 CBK      0.086700
     40 HO3'       -2.1060    2.4190   -0.9540 ho        1 CBK      0.425000
     41 H4'        -1.2130   -1.1000   -0.6300 h1        1 CBK      0.076700
     42 H5'        -0.3680   -0.4740   -2.6050 h1        1 CBK      0.078700
     43 H6'        -0.0900   -2.8570   -0.5810 h1        1 CBK      0.065700
     44 H6'A        1.0030   -2.5250   -1.7100 h1        1 CBK      0.065700
     45 HO6'       -0.5030   -4.4310   -1.9400 ho        1 CBK      0.410000
@<TRIPOS>BOND
     1    1    2 1   
     2    1    9 1   
     3    1   19 1   
     4    1   24 1   
     5    2    3 1   
     6    2    4 1   
     7    2   25 1   
     8    3   26 1   
     9    4    5 1   
    10    4    6 1   
    11    4   27 1   
    12    5   28 1   
    13    6    7 1   
    14    6    8 1   
    15    6   29 1   
    16    7   30 1   
    17    8    9 1   
    18    8   10 1   
    19    8   31 1   
    20   10   11 1   
    21   10   32 1   
    22   10   33 1   
    23   11   34 1   
    24   12   13 1   
    25   12   14 1   
    26   12   21 1   
    27   12   35 1   
    28   13   36 1   
    29   14   15 1   
    30   14   16 1   
    31   14   37 1   
    32   15   38 1   
    33   16   17 1   
    34   16   18 1   
    35   16   39 1   
    36   17   40 1   
    37   18   19 1   
    38   18   20 1   
    39   18   41 1   
    40   20   21 1   
    41   20   22 1   
    42   20   42 1   
    43   22   23 1   
    44   22   43 1   
    45   22   44 1   
    46   23   45 1   
@<TRIPOS>SUBSTRUCTURE
     1 CBK         1 TEMP              0 ****  ****    0 ROOT
