@<TRIPOS>MOLECULE
CBL
   37    37     1     0     0
SMALL
bcc


@<TRIPOS>ATOM
      1 C1          0.0220   -0.1740    0.0100 ca        1 CBL      0.124600
      2 C2          1.3930   -0.5180    0.0250 ca        1 CBL     -0.179500
      3 C3          2.1340   -0.4320    1.1990 ca        1 CBL     -0.103000
      4 C4          1.5480   -0.0130    2.3970 ca        1 CBL     -0.074300
      5 C5          0.1890    0.3220    2.3890 ca        1 CBL     -0.103000
      6 C6         -0.5650    0.2500    1.2230 ca        1 CBL     -0.179500
      7 C7          2.3400    0.0680    3.6530 c3        1 CBL     -0.043100
      8 C8          2.4020    1.4780    4.2140 c3        1 CBL     -0.062400
      9 C9          3.1790    1.5260    5.5070 c3        1 CBL     -0.197400
     10 C10         2.9860    2.8760    6.2220 c         1 CBL      0.909600
     11 N11        -0.7270   -0.3260   -1.1820 nh        1 CBL     -0.671000
     12 C12        -0.0660   -0.0040   -2.4310 c3        1 CBL      0.196300
     13 C13         0.2550   -1.2630   -3.2420 c3        1 CBL      0.012000
     14 CL14        0.9620   -0.8210   -4.7890 cl        1 CBL     -0.203900
     15 C15        -2.1500   -0.1030   -1.1580 c3        1 CBL      0.196300
     16 C16        -2.6080    1.3570   -1.1630 c3        1 CBL      0.012000
     17 CL17       -4.3600    1.4410   -1.2280 cl        1 CBL     -0.203900
     18 O18         1.8150    3.3480    6.3100 o         1 CBL     -0.850800
     19 O19         4.0110    3.4360    6.7060 o         1 CBL     -0.850800
     20 H2          1.8920   -0.8670   -0.8910 ha        1 CBL      0.123000
     21 H3          3.2030   -0.6980    1.1800 ha        1 CBL      0.140000
     22 H5         -0.2850    0.6640    3.3230 ha        1 CBL      0.140000
     23 H6         -1.6270    0.5300    1.2730 ha        1 CBL      0.123000
     24 H71         1.8720   -0.6110    4.4180 hc        1 CBL      0.038700
     25 H72         3.3840   -0.3050    3.4750 hc        1 CBL      0.038700
     26 H81         1.3640    1.8640    4.4050 hc        1 CBL      0.048700
     27 H82         2.8780    2.1600    3.4630 hc        1 CBL      0.048700
     28 H91         2.8240    0.7220    6.2000 hc        1 CBL      0.020200
     29 H92         4.2680    1.3590    5.3160 hc        1 CBL      0.020200
     30 H121       -0.7240    0.6630   -3.0600 h1        1 CBL      0.059700
     31 H122        0.8940    0.5590   -2.2420 h1        1 CBL      0.059700
     32 H131       -0.6650   -1.8520   -3.4660 h1        1 CBL      0.072450
     33 H132        0.9990   -1.9070   -2.7180 h1        1 CBL      0.072450
     34 H151       -2.5740   -0.6180   -0.2490 h1        1 CBL      0.059700
     35 H152       -2.5790   -0.6130   -2.0700 h1        1 CBL      0.059700
     36 H161       -2.2310    1.9060   -2.0580 h1        1 CBL      0.072450
     37 H162       -2.2910    1.8920   -0.2360 h1        1 CBL      0.072450
@<TRIPOS>BOND
     1    1    2 ar  
     2    1    6 ar  
     3    1   11 1   
     4    2    3 ar  
     5    2   20 1   
     6    3    4 ar  
     7    3   21 1   
     8    4    5 ar  
     9    4    7 1   
    10    5    6 ar  
    11    5   22 1   
    12    6   23 1   
    13    7    8 1   
    14    7   24 1   
    15    7   25 1   
    16    8    9 1   
    17    8   26 1   
    18    8   27 1   
    19    9   10 1   
    20    9   28 1   
    21    9   29 1   
    22   10   18 1   
    23   10   19 1   
    24   11   12 1   
    25   11   15 1   
    26   12   13 1   
    27   12   30 1   
    28   12   31 1   
    29   13   14 1   
    30   13   32 1   
    31   13   33 1   
    32   15   16 1   
    33   15   34 1   
    34   15   35 1   
    35   16   17 1   
    36   16   36 1   
    37   16   37 1   
@<TRIPOS>SUBSTRUCTURE
     1 CBL         1 TEMP              0 ****  ****    0 ROOT
