@<TRIPOS>MOLECULE
CBL
   38    38     1     0     0
SMALL
bcc


@<TRIPOS>ATOM
      1 C1          0.2800   -0.3770    0.2950 ca        1 CBL     -0.062400
      2 C2          1.5570    0.1350    0.0000 ca        1 CBL     -0.078000
      3 C3          2.5640    0.0170    0.9520 ca        1 CBL     -0.102000
      4 C4          2.3010   -0.5960    2.1860 ca        1 CBL     -0.012300
      5 C5          1.1210   -1.3340    2.3450 ca        1 CBL     -0.102000
      6 C6          0.0950   -1.2130    1.4140 ca        1 CBL     -0.078000
      7 C7          3.1400   -0.2810    3.3720 c3        1 CBL     -0.043100
      8 C8          2.7450    1.0940    3.9120 c3        1 CBL     -0.065400
      9 C9          1.2980    1.2030    4.3480 c3        1 CBL     -0.176400
     10 C10         0.3380    1.5620    3.2180 c         1 CBL      0.903600
     11 N11        -0.9210    0.1060   -0.4030 n4        1 CBL     -0.534800
     12 C12        -0.7920    0.1130   -1.8870 c3        1 CBL      0.077800
     13 C13        -0.6050   -1.2820   -2.4700 c3        1 CBL      0.011500
     14 CL14       -0.4820   -1.1790   -4.2050 cl        1 CBL     -0.183400
     15 C15        -1.3520    1.4400    0.1670 c3        1 CBL      0.077800
     16 C16        -0.4790    2.6330   -0.1330 c3        1 CBL      0.011500
     17 CL17       -0.7290    3.2860   -1.7510 cl        1 CBL     -0.183400
     18 O18         0.6250    2.4670    2.3780 o         1 CBL     -0.870800
     19 O19        -0.7630    0.9240    3.1190 o         1 CBL     -0.870800
     20 H2          1.7580    0.6870   -0.9300 ha        1 CBL      0.142000
     21 H3          3.5420    0.4870    0.7710 ha        1 CBL      0.154000
     22 H5          0.9500   -1.9150    3.2650 ha        1 CBL      0.154000
     23 H6         -0.8780   -1.6810    1.6290 ha        1 CBL      0.142000
     24 H71         4.2260   -0.2680    3.0940 hc        1 CBL      0.047700
     25 H72         2.9990   -1.0560    4.1700 hc        1 CBL      0.047700
     26 H81         3.4130    1.3130    4.7870 hc        1 CBL      0.050700
     27 H82         2.9400    1.8700    3.1240 hc        1 CBL      0.050700
     28 H91         0.9600    0.2460    4.8200 hc        1 CBL      0.045200
     29 H92         1.2120    2.0150    5.1160 hc        1 CBL      0.045200
     30 H121        0.0820    0.7690   -2.1690 hx        1 CBL      0.132700
     31 H122       -1.7260    0.5890   -2.3060 hx        1 CBL      0.132700
     32 H131       -1.4760   -1.9450   -2.2410 h1        1 CBL      0.108950
     33 H132        0.3360   -1.7550   -2.0930 h1        1 CBL      0.108950
     34 H151       -1.3190    1.3230    1.3250 hx        1 CBL      0.132700
     35 H152       -2.4050    1.6080   -0.1890 hx        1 CBL      0.132700
     36 H161       -0.7400    3.4390    0.6060 h1        1 CBL      0.108950
     37 H162        0.6120    2.4170   -0.0050 h1        1 CBL      0.108950
     38 H111       -1.6810   -0.5490   -0.1650 hn        1 CBL      0.433800
@<TRIPOS>BOND
     1    1    2 ar  
     2    1    6 ar  
     3    1   11 1   
     4    2    3 ar  
     5    2   20 1   
     6    3    4 ar  
     7    3   21 1   
     8    4    5 ar  
     9    4    7 1   
    10    5    6 ar  
    11    5   22 1   
    12    6   23 1   
    13    7    8 1   
    14    7   24 1   
    15    7   25 1   
    16    8    9 1   
    17    8   26 1   
    18    8   27 1   
    19    9   10 1   
    20    9   28 1   
    21    9   29 1   
    22   10   18 1   
    23   10   19 1   
    24   11   12 1   
    25   11   15 1   
    26   11   38 1   
    27   12   13 1   
    28   12   30 1   
    29   12   31 1   
    30   13   14 1   
    31   13   32 1   
    32   13   33 1   
    33   15   16 1   
    34   15   34 1   
    35   15   35 1   
    36   16   17 1   
    37   16   36 1   
    38   16   37 1   
@<TRIPOS>SUBSTRUCTURE
     1 CBL         1 TEMP              0 ****  ****    0 ROOT
