@<TRIPOS>MOLECULE
CBL
   37    37     1     0     0
SMALL
bcc


@<TRIPOS>ATOM
      1 C1          0.1800   -0.5110   -1.0330 ca        1 CBL      0.124600
      2 C2          1.4790   -0.5860   -0.4800 ca        1 CBL     -0.179500
      3 C3          1.6590   -0.8100    0.8800 ca        1 CBL     -0.103000
      4 C4          0.5680   -0.9760    1.7390 ca        1 CBL     -0.074300
      5 C5         -0.7200   -0.9110    1.1950 ca        1 CBL     -0.103000
      6 C6         -0.9190   -0.6800   -0.1610 ca        1 CBL     -0.179500
      7 C7          0.7640   -1.2270    3.1920 c3        1 CBL     -0.043100
      8 C8          0.1540   -0.1400    4.0590 c3        1 CBL     -0.062400
      9 C9          0.3350   -0.4360    5.5270 c3        1 CBL     -0.197400
     10 C10        -0.5370    0.4930    6.3940 c         1 CBL      0.909600
     11 N11         0.0200   -0.3430   -2.4310 nh        1 CBL     -0.671000
     12 C12         0.9580    0.5300   -3.1080 c3        1 CBL      0.196300
     13 C13         1.9440   -0.2600   -3.9730 c3        1 CBL      0.012000
     14 CL14        2.9940    0.8410   -4.8530 cl        1 CBL     -0.203900
     15 C15        -1.2990   -0.4020   -3.0050 c3        1 CBL      0.196300
     16 C16        -2.1650    0.8500   -2.8450 c3        1 CBL      0.012000
     17 CL17       -3.6940    0.6390   -3.6830 cl        1 CBL     -0.203900
     18 O18        -1.7410    0.6780    6.0520 o         1 CBL     -0.850800
     19 O19        -0.0060    1.0080    7.4180 o         1 CBL     -0.850800
     20 H2          2.3660   -0.4750   -1.1210 ha        1 CBL      0.123000
     21 H3          2.6820   -0.8540    1.2860 ha        1 CBL      0.140000
     22 H5         -1.5910   -1.0300    1.8600 ha        1 CBL      0.140000
     23 H6         -1.9520   -0.6330   -0.5350 ha        1 CBL      0.123000
     24 H71         1.8590   -1.3130    3.4230 hc        1 CBL      0.038700
     25 H72         0.2920   -2.2130    3.4540 hc        1 CBL      0.038700
     26 H81        -0.9450   -0.0460    3.8440 hc        1 CBL      0.048700
     27 H82         0.6260    0.8460    3.8120 hc        1 CBL      0.048700
     28 H91         1.4070   -0.3210    5.8210 hc        1 CBL      0.020200
     29 H92         0.0280   -1.4900    5.7480 hc        1 CBL      0.020200
     30 H121        0.4050    1.2540   -3.7750 h1        1 CBL      0.059700
     31 H122        1.5420    1.1450   -2.3630 h1        1 CBL      0.059700
     32 H131        2.6040   -0.9080   -3.3490 h1        1 CBL      0.072450
     33 H132        1.4160   -0.8780   -4.7360 h1        1 CBL      0.072450
     34 H151       -1.1690   -0.6050   -4.1090 h1        1 CBL      0.059700
     35 H152       -1.8410   -1.2840   -2.5580 h1        1 CBL      0.059700
     36 H161       -2.4060    1.0510   -1.7740 h1        1 CBL      0.072450
     37 H162       -1.6800    1.7490   -3.2930 h1        1 CBL      0.072450
@<TRIPOS>BOND
     1    1    2 ar  
     2    1    6 ar  
     3    1   11 1   
     4    2    3 ar  
     5    2   20 1   
     6    3    4 ar  
     7    3   21 1   
     8    4    5 ar  
     9    4    7 1   
    10    5    6 ar  
    11    5   22 1   
    12    6   23 1   
    13    7    8 1   
    14    7   24 1   
    15    7   25 1   
    16    8    9 1   
    17    8   26 1   
    18    8   27 1   
    19    9   10 1   
    20    9   28 1   
    21    9   29 1   
    22   10   18 1   
    23   10   19 1   
    24   11   12 1   
    25   11   15 1   
    26   12   13 1   
    27   12   30 1   
    28   12   31 1   
    29   13   14 1   
    30   13   32 1   
    31   13   33 1   
    32   15   16 1   
    33   15   34 1   
    34   15   35 1   
    35   16   17 1   
    36   16   36 1   
    37   16   37 1   
@<TRIPOS>SUBSTRUCTURE
     1 CBL         1 TEMP              0 ****  ****    0 ROOT
