@<TRIPOS>MOLECULE
CBL
   37    34     1     0     0
SMALL
bcc


@<TRIPOS>ATOM
      1 C1         -0.2220   -0.4610   -1.3050 c1        1 CBL      0.076800
      2 C2          1.0860    0.0380   -1.2610 c1        1 CBL     -0.083000
      3 C3          1.8100   -0.0010   -0.0640 c1        1 CBL     -0.083000
      4 C4          1.2250   -0.5390    1.0910 c1        1 CBL     -0.034100
      5 C5         -0.0730   -1.0340    1.0470 c1        1 CBL     -0.042500
      6 C6         -0.8010   -0.9960   -0.1570 c1        1 CBL     -0.120500
      7 C7          2.0390   -0.6130    2.4130 c3        1 CBL     -0.078300
      8 C8          1.7440    0.6250    3.2640 c3        1 CBL     -0.062400
      9 C9          2.7500    0.7060    4.4150 c3        1 CBL     -0.198400
     10 C10         2.1220    1.4440    5.5830 c         1 CBL      0.909600
     11 N11        -0.9840   -0.4010   -2.5470 n3        1 CBL     -0.618200
     12 C12        -0.9600    0.8300   -3.3720 c3        1 CBL      0.184800
     13 C13        -2.2500    1.6570   -3.1110 c3        1 CBL     -0.002000
     14 CL14       -2.4230    2.8850   -4.3610 cl        1 CBL     -0.198900
     15 C15        -1.6820   -1.5760   -3.0220 c3        1 CBL      0.184800
     16 C16        -3.1720   -1.3630   -2.8930 c3        1 CBL     -0.002000
     17 CL17       -3.9510   -2.8910   -2.5470 cl        1 CBL     -0.198900
     18 O18         2.4900    2.6250    5.8590 o         1 CBL     -0.850300
     19 O19         1.2890    0.8610    6.3150 o         1 CBL     -0.850300
     20 H2          1.4890    0.4100   -2.0590 ha        1 CBL      0.070500
     21 H3          2.7160    0.3450   -0.0340 ha        1 CBL      0.070500
     22 H5         -0.4760   -1.4080    1.8450 ha        1 CBL      0.093500
     23 H6         -1.7150   -1.3440   -0.1880 ha        1 CBL      0.067500
     24 H71         2.9980   -0.6450    2.2060 hc        1 CBL      0.039700
     25 H72         1.7860   -1.4150    2.9050 hc        1 CBL      0.039700
     26 H81         0.8430    0.5640    3.6250 hc        1 CBL      0.048700
     27 H82         1.8190    1.4280    2.7080 hc        1 CBL      0.048700
     28 H91         3.0000   -0.1990    4.6960 hc        1 CBL      0.020200
     29 H92         3.5460    1.1860    4.1180 hc        1 CBL      0.020200
     30 H121       -0.9140    0.5870   -4.3220 h1        1 CBL      0.063450
     31 H122       -0.1740    1.3670   -3.1350 h1        1 CBL      0.063450
     32 H131       -3.0270    1.0640   -3.1270 h1        1 CBL      0.074700
     33 H132       -2.1880    2.0900   -2.2370 h1        1 CBL      0.074700
     34 H151       -1.4530   -1.7350   -3.9660 h1        1 CBL      0.063450
     35 H152       -1.4150   -2.3530   -2.4870 h1        1 CBL      0.063450
     36 H161       -3.3490   -0.7370   -2.1670 h1        1 CBL      0.074700
     37 H162       -3.5220   -1.0030   -3.7250 h1        1 CBL      0.074700
@<TRIPOS>BOND
     1    1    6 3   
     2    1   11 1   
     3    2    3 3   
     4    2   20 1   
     5    3   21 1   
     6    4    5 3   
     7    4    7 1   
     8    5   22 1   
     9    6   23 1   
    10    7    8 1   
    11    7   24 1   
    12    7   25 1   
    13    8    9 1   
    14    8   26 1   
    15    8   27 1   
    16    9   10 1   
    17    9   28 1   
    18    9   29 1   
    19   10   18 1   
    20   10   19 1   
    21   11   12 1   
    22   11   15 1   
    23   12   13 1   
    24   12   30 1   
    25   12   31 1   
    26   13   14 1   
    27   13   32 1   
    28   13   33 1   
    29   15   16 1   
    30   15   34 1   
    31   15   35 1   
    32   16   17 1   
    33   16   36 1   
    34   16   37 1   
@<TRIPOS>SUBSTRUCTURE
     1 CBL         1 TEMP              0 ****  ****    0 ROOT
