@<TRIPOS>MOLECULE
CBL
   37    37     1     0     0
SMALL
bcc


@<TRIPOS>ATOM
      1 C1          0.0270   -0.1730    0.0070 ca        1 CBL      0.124600
      2 C2          1.4000   -0.5130    0.0250 ca        1 CBL     -0.179500
      3 C3          2.1370   -0.4270    1.2000 ca        1 CBL     -0.103000
      4 C4          1.5470   -0.0110    2.3970 ca        1 CBL     -0.074300
      5 C5          0.1870    0.3190    2.3870 ca        1 CBL     -0.103000
      6 C6         -0.5640    0.2460    1.2190 ca        1 CBL     -0.179500
      7 C7          2.3350    0.0700    3.6560 c3        1 CBL     -0.043100
      8 C8          2.3890    1.4780    4.2210 c3        1 CBL     -0.062400
      9 C9          3.1640    1.5260    5.5160 c3        1 CBL     -0.197400
     10 C10         2.9620    2.8730    6.2350 c         1 CBL      0.909600
     11 N11        -0.7190   -0.3260   -1.1880 nh        1 CBL     -0.671000
     12 C12        -0.0550   -0.0010   -2.4340 c3        1 CBL      0.196300
     13 C13         0.2730   -1.2580   -3.2460 c3        1 CBL      0.012000
     14 Cl14        0.9820   -0.8120   -4.7910 cl        1 CBL     -0.203900
     15 C15        -2.1420   -0.1070   -1.1670 c3        1 CBL      0.196300
     16 C16        -2.6040    1.3520   -1.1710 c3        1 CBL      0.012000
     17 Cl17       -4.3560    1.4320   -1.2400 cl        1 CBL     -0.203900
     18 O18         1.7880    3.3380    6.3220 o         1 CBL     -0.850800
     19 O19         3.9820    3.4360    6.7230 o         1 CBL     -0.850800
     20 H2          1.9020   -0.8580   -0.8910 ha        1 CBL      0.123000
     21 H3          3.2070   -0.6890    1.1840 ha        1 CBL      0.140000
     22 H5         -0.2910    0.6580    3.3210 ha        1 CBL      0.140000
     23 H6         -1.6270    0.5220    1.2670 ha        1 CBL      0.123000
     24 H71         3.3810   -0.2980    3.4790 hc        1 CBL      0.038700
     25 H72         1.8690   -0.6140    4.4180 hc        1 CBL      0.038700
     26 H81         2.8630    2.1640    3.4740 hc        1 CBL      0.048700
     27 H82         1.3490    1.8580    4.4110 hc        1 CBL      0.048700
     28 H91         4.2540    1.3650    5.3260 hc        1 CBL      0.020200
     29 H92         2.8110    0.7180    6.2060 hc        1 CBL      0.020200
     30 H121        0.9020    0.5650   -2.2420 h1        1 CBL      0.059700
     31 H122       -0.7140    0.6640   -3.0640 h1        1 CBL      0.059700
     32 H131       -0.6450   -1.8490   -3.4730 h1        1 CBL      0.072450
     33 H132        1.0180   -1.9000   -2.7200 h1        1 CBL      0.072450
     34 H151       -2.5670   -0.6170   -2.0810 h1        1 CBL      0.059700
     35 H152       -2.5670   -0.6250   -0.2600 h1        1 CBL      0.059700
     36 H161       -2.2910    1.8860   -0.2420 h1        1 CBL      0.072450
     37 H162       -2.2260    1.9040   -2.0640 h1        1 CBL      0.072450
@<TRIPOS>BOND
     1    1    2 ar  
     2    1    6 ar  
     3    1   11 1   
     4    2    3 ar  
     5    2   20 1   
     6    3    4 ar  
     7    3   21 1   
     8    4    5 ar  
     9    4    7 1   
    10    5    6 ar  
    11    5   22 1   
    12    6   23 1   
    13    7    8 1   
    14    7   24 1   
    15    7   25 1   
    16    8    9 1   
    17    8   26 1   
    18    8   27 1   
    19    9   10 1   
    20    9   28 1   
    21    9   29 1   
    22   10   18 1   
    23   10   19 1   
    24   11   12 1   
    25   11   15 1   
    26   12   13 1   
    27   12   30 1   
    28   12   31 1   
    29   13   14 1   
    30   13   32 1   
    31   13   33 1   
    32   15   16 1   
    33   15   34 1   
    34   15   35 1   
    35   16   17 1   
    36   16   36 1   
    37   16   37 1   
@<TRIPOS>SUBSTRUCTURE
     1 CBL         1 TEMP              0 ****  ****    0 ROOT
