@<TRIPOS>MOLECULE
CBM
    7     6     1     0     0
SMALL
bcc


@<TRIPOS>ATOM
      1 C1         -1.6070    0.6670    1.2310 c         1 CBM      0.901600
      2 C2         -1.0280    0.3380   -0.1440 c3        1 CBM     -0.200100
      3 O1         -2.6440    0.0480    1.6120 o         1 CBM     -0.861300
      4 O2         -1.0220    1.5460    1.9310 o         1 CBM     -0.861300
      5 H21        -1.0370    1.2520   -0.7810 hc        1 CBM      0.007033
      6 H22         0.0250   -0.0080   -0.0340 hc        1 CBM      0.007033
      7 H23        -1.6260   -0.4600   -0.6420 hc        1 CBM      0.007033
@<TRIPOS>BOND
     1    1    2 1   
     2    1    3 1   
     3    1    4 1   
     4    2    5 1   
     5    2    6 1   
     6    2    7 1   
@<TRIPOS>SUBSTRUCTURE
     1 CBM         1 TEMP              0 ****  ****    0 ROOT
