@<TRIPOS>MOLECULE
CBP
   49    51     1     0     0
SMALL
bcc


@<TRIPOS>ATOM
      1 O1         -0.4970   -0.5550    0.4130 oh        1 CBP     -0.358300
      2 N2          0.6250    0.0020    0.9160 n4        1 CBP     -0.455300
      3 C3          1.7360   -1.0040    1.2340 c         1 CBP      0.555100
      4 O4          1.3400   -2.1430    1.4150 o         1 CBP     -0.410100
      5 C5          3.1480   -0.4870    1.2330 c3        1 CBP     -0.106400
      6 C6          3.5890    0.1930    2.5220 c3        1 CBP     -0.212200
      7 C7          2.8540   -0.3460    3.7470 c3        1 CBP     -0.102900
      8 C8          3.2630   -1.7700    4.0930 c3        1 CBP      0.124900
      9 O9          4.6630   -1.8700    4.2950 os        1 CBP     -0.381600
     10 C10         5.4130   -1.4720    3.1570 c3        1 CBP      0.124900
     11 C11         5.0850   -0.0510    2.7280 c3        1 CBP     -0.102900
     12 S12         3.2820    1.9720    2.4570 sy        1 CBP      1.394300
     13 O13         2.0590    2.0120    1.7280 o         1 CBP     -0.674300
     14 O14         3.2610    2.4520    3.7630 o         1 CBP     -0.674300
     15 C15         4.5100    2.5710    1.5760 ca        1 CBP     -0.506500
     16 C16         4.4300    2.7160    0.1770 ca        1 CBP      0.028000
     17 C17         5.4480    3.2940   -0.5580 ca        1 CBP     -0.201000
     18 C18         6.5970    3.7600    0.1090 ca        1 CBP      0.235100
     19 C19         6.7040    3.6440    1.5140 ca        1 CBP     -0.201000
     20 C20         5.6690    3.0620    2.2200 ca        1 CBP      0.028000
     21 O21         7.6730    4.3400   -0.5070 os        1 CBP     -0.218200
     22 C22         7.5900    4.5310   -1.8960 ca        1 CBP      0.042100
     23 C23         8.3520    3.6920   -2.7170 ca        1 CBP     -0.114500
     24 C24         8.4050    3.9590   -4.0830 ca        1 CBP     -0.114500
     25 C25         7.7000    5.0480   -4.6090 ca        1 CBP      0.027400
     26 C26         6.9450    5.8830   -3.7750 ca        1 CBP     -0.114500
     27 C27         6.8870    5.6270   -2.4070 ca        1 CBP     -0.114500
     28 CL28        7.7630    5.3630   -6.2720 cl        1 CBP     -0.054400
     29 HO1I       -0.6800   -1.3990    0.8930 ho        1 CBP      0.479000
     30 HN21        0.9570    0.6910    0.2050 hn        1 CBP      0.503300
     31 HC51        3.2980    0.2140    0.3650 hc        1 CBP      0.111700
     32 HC52        3.7910   -1.3990    1.0480 hc        1 CBP      0.111700
     33 HC71        3.0960    0.3100    4.6330 hc        1 CBP      0.072450
     34 HC72        1.7460   -0.3050    3.5860 hc        1 CBP      0.072450
     35 HC81        2.9400   -2.4790    3.2830 h1        1 CBP      0.064450
     36 HC82        2.8200   -2.0830    5.0770 h1        1 CBP      0.064450
     37 H101        6.4820   -1.5430    3.4980 h1        1 CBP      0.064450
     38 H102        5.2400   -2.1970    2.3170 h1        1 CBP      0.064450
     39 H111        5.6440    0.1840    1.7850 hc        1 CBP      0.072450
     40 H112        5.4400    0.6500    3.5340 hc        1 CBP      0.072450
     41 H161        3.5150    2.3810   -0.3440 ha        1 CBP      0.151000
     42 H171        5.3640    3.4060   -1.6510 ha        1 CBP      0.177500
     43 H191        7.6030    4.0280    2.0230 ha        1 CBP      0.177500
     44 H201        5.7370    2.9960    3.3230 ha        1 CBP      0.151000
     45 H231        8.9150    2.8510   -2.2850 ha        1 CBP      0.157500
     46 H241        9.0080    3.3150   -4.7440 ha        1 CBP      0.165000
     47 H261        6.4050    6.7470   -4.1950 ha        1 CBP      0.165000
     48 H271        6.3140    6.2840   -1.7370 ha        1 CBP      0.157500
     49 H22         0.4060    0.5610    1.7710 hn        1 CBP      0.503300
@<TRIPOS>BOND
     1    1    2 1   
     2    1   29 1   
     3    2    3 1   
     4    2   30 1   
     5    2   49 1   
     6    3    4 2   
     7    3    5 1   
     8    5    6 1   
     9    5   31 1   
    10    5   32 1   
    11    6    7 1   
    12    6   11 1   
    13    6   12 1   
    14    7    8 1   
    15    7   33 1   
    16    7   34 1   
    17    8    9 1   
    18    8   35 1   
    19    8   36 1   
    20    9   10 1   
    21   10   11 1   
    22   10   37 1   
    23   10   38 1   
    24   11   39 1   
    25   11   40 1   
    26   12   13 2   
    27   12   14 2   
    28   12   15 1   
    29   15   16 ar  
    30   15   20 ar  
    31   16   17 ar  
    32   16   41 1   
    33   17   18 ar  
    34   17   42 1   
    35   18   19 ar  
    36   18   21 1   
    37   19   20 ar  
    38   19   43 1   
    39   20   44 1   
    40   21   22 1   
    41   22   23 ar  
    42   22   27 ar  
    43   23   24 ar  
    44   23   45 1   
    45   24   25 ar  
    46   24   46 1   
    47   25   26 ar  
    48   25   28 1   
    49   26   27 ar  
    50   26   47 1   
    51   27   48 1   
@<TRIPOS>SUBSTRUCTURE
     1 CBP         1 TEMP              0 ****  ****    0 ROOT
