@<TRIPOS>MOLECULE
CBP
   49    51     1     0     0
SMALL
bcc


@<TRIPOS>ATOM
      1 O1         -0.4880   -0.5800    0.4910 oh        1 CBP     -0.358300
      2 N2          0.6380   -0.0190    0.9780 n4        1 CBP     -0.455300
      3 C3          1.7600   -1.0200    1.2750 c         1 CBP      0.555100
      4 O4          1.3730   -2.1610    1.4600 o         1 CBP     -0.410100
      5 C5          3.1690   -0.4950    1.2540 c3        1 CBP     -0.106400
      6 C6          3.6260    0.1850    2.5370 c3        1 CBP     -0.212200
      7 C7          2.9130   -0.3610    3.7730 c3        1 CBP     -0.102900
      8 C8          3.3340   -1.7840    4.1080 c3        1 CBP      0.124900
      9 O9          4.7380   -1.8770    4.2890 os        1 CBP     -0.381600
     10 C10         5.4680   -1.4720    3.1400 c3        1 CBP      0.124900
     11 C11         5.1270   -0.0520    2.7200 c3        1 CBP     -0.102900
     12 S12         3.3090    1.9620    2.4810 sy        1 CBP      1.394300
     13 O13         2.0750    1.9970    1.7720 o         1 CBP     -0.674300
     14 O14         3.3080    2.4390    3.7880 o         1 CBP     -0.674300
     15 C15         4.5200    2.5690    1.5810 ca        1 CBP     -0.506500
     16 C16         4.4150    2.7160    0.1840 ca        1 CBP      0.028000
     17 C17         5.4180    3.3010   -0.5670 ca        1 CBP     -0.201000
     18 C18         6.5760    3.7710    0.0820 ca        1 CBP      0.235100
     19 C19         6.7070    3.6520    1.4850 ca        1 CBP     -0.201000
     20 C20         5.6870    3.0640    2.2060 ca        1 CBP      0.028000
     21 O21         7.6380    4.3580   -0.5510 os        1 CBP     -0.218200
     22 C22         7.5320    4.5500   -1.9380 ca        1 CBP      0.042100
     23 C23         8.2770    3.7120   -2.7740 ca        1 CBP     -0.114500
     24 C24         8.3060    3.9810   -4.1410 ca        1 CBP     -0.114500
     25 C25         7.5930    5.0730   -4.6520 ca        1 CBP      0.027400
     26 C26         6.8550    5.9080   -3.8030 ca        1 CBP     -0.114500
     27 C27         6.8210    5.6490   -2.4340 ca        1 CBP     -0.114500
     28 CL28        7.6270    5.3910   -6.3150 cl        1 CBP     -0.054400
     29 HO1I       -0.6590   -1.4270    0.9720 ho        1 CBP      0.479000
     30 HN21        0.9560    0.6740    0.2640 hn        1 CBP      0.503300
     31 HC51        3.8130   -1.4040    1.0570 hc        1 CBP      0.111700
     32 HC52        3.3010    0.2090    0.3850 hc        1 CBP      0.111700
     33 HC71        3.1650    0.2940    4.6560 hc        1 CBP      0.072450
     34 HC72        1.8020   -0.3250    3.6290 hc        1 CBP      0.072450
     35 HC81        3.0030   -2.4930    3.3020 h1        1 CBP      0.064450
     36 HC82        2.9090   -2.1020    5.0990 h1        1 CBP      0.064450
     37 H101        6.5430   -1.5390    3.4640 h1        1 CBP      0.064450
     38 H102        5.2860   -2.1970    2.3010 h1        1 CBP      0.064450
     39 H111        5.4910    0.6490    3.5210 hc        1 CBP      0.072450
     40 H112        5.6700    0.1870    1.7690 hc        1 CBP      0.072450
     41 H161        3.4930    2.3790   -0.3220 ha        1 CBP      0.151000
     42 H171        5.3150    3.4160   -1.6580 ha        1 CBP      0.177500
     43 H191        7.6120    4.0390    1.9790 ha        1 CBP      0.177500
     44 H201        5.7740    2.9960    3.3080 ha        1 CBP      0.151000
     45 H231        8.8460    2.8690   -2.3540 ha        1 CBP      0.157500
     46 H241        8.8960    3.3380   -4.8140 ha        1 CBP      0.165000
     47 H261        6.3090    6.7740   -4.2100 ha        1 CBP      0.165000
     48 H271        6.2610    6.3050   -1.7520 ha        1 CBP      0.157500
     49 H22         0.4300    0.5370    1.8380 hn        1 CBP      0.503300
@<TRIPOS>BOND
     1    1    2 1   
     2    1   29 1   
     3    2    3 1   
     4    2   30 1   
     5    2   49 1   
     6    3    4 2   
     7    3    5 1   
     8    5    6 1   
     9    5   31 1   
    10    5   32 1   
    11    6    7 1   
    12    6   11 1   
    13    6   12 1   
    14    7    8 1   
    15    7   33 1   
    16    7   34 1   
    17    8    9 1   
    18    8   35 1   
    19    8   36 1   
    20    9   10 1   
    21   10   11 1   
    22   10   37 1   
    23   10   38 1   
    24   11   39 1   
    25   11   40 1   
    26   12   13 2   
    27   12   14 2   
    28   12   15 1   
    29   15   16 ar  
    30   15   20 ar  
    31   16   17 ar  
    32   16   41 1   
    33   17   18 ar  
    34   17   42 1   
    35   18   19 ar  
    36   18   21 1   
    37   19   20 ar  
    38   19   43 1   
    39   20   44 1   
    40   21   22 1   
    41   22   23 ar  
    42   22   27 ar  
    43   23   24 ar  
    44   23   45 1   
    45   24   25 ar  
    46   24   46 1   
    47   25   26 ar  
    48   25   28 1   
    49   26   27 ar  
    50   26   47 1   
    51   27   48 1   
@<TRIPOS>SUBSTRUCTURE
     1 CBP         1 TEMP              0 ****  ****    0 ROOT
