@<TRIPOS>MOLECULE
CBP
   49    51     1     0     0
SMALL
bcc


@<TRIPOS>ATOM
      1 O1         -0.4940   -0.5580    0.4240 oh        1 CBP     -0.358300
      2 N2          0.6300   -0.0070    0.9250 ny        1 CBP     -0.455300
      3 C3          1.7450   -1.0160    1.2200 c         1 CBP      0.555100
      4 O4          1.3530   -2.1580    1.3880 o         1 CBP     -0.410100
      5 C5          3.1560   -0.4970    1.2160 c3        1 CBP     -0.106400
      6 C6          3.6060    0.1660    2.5110 c3        1 CBP     -0.212200
      7 C7          2.8820   -0.3920    3.7340 c3        1 CBP     -0.102900
      8 C8          3.2950   -1.8200    4.0560 c3        1 CBP      0.124900
      9 O9          4.6970   -1.9210    4.2460 os        1 CBP     -0.381600
     10 C10         5.4370   -1.5050    3.1080 c3        1 CBP      0.124900
     11 C11         5.1040   -0.0790    2.7030 c3        1 CBP     -0.102900
     12 S12         3.2960    1.9460    2.4740 sy        1 CBP      1.394300
     13 O13         2.0670    1.9940    1.7550 o         1 CBP     -0.674300
     14 O14         3.2850    2.4070    3.7870 o         1 CBP     -0.674300
     15 C15         4.5160    2.5580    1.5910 ca        1 CBP     -0.506500
     16 C16         4.4230    2.7230    0.1960 ca        1 CBP      0.028000
     17 C17         5.4350    3.3140   -0.5400 ca        1 CBP     -0.201000
     18 C18         6.5890    3.7710    0.1240 ca        1 CBP      0.235100
     19 C19         6.7070    3.6350    1.5270 ca        1 CBP     -0.201000
     20 C20         5.6790    3.0420    2.2320 ca        1 CBP      0.028000
     21 O21         7.6590    4.3620   -0.4920 os        1 CBP     -0.218200
     22 C22         7.5640    4.5720   -1.8770 ca        1 CBP      0.042100
     23 C23         8.3170    3.7440   -2.7180 ca        1 CBP     -0.114500
     24 C24         8.3580    4.0300   -4.0800 ca        1 CBP     -0.114500
     25 C25         7.6500    5.1280   -4.5840 ca        1 CBP      0.027400
     26 C26         6.9040    5.9530   -3.7310 ca        1 CBP     -0.114500
     27 C27         6.8580    5.6770   -2.3670 ca        1 CBP     -0.114500
     28 Cl28        7.6990    5.4670   -6.2430 cl        1 CBP     -0.054400
     29 HO1I       -0.6730   -1.4100    0.8930 ho        1 CBP      0.479000
     30 HN21        0.4170    0.5390    1.7900 hn        1 CBP      0.503300
     31 HC51        3.7990   -1.4050    1.0130 hc        1 CBP      0.111700
     32 HC52        3.2980    0.2170    0.3570 hc        1 CBP      0.111700
     33 HC71        3.1290    0.2520    4.6270 hc        1 CBP      0.072450
     34 HC72        1.7720   -0.3500    3.5820 hc        1 CBP      0.072450
     35 HC81        2.8600   -2.1480    5.0390 h1        1 CBP      0.064450
     36 HC82        2.9670   -2.5180    3.2390 h1        1 CBP      0.064450
     37 H101        6.5090   -1.5790    3.4400 h1        1 CBP      0.064450
     38 H102        5.2590   -2.2180    2.2600 h1        1 CBP      0.064450
     39 H111        5.6560    0.1700    1.7590 hc        1 CBP      0.072450
     40 H112        5.4640    0.6120    3.5150 hc        1 CBP      0.072450
     41 H161        3.5050    2.3950   -0.3220 ha        1 CBP      0.151000
     42 H171        5.3410    3.4410   -1.6300 ha        1 CBP      0.177500
     43 H191        7.6100    4.0130    2.0330 ha        1 CBP      0.177500
     44 H201        5.7570    2.9600    3.3340 ha        1 CBP      0.151000
     45 H231        8.8820    2.8960   -2.3030 ha        1 CBP      0.157500
     46 H241        8.9540    3.3960   -4.7560 ha        1 CBP      0.165000
     47 H261        6.3620    6.8230   -4.1340 ha        1 CBP      0.165000
     48 H271        6.2920    6.3250   -1.6820 ha        1 CBP      0.157500
     49 H22         0.9560    0.6920    0.2220 hn        1 CBP      0.503300
@<TRIPOS>BOND
     1    1    2 1   
     2    1   29 1   
     3    2    3 1   
     4    2   30 1   
     5    2   49 1   
     6    3    4 2   
     7    3    5 1   
     8    5    6 1   
     9    5   31 1   
    10    5   32 1   
    11    6    7 1   
    12    6   11 1   
    13    6   12 1   
    14    7    8 1   
    15    7   33 1   
    16    7   34 1   
    17    8    9 1   
    18    8   35 1   
    19    8   36 1   
    20    9   10 1   
    21   10   11 1   
    22   10   37 1   
    23   10   38 1   
    24   11   39 1   
    25   11   40 1   
    26   12   13 2   
    27   12   14 2   
    28   12   15 1   
    29   15   16 ar  
    30   15   20 ar  
    31   16   17 ar  
    32   16   41 1   
    33   17   18 ar  
    34   17   42 1   
    35   18   19 ar  
    36   18   21 1   
    37   19   20 ar  
    38   19   43 1   
    39   20   44 1   
    40   21   22 1   
    41   22   23 ar  
    42   22   27 ar  
    43   23   24 ar  
    44   23   45 1   
    45   24   25 ar  
    46   24   46 1   
    47   25   26 ar  
    48   25   28 1   
    49   26   27 ar  
    50   26   47 1   
    51   27   48 1   
@<TRIPOS>SUBSTRUCTURE
     1 CBP         1 TEMP              0 ****  ****    0 ROOT
