@<TRIPOS>MOLECULE
CBP
   48    50     1     0     0
SMALL
bcc


@<TRIPOS>ATOM
      1 O1         -0.7040   -3.9900    3.7560 oh        1 CBP     -0.440100
      2 N2         -0.3540   -2.9680    2.9710 n         1 CBP     -0.345400
      3 C3          0.3820   -1.9330    3.6360 c         1 CBP      0.589100
      4 O4          0.3960   -1.8770    4.8750 o         1 CBP     -0.545100
      5 C5          1.0560   -0.9050    2.7510 c3        1 CBP     -0.123400
      6 C6          0.5230    0.5150    2.8530 c3        1 CBP     -0.195200
      7 C7          0.4380    1.0090    4.2980 c3        1 CBP     -0.106900
      8 C8          1.8080    1.1740    4.9270 c3        1 CBP      0.136400
      9 O9          2.6350    2.0550    4.1740 os        1 CBP     -0.410600
     10 C10         2.8050    1.6400    2.8270 c3        1 CBP      0.136400
     11 C11         1.4830    1.4430    2.1050 c3        1 CBP     -0.106900
     12 S12        -1.1150    0.7250    2.1960 sy        1 CBP      1.350300
     13 O13        -1.9960   -0.0890    2.9230 o         1 CBP     -0.641300
     14 O14        -1.3850    2.1040    2.1700 o         1 CBP     -0.641300
     15 C15        -0.9670    0.1600    0.6320 ca        1 CBP     -0.426500
     16 C16        -1.4210   -1.1240    0.2880 ca        1 CBP      0.012500
     17 C17        -1.3640   -1.5880   -1.0180 ca        1 CBP     -0.204000
     18 C18        -0.8480   -0.7410   -2.0180 ca        1 CBP      0.188100
     19 C19        -0.4070    0.5530   -1.7060 ca        1 CBP     -0.204000
     20 C20        -0.4770    0.9870   -0.3890 ca        1 CBP      0.012500
     21 O21        -0.7900   -1.3040   -3.2790 os        1 CBP     -0.241200
     22 C22        -0.5160   -0.4470   -4.3480 ca        1 CBP      0.078100
     23 C23         0.5670   -0.7890   -5.1670 ca        1 CBP     -0.129000
     24 C24         0.7970   -0.0490   -6.3250 ca        1 CBP     -0.110500
     25 C25        -0.0440    1.0220   -6.6460 ca        1 CBP      0.013400
     26 C26        -1.1220    1.3590   -5.8190 ca        1 CBP     -0.110500
     27 C27        -1.3640    0.6220   -4.6630 ca        1 CBP     -0.129000
     28 CL28        0.2460    1.9240   -8.0550 cl        1 CBP     -0.079400
     29 HO1I       -1.4220   -3.6510    4.3280 ho        1 CBP      0.442000
     30 HN21        0.1560   -3.3530    2.1820 hn        1 CBP      0.290500
     31 HC51        2.1380   -0.9110    3.0630 hc        1 CBP      0.074700
     32 HC52        1.0180   -1.2160    1.6710 hc        1 CBP      0.074700
     33 HC71       -0.0800    2.0090    4.3000 hc        1 CBP      0.075700
     34 HC72       -0.1650    0.2940    4.9170 hc        1 CBP      0.075700
     35 HC81        1.7260    1.6730    5.9300 h1        1 CBP      0.052700
     36 HC82        2.3120    0.1770    5.0370 h1        1 CBP      0.052700
     37 H101        3.3860    2.4780    2.3560 h1        1 CBP      0.052700
     38 H102        3.4190    0.7000    2.8000 h1        1 CBP      0.052700
     39 H111        1.6910    1.0310    1.0830 hc        1 CBP      0.075700
     40 H112        0.9880    2.4480    1.9920 hc        1 CBP      0.075700
     41 H161       -1.8540   -1.7700    1.0760 ha        1 CBP      0.165500
     42 H171       -1.7200   -2.5930   -1.2850 ha        1 CBP      0.161000
     43 H191       -0.0180    1.2140   -2.4940 ha        1 CBP      0.161000
     44 H201       -0.1540    2.0150   -0.1390 ha        1 CBP      0.165500
     45 H231        1.2120   -1.6390   -4.9020 ha        1 CBP      0.156500
     46 H241        1.6410   -0.3100   -6.9820 ha        1 CBP      0.156500
     47 H261       -1.7830    2.2010   -6.0810 ha        1 CBP      0.156500
     48 H271       -2.2100    0.8700   -4.0040 ha        1 CBP      0.156500
@<TRIPOS>BOND
     1    1    2 1   
     2    1   29 1   
     3    2    3 1   
     4    2   30 1   
     5    3    4 2   
     6    3    5 1   
     7    5    6 1   
     8    5   31 1   
     9    5   32 1   
    10    6    7 1   
    11    6   11 1   
    12    6   12 1   
    13    7    8 1   
    14    7   33 1   
    15    7   34 1   
    16    8    9 1   
    17    8   35 1   
    18    8   36 1   
    19    9   10 1   
    20   10   11 1   
    21   10   37 1   
    22   10   38 1   
    23   11   39 1   
    24   11   40 1   
    25   12   13 2   
    26   12   14 2   
    27   12   15 1   
    28   15   16 ar  
    29   15   20 ar  
    30   16   17 ar  
    31   16   41 1   
    32   17   18 ar  
    33   17   42 1   
    34   18   19 ar  
    35   18   21 1   
    36   19   20 ar  
    37   19   43 1   
    38   20   44 1   
    39   21   22 1   
    40   22   23 ar  
    41   22   27 ar  
    42   23   24 ar  
    43   23   45 1   
    44   24   25 ar  
    45   24   46 1   
    46   25   26 ar  
    47   25   28 1   
    48   26   27 ar  
    49   26   47 1   
    50   27   48 1   
@<TRIPOS>SUBSTRUCTURE
     1 CBP         1 TEMP              0 ****  ****    0 ROOT
