@<TRIPOS>MOLECULE
CBQ
   22    20     1     0     0
SMALL
bcc


@<TRIPOS>ATOM
      1 O1         -1.2890   -2.4320    1.5930 o         1 CBQ     -0.886000
      2 P1         -1.0780   -2.7630    0.1350 p5        1 CBQ      1.118700
      3 O2         -0.0120   -3.8250    0.0090 o         1 CBQ     -0.886000
      4 O3         -2.3700   -3.2740   -0.4570 o         1 CBQ     -0.886000
      5 C1         -0.5540   -1.2690   -0.7550 c3        1 CBQ      0.197100
      6 N1          0.5310   -0.6630   -0.0650 nh        1 CBQ     -0.326000
      7 C2          0.3930    0.6480    0.4600 ce        1 CBQ     -0.246000
      8 N2         -0.7950    1.0460    0.9940 n1        1 CBQ     -0.185000
      9 C3         -0.9150    2.2880    1.5420 c1        1 CBQ      0.027500
     10 C4          0.1720    3.1480    1.5570 ch        1 CBQ     -0.521300
     11 CL1         0.0400    4.7080    2.3240 cl        1 CBQ     -0.234000
     12 C5          1.3630    2.7500    1.0220 cf        1 CBQ     -0.024700
     13 C6          1.4820    1.5060    0.4730 ce        1 CBQ     -0.239000
     14 P2         -0.0270   -1.7190   -2.4340 p5        1 CBQ      1.118700
     15 O4          0.3420   -0.4690   -3.1970 o         1 CBQ     -0.886000
     16 O5          1.1720   -2.6340   -2.3580 o         1 CBQ     -0.886000
     17 O6         -1.1560   -2.4270   -3.1430 o         1 CBQ     -0.886000
     18 H1         -1.3000   -0.6410   -0.8050 h1        1 CBQ      0.068700
     19 HN1         1.3080   -1.1240    0.0580 hn        1 CBQ      0.449800
     20 H3         -1.7670    2.5720    1.9250 ha        1 CBQ      0.001500
     21 H5          2.1290    3.3540    1.0320 ha        1 CBQ      0.041000
     22 H6          2.3330    1.2210    0.0900 ha        1 CBQ      0.068000
@<TRIPOS>BOND
     1    1    2 1   
     2    2    3 1   
     3    2    4 1   
     4    2    5 1   
     5    5    6 1   
     6    5   14 1   
     7    5   18 1   
     8    6    7 1   
     9    6   19 1   
    10    7    8 2   
    11    7   13 1   
    12    9   10 3   
    13    9   20 1   
    14   10   12 1   
    15   12   13 2   
    16   12   21 1   
    17   13   22 1   
    18   14   15 1   
    19   14   16 1   
    20   14   17 1   
@<TRIPOS>SUBSTRUCTURE
     1 CBQ         1 TEMP              0 ****  ****    0 ROOT
