@<TRIPOS>MOLECULE
CBQ
   23    22     1     0     0
SMALL
bcc


@<TRIPOS>ATOM
      1 O1          1.5010   -1.5590   -0.7100 o         1 CBQ     -1.193333
      2 P1          2.4940   -0.6850   -0.0380 p3        1 CBQ      2.535000
      3 O2          2.3610   -0.4470    1.4240 o         1 CBQ     -1.193333
      4 O3          3.9020   -0.8350   -0.5460 o         1 CBQ     -1.193333
      5 C1          2.1390    1.4400   -0.7890 c2        1 CBQ     -1.371000
      6 N1          3.3660    1.6190   -1.5120 n4        1 CBQ      0.122000
      7 C2          4.2660    2.7660   -1.2210 c2        1 CBQ     -0.047000
      8 N2          4.2470    3.3710   -0.0040 n2        1 CBQ     -0.110000
      9 C3          5.1230    4.3780    0.1850 c2        1 CBQ     -0.150000
     10 C4          6.0260    4.8050   -0.8010 c2        1 CBQ     -0.127000
     11 CL1         7.1070    6.1120   -0.4480 cl        1 CBQ     -0.180000
     12 C5          6.0340    4.1640   -2.0450 c2        1 CBQ     -0.154000
     13 C6          5.1490    3.1250   -2.2830 c1        1 CBQ     -0.397000
     14 P2          0.8020    2.0250   -1.5710 p5        1 CBQ      2.067000
     15 O4          1.0130    1.9450   -3.0570 o         1 CBQ     -0.915000
     16 O5         -0.5310    1.7700   -0.9700 o         1 CBQ     -0.915000
     17 O6          0.9610    3.6880   -1.4380 oh        1 CBQ     -0.846000
     18 H1          2.2070    1.6800    0.2870 hx        1 CBQ      0.163000
     19 HN1         3.1200    1.7140   -2.5150 hn        1 CBQ      0.257000
     20 H3          5.0860    4.8570    1.1760 h4        1 CBQ      0.115000
     21 H5          6.7360    4.4820   -2.8270 ha        1 CBQ      0.086000
     22 H6          1.3270    4.0450   -2.2360 ho        1 CBQ      0.191000
     23 H12         3.9790    0.7710   -1.3880 hn        1 CBQ      0.257000
@<TRIPOS>BOND
     1    1    2 1   
     2    2    3 1   
     3    2    4 1   
     4    5    6 1   
     5    5   14 1   
     6    5   18 1   
     7    6    7 1   
     8    6   19 1   
     9    6   23 1   
    10    7    8 1   
    11    7   13 1   
    12    8    9 1   
    13    9   10 1   
    14    9   20 1   
    15   10   11 1   
    16   10   12 1   
    17   12   13 1   
    18   12   21 1   
    19   14   15 1   
    20   14   16 1   
    21   14   17 1   
    22   17   22 1   
@<TRIPOS>SUBSTRUCTURE
     1 CBQ         1 TEMP              0 ****  ****    0 ROOT
