@<TRIPOS>MOLECULE
CBQ
   22    21     1     0     0
SMALL
bcc


@<TRIPOS>ATOM
      1 O1        153.1670  -37.5730  -76.1020 o         1 CBQ     -0.973167
      2 P1        153.0770  -36.2370  -75.3880 p5        1 CBQ      0.970900
      3 O2        151.8230  -36.0720  -74.5380 o         1 CBQ     -0.973167
      4 O3        153.3610  -35.0630  -76.3050 o         1 CBQ     -0.973167
      5 C1        154.3690  -36.2420  -74.2060 c2        1 CBQ      0.127000
      6 N1        154.0790  -36.1130  -72.9290 nh        1 CBQ     -0.427900
      7 C2        154.9060  -36.0880  -71.8370 ca        1 CBQ      0.203200
      8 N2        154.3300  -35.9340  -70.5390 nb        1 CBQ     -0.763000
      9 C3        155.1440  -35.9110  -69.5140 ca        1 CBQ      0.457200
     10 C4        156.5610  -36.0280  -69.5750 ca        1 CBQ     -0.470900
     11 CL1       157.5220  -35.9830  -68.1350 cl        1 CBQ     -0.310400
     12 C5        157.1560  -36.1830  -70.8550 ca        1 CBQ     -0.082000
     13 C6        156.3640  -36.2140  -71.9590 ca        1 CBQ     -0.257300
     14 P2       -697.0400  162.7640  323.4450 p4        1 CBQ      1.451300
     15 O4       -696.6680  163.7620  322.4270 o         1 CBQ     -0.800500
     16 O5       -697.0710  161.3320  323.0970 o         1 CBQ     -0.800500
     17 O6       -697.3820  163.1970  324.8120 o         1 CBQ     -0.849300
     18 H1        155.4080  -36.3500  -74.5260 h4        1 CBQ     -0.034200
     19 HN1       153.0770  -36.0210  -72.7650 hn        1 CBQ      0.456800
     20 H3        154.6640  -35.7910  -68.5240 h4        1 CBQ     -0.080900
     21 H5        158.2490  -36.2770  -70.9350 ha        1 CBQ      0.045000
     22 H6        156.7920  -36.3320  -72.9610 ha        1 CBQ      0.085000
@<TRIPOS>BOND
     1    1    2 1   
     2    2    3 1   
     3    2    4 1   
     4    2    5 2   
     5    5    6 1   
     6    5   18 1   
     7    6    7 1   
     8    6   19 1   
     9    7    8 ar  
    10    7   13 ar  
    11    8    9 ar  
    12    9   10 ar  
    13    9   20 1   
    14   10   11 1   
    15   10   12 ar  
    16   12   13 ar  
    17   12   21 1   
    18   13   22 1   
    19   14   15 1   
    20   14   16 1   
    21   14   17 2   
@<TRIPOS>SUBSTRUCTURE
     1 CBQ         1 TEMP              0 ****  ****    0 ROOT
