@<TRIPOS>MOLECULE
CBR
   32    33     1     0     0
SMALL
bcc


@<TRIPOS>ATOM
      1 BR          0.0800   -4.0170   -2.7840 br        1 CBR     -0.167700
      2 P          -3.8830    0.2720    4.0210 p5        1 CBR      1.438800
      3 OP1        -4.4790    0.4590    5.3610 o         1 CBR     -0.848500
      4 OP2        -4.9200   -0.7720    3.3060 oh        1 CBR     -0.785400
      5 O5'        -2.5830   -0.7280    4.1610 os        1 CBR     -0.585200
      6 N1          1.5600   -2.1100    0.5040 n         1 CBR     -0.330400
      7 C6          0.7780   -2.4570   -0.5490 c1        1 CBR     -0.048900
      8 C2          2.7440   -2.8630    0.8400 c         1 CBR      0.758500
      9 O2          3.4990   -2.4600    1.7660 o         1 CBR     -0.683100
     10 N3          3.0630   -4.0190    0.1220 ne        1 CBR     -0.797100
     11 C4          2.2830   -4.3620   -0.9330 cf        1 CBR      0.706500
     12 N4          2.6590   -5.4990   -1.6900 nh        1 CBR     -0.890800
     13 C5          1.1450   -3.5880   -1.3080 cf        1 CBR     -0.482000
     14 C2'         0.4860    0.1770    0.6100 c3        1 CBR     -0.107400
     15 C5'        -2.0060   -1.1960    2.9770 c3        1 CBR      0.192400
     16 C4'        -0.7040   -0.4460    2.6510 c3        1 CBR      0.087100
     17 O4'         0.3310   -1.4110    2.4290 os        1 CBR     -0.430600
     18 C1'         1.1960   -0.9800    1.3460 c3        1 CBR      0.319500
     19 C3'        -0.7970    0.4480    1.3970 c3        1 CBR      0.138100
     20 O3'        -0.8410    1.8220    1.7350 oh        1 CBR     -0.645800
     21 OP3        -3.5050    1.3360    3.0650 o         1 CBR     -0.848500
     22 H6         -5.4720   -1.2070    3.9450 ho        1 CBR      0.421000
     23 H41         1.8680   -5.9660   -2.0790 hn        1 CBR      0.370800
     24 H42         3.2660   -6.1290   -1.2090 hn        1 CBR      0.370800
     25 H2'         0.2390   -0.0970   -0.4460 hc        1 CBR      0.067200
     26 H2''        1.1440    1.0790    0.6070 hc        1 CBR      0.067200
     27 H5'        -1.7610   -2.2850    3.1290 h1        1 CBR      0.037700
     28 H5''       -2.7420   -1.0940    2.1330 h1        1 CBR      0.037700
     29 H4'        -0.3910    0.1730    3.5380 h1        1 CBR      0.058700
     30 H1'         2.1430   -0.6160    1.8500 h2        1 CBR      0.068700
     31 H3'        -1.7040    0.1840    0.7870 h1        1 CBR      0.053700
     32 HO3'       -1.7030    1.9710    2.1610 ho        1 CBR      0.457000
@<TRIPOS>BOND
     1    1   13 1   
     2    2    3 1   
     3    2    4 1   
     4    2    5 1   
     5    2   21 1   
     6    4   22 1   
     7    5   15 1   
     8    6    7 2   
     9    6    8 1   
    10    6   18 1   
    11    7   13 2   
    12    8    9 2   
    13    8   10 1   
    14   10   11 2   
    15   11   12 1   
    16   11   13 1   
    17   12   23 1   
    18   12   24 1   
    19   14   18 1   
    20   14   19 1   
    21   14   25 1   
    22   14   26 1   
    23   15   16 1   
    24   15   27 1   
    25   15   28 1   
    26   16   17 1   
    27   16   19 1   
    28   16   29 1   
    29   17   18 1   
    30   18   30 1   
    31   19   20 1   
    32   19   31 1   
    33   20   32 1   
@<TRIPOS>SUBSTRUCTURE
     1 CBR         1 TEMP              0 ****  ****    0 ROOT
