@<TRIPOS>MOLECULE
CBR
   32    31     1     0     0
SMALL
bcc


@<TRIPOS>ATOM
      1 BR         -0.6580   -0.9910   -4.7890 br        1 CBR      0.072000
      2 P          -1.7710    2.3950    2.6190 p3        1 CBR      2.523000
      3 OP1        -2.3170    3.1180    1.4110 o         1 CBR     -1.259500
      4 OP2        -2.9040    2.0620    3.5610 os        1 CBR     -1.227000
      5 O5'        -1.0600    1.0610    2.1570 os        1 CBR     -0.714000
      6 N1          0.2280   -1.3440   -0.6390 n         1 CBR     -0.254000
      7 C6          0.3490   -1.0930   -2.0310 c2        1 CBR      0.136000
      8 C2         -1.0890   -1.5830   -0.0520 c2        1 CBR      0.346000
      9 O2         -1.2030   -1.7040    1.1510 o         1 CBR     -0.378000
     10 N3         -2.2580   -1.7330   -0.9140 n2        1 CBR     -0.327000
     11 C4         -2.1500   -1.4790   -2.3060 c1        1 CBR      0.226000
     12 N4         -3.2870   -1.6200   -3.1430 n2        1 CBR     -0.347000
     13 C5         -0.8410   -1.1580   -2.8930 c2        1 CBR     -0.432000
     14 C2'         2.3490   -0.1470   -0.2050 c3        1 CBR     -0.209000
     15 C5'        -0.0570    1.1420    1.1710 c3        1 CBR      0.078000
     16 C4'         1.1630    0.4790    1.6560 c3        1 CBR     -0.063000
     17 O4'         1.0560   -1.1490    1.4210 os        1 CBR     -0.297000
     18 C1'         1.3820   -1.3570    0.1810 c3        1 CBR      0.141000
     19 C3'         2.2120    0.8860    0.9580 c3        1 CBR      0.044000
     20 O3'         3.4150    0.8730    1.7930 oh        1 CBR     -0.397000
     21 OP3        -0.7720    3.2800    3.3260 o         1 CBR     -1.259500
     22 H6          1.2280   -0.9330   -2.4240 h4        1 CBR      0.233000
     23 H41        -4.0950   -1.8510   -2.7820 hn        1 CBR      0.208500
     24 H42        -3.2160   -1.4660   -4.0410 hn        1 CBR      0.208500
     25 H2'         3.2730   -0.4610   -0.2710 hc        1 CBR      0.094500
     26 H2''        2.0660    0.2550   -1.0500 hc        1 CBR      0.094500
     27 H5'         0.1370    2.0820    0.9780 h1        1 CBR      0.034500
     28 H5''       -0.3670    0.6980    0.3540 h1        1 CBR      0.034500
     29 H4'         1.2960    0.6730    2.6050 h1        1 CBR      0.120000
     30 H1'         1.8540   -2.2100    0.0920 h2        1 CBR      0.130000
     31 H3'         2.0560    1.7820    0.6000 h1        1 CBR      0.139000
     32 HO3'        3.9810    1.4950    1.5070 ho        1 CBR      0.300000
@<TRIPOS>BOND
     1    1   13 1   
     2    2    3 1   
     3    2    5 1   
     4    2   21 1   
     5    5   15 1   
     6    6    7 1   
     7    6    8 1   
     8    6   18 1   
     9    7   13 1   
    10    7   22 1   
    11    8    9 1   
    12    8   10 1   
    13   10   11 1   
    14   11   13 1   
    15   12   23 1   
    16   12   24 1   
    17   14   18 1   
    18   14   19 1   
    19   14   25 1   
    20   14   26 1   
    21   15   16 1   
    22   15   27 1   
    23   15   28 1   
    24   16   17 1   
    25   16   19 1   
    26   16   29 1   
    27   17   18 1   
    28   18   30 1   
    29   19   20 1   
    30   19   31 1   
    31   20   32 1   
@<TRIPOS>SUBSTRUCTURE
     1 CBR         1 TEMP              0 ****  ****    0 ROOT
