@<TRIPOS>MOLECULE
CBS
   57    58     1     0     0
SMALL
bcc


@<TRIPOS>ATOM
      1 C1A        -0.1030    0.3580   -1.6150 c3        1 CBS      0.327900
      2 C2A         0.3580   -0.3880   -2.9050 c3        1 CBS      0.083700
      3 C3A        -0.5360    0.1470   -4.0540 c3        1 CBS      0.128100
      4 C4A        -2.0180   -0.0860   -3.7050 c3        1 CBS      0.076100
      5 C5A        -2.3560    0.5910   -2.3720 c3        1 CBS      0.073100
      6 C6A        -3.7600    0.2230   -1.8770 c3        1 CBS      0.143400
      7 C7A         2.6480   -1.2840   -3.1370 c         1 CBS      0.666100
      8 C8A         4.0610   -1.0020   -3.5850 c3        1 CBS     -0.176100
      9 N2A         1.7620   -0.2110   -3.1530 n         1 CBS     -0.553900
     10 O1A         0.5010   -0.2740   -0.5090 os        1 CBS     -0.386600
     11 O3A        -0.1860   -0.5530   -5.2330 oh        1 CBS     -0.591800
     12 O4A        -2.7510    0.4900   -4.7760 oh        1 CBS     -0.602800
     13 O5A        -1.4800    0.1240   -1.3500 os        1 CBS     -0.430600
     14 O6A        -4.0120    0.7710   -0.6050 oh        1 CBS     -0.599800
     15 O7A         2.3010   -2.4080   -2.7310 o         1 CBS     -0.591100
     16 C1B         1.4360    0.0710    3.3940 c3        1 CBS      0.317900
     17 C2B        -0.0920   -0.1080    3.1820 c3        1 CBS     -0.006300
     18 C3B        -0.3430   -0.5190    1.7110 c3        1 CBS      0.139100
     19 C4B         0.3780    0.4330    0.7330 c3        1 CBS      0.124100
     20 C5B         1.8160    0.7660    1.1670 c3        1 CBS      0.089100
     21 C6B         2.3420    1.9860    0.4010 c3        1 CBS      0.139400
     22 C7B        -1.0400   -0.5900    5.3960 c         1 CBS      0.661100
     23 C8B        -1.5110   -1.6340    6.3750 c3        1 CBS     -0.173100
     24 N2B        -0.6870   -1.0270    4.1200 n         1 CBS     -0.559900
     25 O1B         1.7760    0.5340    4.6650 oh        1 CBS     -0.579800
     26 O3B        -1.7240   -0.3930    1.4110 oh        1 CBS     -0.589800
     27 O5B         1.8860    1.1220    2.5440 os        1 CBS     -0.449600
     28 O6B         3.7140    2.1950    0.6500 oh        1 CBS     -0.596800
     29 O7B        -1.0070    0.6210    5.6870 o         1 CBS     -0.600100
     30 H1A         0.1100    1.4620   -1.6570 h2        1 CBS      0.040700
     31 H2A         0.1490   -1.4920   -2.7560 h1        1 CBS      0.125700
     32 H3A        -0.3660    1.2500   -4.2100 h1        1 CBS      0.046700
     33 H4A        -2.2230   -1.1910   -3.6450 h1        1 CBS      0.069700
     34 H5A        -2.2600    1.7080   -2.4720 h1        1 CBS      0.063700
     35 H61A       -4.5320    0.6740   -2.5550 h1        1 CBS      0.047700
     36 H62A       -3.8710   -0.8940   -1.8500 h1        1 CBS      0.047700
     37 H81A        4.6580   -1.9420   -3.4980 hc        1 CBS      0.068700
     38 H82A        4.0740   -0.6600   -4.6480 hc        1 CBS      0.068700
     39 H83A        4.5260   -0.2160   -2.9410 hc        1 CBS      0.068700
     40 HN2A        2.0210    0.5970   -3.6670 hn        1 CBS      0.303500
     41 HO3A       -0.8400   -0.3080   -5.9030 ho        1 CBS      0.424000
     42 HO4A       -3.6820    0.2880   -4.6200 ho        1 CBS      0.414000
     43 HO6A       -3.3100    0.4630   -0.0110 ho        1 CBS      0.435000
     44 H1B         2.0200   -0.8750    3.2250 h2        1 CBS      0.078700
     45 H2B        -0.5800    0.9040    3.3430 h1        1 CBS      0.111700
     46 H3B         0.0030   -1.5730    1.5220 h1        1 CBS      0.059700
     47 H4B        -0.2350    1.3670    0.6210 h1        1 CBS      0.082700
     48 H5B         2.4820   -0.1220    0.9750 h1        1 CBS      0.076700
     49 H61B        2.2640    1.7910   -0.7020 h1        1 CBS      0.054200
     50 H62B        1.7510    2.8980    0.6810 h1        1 CBS      0.054200
     51 H81B       -1.8330   -1.1240    7.3170 hc        1 CBS      0.069700
     52 H82B       -2.3750   -2.2060    5.9590 hc        1 CBS      0.069700
     53 H83B       -0.6820   -2.3440    6.6130 hc        1 CBS      0.069700
     54 HN2B       -0.4580   -1.9860    4.0070 hn        1 CBS      0.301500
     55 HO1B        1.2210    1.3020    4.8690 ho        1 CBS      0.435000
     56 HO3B       -2.1870   -1.0800    1.9050 ho        1 CBS      0.411000
     57 HO6B        3.8170    2.2900    1.6070 ho        1 CBS      0.419000
@<TRIPOS>BOND
     1    1    2 1   
     2    1   10 1   
     3    1   13 1   
     4    1   30 1   
     5    2    3 1   
     6    2    9 1   
     7    2   31 1   
     8    3    4 1   
     9    3   11 1   
    10    3   32 1   
    11    4    5 1   
    12    4   12 1   
    13    4   33 1   
    14    5    6 1   
    15    5   13 1   
    16    5   34 1   
    17    6   14 1   
    18    6   35 1   
    19    6   36 1   
    20    7    8 1   
    21    7    9 1   
    22    7   15 2   
    23    8   37 1   
    24    8   38 1   
    25    8   39 1   
    26    9   40 1   
    27   10   19 1   
    28   11   41 1   
    29   12   42 1   
    30   14   43 1   
    31   16   17 1   
    32   16   25 1   
    33   16   27 1   
    34   16   44 1   
    35   17   18 1   
    36   17   24 1   
    37   17   45 1   
    38   18   19 1   
    39   18   26 1   
    40   18   46 1   
    41   19   20 1   
    42   19   47 1   
    43   20   21 1   
    44   20   27 1   
    45   20   48 1   
    46   21   28 1   
    47   21   49 1   
    48   21   50 1   
    49   22   23 1   
    50   22   24 1   
    51   22   29 2   
    52   23   51 1   
    53   23   52 1   
    54   23   53 1   
    55   24   54 1   
    56   25   55 1   
    57   26   56 1   
    58   28   57 1   
@<TRIPOS>SUBSTRUCTURE
     1 CBS         1 TEMP              0 ****  ****    0 ROOT
