@<TRIPOS>MOLECULE
CBS
   57    56     1     0     0
SMALL
bcc


@<TRIPOS>ATOM
      1 C1A         0.2560   -0.8120   -0.3740 c3        1 CBS      0.140000
      2 C2A         1.8790   -0.9650   -0.4070 c3        1 CBS     -0.051000
      3 C3A         2.5160   -0.8310    0.9530 c3        1 CBS     -0.013000
      4 C4A         1.5730   -1.0360    1.9810 c3        1 CBS     -0.036000
      5 C5A         0.5370   -2.0110    1.9520 c3        1 CBS     -0.030000
      6 C6A        -0.5580   -1.6040    2.9580 c3        1 CBS     -0.039000
      7 C7A         3.4200   -2.3830   -1.7890 c1        1 CBS      0.308000
      8 C8A         3.7650   -3.7540   -2.3820 c2        1 CBS     -0.243000
      9 N2A         2.2030   -2.2230   -0.9370 n3        1 CBS     -0.371000
     10 O1A        -0.0620    0.1350    0.0970 os        1 CBS     -0.314000
     11 O3A         3.0850    0.5160    1.0860 oh        1 CBS     -0.309000
     12 O4A         2.4400   -1.3540    3.3240 oh        1 CBS     -0.312000
     13 O5A        -0.0500   -2.1330    0.6200 os        1 CBS     -0.257000
     14 O6A        -0.3930   -2.3520    4.1610 oh        1 CBS     -0.324000
     15 O7A         4.1360   -1.4140   -2.0250 o         1 CBS     -0.384000
     16 C1B        -2.3140    2.8310   -0.3240 c3        1 CBS      0.133000
     17 C2B        -2.4350    1.5260   -1.0690 c3        1 CBS     -0.016000
     18 C3B        -1.1740    1.1640   -1.7790 c3        1 CBS      0.009000
     19 C4B         0.0290    1.2100   -0.8680 c3        1 CBS     -0.035000
     20 C5B         0.1330    2.5160   -0.1230 c3        1 CBS      0.036000
     21 C6B         0.4670    3.6150   -1.1000 c3        1 CBS     -0.057000
     22 C7B        -4.1080   -0.0900   -0.1120 c1        1 CBS      0.306000
     23 C8B        -4.4930   -1.1110    0.9500 c2        1 CBS     -0.243000
     24 N2B        -2.7700    0.4700   -0.1250 n3        1 CBS     -0.382000
     25 O1B        -2.2210    3.8590   -1.2370 oh        1 CBS     -0.379000
     26 O3B        -0.9690    2.0970   -2.8780 oh        1 CBS     -0.324000
     27 O5B        -1.1120    2.8710    0.5720 os        1 CBS     -0.279000
     28 O6B         0.5350    4.8750   -0.4030 oh        1 CBS     -0.327000
     29 O7B        -4.9620    0.3310   -0.9040 o         1 CBS     -0.369000
     30 H1A        -0.1410   -0.9310   -1.2750 h2        1 CBS      0.137000
     31 H2A         2.2630   -0.2400   -1.0200 h1        1 CBS      0.135000
     32 H3A         3.2370   -1.4990    1.0390 h1        1 CBS      0.129000
     33 H4A         1.1190   -0.1460    2.1280 h1        1 CBS      0.135000
     34 H5A         0.9040   -2.8690    2.2140 h1        1 CBS      0.125000
     35 H61A       -1.4370   -1.7880    2.5750 h1        1 CBS      0.100000
     36 H62A       -0.4800   -0.6450    3.1560 h1        1 CBS      0.100000
     37 H81A        4.0160   -4.3610   -1.6670 ha        1 CBS      0.109833
     38 H82A        2.9980   -4.1060   -2.8480 ha        1 CBS      0.109833
     39 H83A        4.5010   -3.6610   -2.9990 ha        1 CBS      0.109833
     40 HN2A        1.6920   -2.9610   -0.7210 hn        1 CBS      0.231000
     41 HO3A        3.9780    0.4530    1.2590 ho        1 CBS      0.214000
     42 HO4A        2.9300   -2.1100    3.1970 ho        1 CBS      0.214000
     43 HO6A       -1.1320   -2.3120    4.6360 ho        1 CBS      0.213000
     44 H1B        -3.1160    2.9590    0.2180 h2        1 CBS      0.129000
     45 H2B        -3.1450    1.6020   -1.7170 h1        1 CBS      0.160000
     46 H3B        -1.2630    0.2610   -2.1420 h1        1 CBS      0.123000
     47 H4B         0.8220    1.0880   -1.3940 h1        1 CBS      0.133000
     48 H5B         0.8530    2.4470    0.5320 h1        1 CBS      0.129000
     49 H61B        1.3490    3.4260   -1.5270 h1        1 CBS      0.088000
     50 H62B       -0.2360    3.6610   -1.7990 h1        1 CBS      0.088000
     51 H81B       -4.2860   -0.7600    1.8240 ha        1 CBS      0.109833
     52 H82B       -3.9830   -1.9490    0.8020 ha        1 CBS      0.109833
     53 H83B       -5.4620   -1.3010    0.8920 ha        1 CBS      0.109833
     54 HN2B       -2.1450    0.2110    0.5310 hn        1 CBS      0.242000
     55 HO1B       -2.9520    4.3640   -1.1940 ho        1 CBS      0.245000
     56 HO3B       -1.2540    1.7440   -3.6120 ho        1 CBS      0.229000
     57 HO6B        1.0180    5.4770   -0.9070 ho        1 CBS      0.204000
@<TRIPOS>BOND
     1    1    2 1   
     2    1   10 1   
     3    1   13 1   
     4    1   30 1   
     5    2    3 1   
     6    2    9 1   
     7    2   31 1   
     8    3    4 1   
     9    3   11 1   
    10    3   32 1   
    11    4    5 1   
    12    4   12 1   
    13    4   33 1   
    14    5    6 1   
    15    5   13 1   
    16    5   34 1   
    17    6   14 1   
    18    6   35 1   
    19    6   36 1   
    20    7    9 1   
    21    7   15 1   
    22    8   37 1   
    23    8   38 1   
    24    8   39 1   
    25    9   40 1   
    26   10   19 1   
    27   11   41 1   
    28   12   42 1   
    29   14   43 1   
    30   16   17 1   
    31   16   25 1   
    32   16   27 1   
    33   16   44 1   
    34   17   18 1   
    35   17   24 1   
    36   17   45 1   
    37   18   19 1   
    38   18   26 1   
    39   18   46 1   
    40   19   20 1   
    41   19   47 1   
    42   20   21 1   
    43   20   27 1   
    44   20   48 1   
    45   21   28 1   
    46   21   49 1   
    47   21   50 1   
    48   22   24 1   
    49   22   29 1   
    50   23   51 1   
    51   23   52 1   
    52   23   53 1   
    53   24   54 1   
    54   25   55 1   
    55   26   56 1   
    56   28   57 1   
@<TRIPOS>SUBSTRUCTURE
     1 CBS         1 TEMP              0 ****  ****    0 ROOT
