@<TRIPOS>MOLECULE
CBT
   35    32     1     0     0
SMALL
bcc


@<TRIPOS>ATOM
      1 CL3        -6.0480   -0.9200   -2.7980 cl        1 CBT     -0.012000
      2 C29        -4.5300   -0.9050   -1.9350 c2        1 CBT     -0.053000
      3 C28        -4.4940   -1.2520   -0.5930 c2        1 CBT     -0.127000
      4 C26        -3.2800   -1.3130    0.0750 c1        1 CBT     -0.099000
      5 C27        -3.3520   -0.6180   -2.6090 c1        1 CBT     -0.128000
      6 C25        -2.1360   -0.6780   -1.9410 c1        1 CBT     -0.112000
      7 C22        -2.0990   -1.0250   -0.6000 c1        1 CBT     -0.122000
      8 C17        -0.7610   -1.2570    0.0850 c3        1 CBT      0.014000
      9 N13        -0.1200    0.0160    0.3390 nh        1 CBT     -0.225000
     10 C16        -0.1830    0.6000    1.6420 c2        1 CBT      0.012000
     11 N18        -0.4250   -0.0550    2.7910 nc        1 CBT     -0.137500
     12 N20        -0.3900    0.8420    3.7970 nc        1 CBT     -0.081000
     13 N21        -0.1270    2.0480    3.2690 nc        1 CBT     -0.081000
     14 N19         0.0020    1.9000    1.9360 nc        1 CBT     -0.137500
     15 C1          0.6320    0.6610   -0.7000 c3        1 CBT      0.014000
     16 C2          2.1180    0.6300   -0.3480 c2        1 CBT     -0.092000
     17 C3          2.7300    1.7610    0.1700 c2        1 CBT     -0.094000
     18 C5          4.0950    1.7610    0.4140 c1        1 CBT     -0.128000
     19 C7          4.8470    0.6310    0.1420 c1        1 CBT     -0.055000
     20 CL8         6.5370    0.5930    0.5500 cl        1 CBT     -0.017000
     21 C6          4.2350   -0.5010   -0.3750 c1        1 CBT     -0.130000
     22 C4          2.8700   -0.5000   -0.6200 c1        1 CBT     -0.107000
     23 H28        -5.3270   -1.4550   -0.1160 ha        1 CBT      0.150000
     24 H26        -3.2540   -1.5580    1.0230 ha        1 CBT      0.152000
     25 H27        -3.3770   -0.3730   -3.5550 ha        1 CBT      0.149000
     26 H25        -1.3060   -0.4760   -2.4170 ha        1 CBT      0.135000
     27 H171       -0.1870   -1.8000   -0.4950 h1        1 CBT      0.111000
     28 H172       -0.9040   -1.7250    0.9330 h1        1 CBT      0.111000
     29 H20        -0.5220    0.6610    4.6820 DU        1 CBT      0.301000
     30 H11         0.3360    1.5910   -0.7890 h1        1 CBT      0.102000
     31 H12         0.4880    0.1910   -1.5450 h1        1 CBT      0.102000
     32 H3          2.2020    2.5560    0.3610 ha        1 CBT      0.154000
     33 H5          4.5250    2.5550    0.7780 ha        1 CBT      0.149000
     34 H6          4.7630   -1.2940   -0.5670 ha        1 CBT      0.147000
     35 H4          2.4420   -1.2920   -0.9830 ha        1 CBT      0.132000
@<TRIPOS>BOND
     1    1    2 1   
     2    2    3 1   
     3    2    5 1   
     4    3    4 1   
     5    3   23 1   
     6    4   24 1   
     7    5   25 1   
     8    6    7 1   
     9    6   26 1   
    10    7    8 1   
    11    8    9 1   
    12    8   27 1   
    13    8   28 1   
    14    9   10 1   
    15    9   15 1   
    16   10   11 1   
    17   10   14 1   
    18   11   12 1   
    19   12   13 1   
    20   13   14 1   
    21   15   16 1   
    22   15   30 1   
    23   15   31 1   
    24   16   17 1   
    25   16   22 1   
    26   17   18 1   
    27   17   32 1   
    28   18   33 1   
    29   19   20 1   
    30   19   21 1   
    31   21   34 1   
    32   22   35 1   
@<TRIPOS>SUBSTRUCTURE
     1 CBT         1 TEMP              0 ****  ****    0 ROOT
