@<TRIPOS>MOLECULE
CBT
   35    37     1     0     0
SMALL
bcc


@<TRIPOS>ATOM
      1 CL3         0.2830    0.2590   -0.6880 cl        1 CBT     -0.091900
      2 C29         1.9520    0.1470   -0.3830 ca        1 CBT      0.023900
      3 C28         2.4120    0.0280    0.9310 ca        1 CBT     -0.128000
      4 C26         3.7810   -0.0660    1.1760 ca        1 CBT     -0.105500
      5 C27         2.8540    0.1770   -1.4510 ca        1 CBT     -0.128000
      6 C25         4.2200    0.0820   -1.1950 ca        1 CBT     -0.105500
      7 C22         4.6930   -0.0460    0.1160 ca        1 CBT     -0.113800
      8 C17         6.1710   -0.1170    0.3800 c3        1 CBT      0.255600
      9 N13         6.7630   -1.4390    0.3900 nh        1 CBT     -0.736300
     10 C16         6.7220   -2.2000    1.5520 cc        1 CBT      0.732900
     11 N18         7.2170   -3.4860    1.7300 nd        1 CBT     -0.561800
     12 N20         7.0090   -3.6940    3.0410 na        1 CBT      0.095900
     13 N21         6.4480   -2.6580    3.6800 nd        1 CBT     -0.134800
     14 N19         6.2390   -1.7280    2.8460 nc        1 CBT     -0.413000
     15 C1          6.8520   -2.1250   -0.8880 c3        1 CBT      0.255600
     16 C2          8.1260   -1.8120   -1.6220 ca        1 CBT     -0.113800
     17 C3          9.3120   -2.4700   -1.2780 ca        1 CBT     -0.105500
     18 C5         10.4890   -2.2060   -1.9750 ca        1 CBT     -0.128000
     19 C7         10.4780   -1.2780   -3.0210 ca        1 CBT      0.023900
     20 CL8        11.9110   -0.9540   -3.8770 cl        1 CBT     -0.091900
     21 C6          9.2990   -0.6110   -3.3680 ca        1 CBT     -0.128000
     22 C4          8.1270   -0.8800   -2.6630 ca        1 CBT     -0.105500
     23 H28         1.7010    0.0100    1.7710 ha        1 CBT      0.149000
     24 H26         4.1420   -0.1500    2.2130 ha        1 CBT      0.143500
     25 H27         2.4910    0.2770   -2.4850 ha        1 CBT      0.149000
     26 H25         4.9310    0.1180   -2.0360 ha        1 CBT      0.143500
     27 H171        6.7110    0.4500   -0.4370 h1        1 CBT      0.070450
     28 H172        6.3960    0.3930    1.3600 h1        1 CBT      0.070450
     29 H20         7.2880   -4.5440    3.4880 hn        1 CBT      0.351700
     30 H11         6.7840   -3.2430   -0.7530 h1        1 CBT      0.070450
     31 H12         5.9720   -1.8140   -1.5280 h1        1 CBT      0.070450
     32 H3          9.3130   -3.1970   -0.4510 ha        1 CBT      0.143500
     33 H5         11.4200   -2.7260   -1.7020 ha        1 CBT      0.149000
     34 H6          9.2940    0.1210   -4.1900 ha        1 CBT      0.149000
     35 H4          7.1990   -0.3530   -2.9320 ha        1 CBT      0.143500
@<TRIPOS>BOND
     1    1    2 1   
     2    2    3 ar  
     3    2    5 ar  
     4    3    4 ar  
     5    3   23 1   
     6    4    7 ar  
     7    4   24 1   
     8    5    6 ar  
     9    5   25 1   
    10    6    7 ar  
    11    6   26 1   
    12    7    8 1   
    13    8    9 1   
    14    8   27 1   
    15    8   28 1   
    16    9   10 1   
    17    9   15 1   
    18   10   11 2   
    19   10   14 1   
    20   11   12 1   
    21   12   13 1   
    22   12   29 1   
    23   13   14 2   
    24   15   16 1   
    25   15   30 1   
    26   15   31 1   
    27   16   17 ar  
    28   16   22 ar  
    29   17   18 ar  
    30   17   32 1   
    31   18   19 ar  
    32   18   33 1   
    33   19   20 1   
    34   19   21 ar  
    35   21   22 ar  
    36   21   34 1   
    37   22   35 1   
@<TRIPOS>SUBSTRUCTURE
     1 CBT         1 TEMP              0 ****  ****    0 ROOT
