@<TRIPOS>MOLECULE
CBT
   35    37     1     0     0
SMALL
bcc


@<TRIPOS>ATOM
      1 Cl3         0.1750    0.6650   -0.6770 cl        1 CBT     -0.091900
      2 C29         1.8300    0.3770   -0.4170 ca        1 CBT      0.023900
      3 C28         2.2900    0.0880    0.8720 ca        1 CBT     -0.127750
      4 C26         3.6480   -0.1450    1.0810 ca        1 CBT     -0.105250
      5 C27         2.7200    0.4320   -1.4940 ca        1 CBT     -0.127750
      6 C25         4.0750    0.1950   -1.2750 ca        1 CBT     -0.105250
      7 C22         4.5450   -0.0880    0.0100 ca        1 CBT     -0.113800
      8 C17         6.0140   -0.3100    0.2470 c3        1 CBT      0.256600
      9 N13         6.3660   -1.7190    0.2800 nh        1 CBT     -0.737300
     10 C16         6.8430   -2.2670    1.4640 cc        1 CBT      0.733900
     11 N18         7.5570   -3.4460    1.6270 nd        1 CBT     -0.566800
     12 N20         7.6490   -3.5440    2.9640 na        1 CBT      0.094900
     13 N21         7.0730   -2.5330    3.6290 nd        1 CBT     -0.134800
     14 N19         6.5670   -1.7270    2.7930 nc        1 CBT     -0.409000
     15 C1          6.7190   -2.3340   -0.9810 c3        1 CBT      0.256600
     16 C2          8.0400   -1.9320   -1.5750 ca        1 CBT     -0.113800
     17 C3          9.2000   -2.6560   -1.2810 ca        1 CBT     -0.105250
     18 C5         10.4190   -2.2990   -1.8530 ca        1 CBT     -0.127750
     19 C7         10.4790   -1.2110   -2.7300 ca        1 CBT      0.023900
     20 Cl8        11.9630   -0.7710   -3.4300 cl        1 CBT     -0.091900
     21 C6          9.3240   -0.4850   -3.0380 ca        1 CBT     -0.127750
     22 C4          8.1100   -0.8500   -2.4590 ca        1 CBT     -0.105250
     23 H28         1.5860    0.0430    1.7170 ha        1 CBT      0.149000
     24 H26         4.0170   -0.3780    2.0930 ha        1 CBT      0.143000
     25 H27         2.3550    0.6580   -2.5070 ha        1 CBT      0.149000
     26 H25         4.7780    0.2340   -2.1220 ha        1 CBT      0.143000
     27 H171        6.3020    0.2030    1.2090 h1        1 CBT      0.070200
     28 H172        6.5990    0.1880   -0.5830 h1        1 CBT      0.070200
     29 H20         8.1140   -4.3120    3.4040 hn        1 CBT      0.350700
     30 H11         6.6960   -3.4550   -0.8590 h1        1 CBT      0.070200
     31 H12         5.8960   -2.0490   -1.7040 h1        1 CBT      0.070200
     32 H3          9.1530   -3.5170   -0.5960 ha        1 CBT      0.143000
     33 H5         11.3290   -2.8720   -1.6160 ha        1 CBT      0.149000
     34 H6          9.3710    0.3680   -3.7320 ha        1 CBT      0.149000
     35 H4          7.2000   -0.2840   -2.7100 ha        1 CBT      0.143000
@<TRIPOS>BOND
     1    1    2 1   
     2    2    3 ar  
     3    2    5 ar  
     4    3    4 ar  
     5    3   23 1   
     6    4    7 ar  
     7    4   24 1   
     8    5    6 ar  
     9    5   25 1   
    10    6    7 ar  
    11    6   26 1   
    12    7    8 1   
    13    8    9 1   
    14    8   27 1   
    15    8   28 1   
    16    9   10 1   
    17    9   15 1   
    18   10   11 2   
    19   10   14 1   
    20   11   12 1   
    21   12   13 1   
    22   12   29 1   
    23   13   14 2   
    24   15   16 1   
    25   15   30 1   
    26   15   31 1   
    27   16   17 ar  
    28   16   22 ar  
    29   17   18 ar  
    30   17   32 1   
    31   18   19 ar  
    32   18   33 1   
    33   19   20 1   
    34   19   21 ar  
    35   21   22 ar  
    36   21   34 1   
    37   22   35 1   
@<TRIPOS>SUBSTRUCTURE
     1 CBT         1 TEMP              0 ****  ****    0 ROOT
