@<TRIPOS>MOLECULE
CBT
   35    37     1     0     0
SMALL
bcc


@<TRIPOS>ATOM
      1 CL3        -1.9460    0.4780   -5.9920 cl        1 CBT     -0.091900
      2 C29        -1.3560    0.0140   -4.4670 ca        1 CBT      0.023900
      3 C28        -0.0810   -0.5500   -4.3570 ca        1 CBT     -0.128000
      4 C26         0.3990   -0.9280   -3.1040 ca        1 CBT     -0.105500
      5 C27        -2.1520    0.1950   -3.3320 ca        1 CBT     -0.128000
      6 C25        -1.6620   -0.1860   -2.0850 ca        1 CBT     -0.105500
      7 C22        -0.3840   -0.7430   -1.9610 ca        1 CBT     -0.113800
      8 C17         0.1200   -1.1770   -0.6130 c3        1 CBT      0.256100
      9 N13         0.8460   -0.1870    0.1550 nh        1 CBT     -0.736300
     10 C16         2.2070   -0.0090   -0.0640 cc        1 CBT      0.733900
     11 N18         3.0450    0.9020    0.5650 nd        1 CBT     -0.562800
     12 N20         4.2480    0.5820    0.0600 na        1 CBT      0.095900
     13 N21         4.2260   -0.4430   -0.8040 nd        1 CBT     -0.134800
     14 N19         3.0310   -0.8430   -0.9340 nc        1 CBT     -0.413000
     15 C1          0.0750    0.9250    0.6830 c3        1 CBT      0.256100
     16 C2         -0.4850    0.6400    2.0500 ca        1 CBT     -0.113800
     17 C3          0.3170    0.8000    3.1830 ca        1 CBT     -0.105500
     18 C5         -0.2060    0.5670    4.4540 ca        1 CBT     -0.128000
     19 C7         -1.5400    0.1680    4.5880 ca        1 CBT      0.023900
     20 CL8        -2.1840   -0.1160    6.1350 cl        1 CBT     -0.091900
     21 C6         -2.3480   -0.0010    3.4590 ca        1 CBT     -0.128000
     22 C4         -1.8150    0.2330    2.1930 ca        1 CBT     -0.105500
     23 H28         0.5420   -0.6970   -5.2530 ha        1 CBT      0.149000
     24 H26         1.4010   -1.3800   -3.0210 ha        1 CBT      0.143500
     25 H27        -3.1570    0.6320   -3.4210 ha        1 CBT      0.149000
     26 H25        -2.2940   -0.0530   -1.1920 ha        1 CBT      0.143500
     27 H171       -0.7660   -1.4680    0.0270 h1        1 CBT      0.070200
     28 H172        0.7680   -2.0920   -0.7380 h1        1 CBT      0.070200
     29 H20         5.0800    1.0570    0.3450 hn        1 CBT      0.351700
     30 H11         0.7020    1.8600    0.7430 h1        1 CBT      0.070200
     31 H12        -0.7790    1.1430   -0.0260 h1        1 CBT      0.070200
     32 H3          1.3670    1.1110    3.0700 ha        1 CBT      0.143500
     33 H5          0.4280    0.6950    5.3440 ha        1 CBT      0.149000
     34 H6         -3.3960   -0.3180    3.5670 ha        1 CBT      0.149000
     35 H4         -2.4480    0.0960    1.3030 ha        1 CBT      0.143500
@<TRIPOS>BOND
     1    1    2 1   
     2    2    3 ar  
     3    2    5 ar  
     4    3    4 ar  
     5    3   23 1   
     6    4    7 ar  
     7    4   24 1   
     8    5    6 ar  
     9    5   25 1   
    10    6    7 ar  
    11    6   26 1   
    12    7    8 1   
    13    8    9 1   
    14    8   27 1   
    15    8   28 1   
    16    9   10 1   
    17    9   15 1   
    18   10   11 2   
    19   10   14 1   
    20   11   12 1   
    21   12   13 1   
    22   12   29 1   
    23   13   14 2   
    24   15   16 1   
    25   15   30 1   
    26   15   31 1   
    27   16   17 ar  
    28   16   22 ar  
    29   17   18 ar  
    30   17   32 1   
    31   18   19 ar  
    32   18   33 1   
    33   19   20 1   
    34   19   21 ar  
    35   21   22 ar  
    36   21   34 1   
    37   22   35 1   
@<TRIPOS>SUBSTRUCTURE
     1 CBT         1 TEMP              0 ****  ****    0 ROOT
