@<TRIPOS>MOLECULE
CBT
   36    38     1     0     0
SMALL
bcc


@<TRIPOS>ATOM
      1 CL3         0.3550   -2.0450    0.0130 cl        1 CBT     -0.029400
      2 C29         1.8660   -1.2940    0.0690 ca        1 CBT      0.055400
      3 C28         2.4620   -1.0140    1.3050 ca        1 CBT     -0.120750
      4 C26         3.7090   -0.3970    1.3470 ca        1 CBT     -0.089000
      5 C27         2.5180   -0.9470   -1.1230 ca        1 CBT     -0.120750
      6 C25         3.7630   -0.3290   -1.0730 ca        1 CBT     -0.089000
      7 C22         4.3690   -0.0560    0.1600 ca        1 CBT     -0.181300
      8 C17         5.6670    0.6680    0.2160 c3        1 CBT      0.186100
      9 N13         6.8870   -0.2080    0.0040 n4        1 CBT     -0.636100
     10 C16         6.9780   -1.2280    1.0370 cc        1 CBT      0.521900
     11 N18         6.7420   -2.5850    0.9230 nd        1 CBT     -0.401800
     12 N20         6.9690   -3.0110    2.1570 na        1 CBT      0.139900
     13 N21         7.3250   -2.0340    3.0240 nd        1 CBT     -0.086800
     14 N19         7.3460   -0.9310    2.4040 nc        1 CBT     -0.323000
     15 C1          6.9360   -0.7790   -1.3950 c3        1 CBT      0.186100
     16 C2          8.2730   -1.3410   -1.7270 ca        1 CBT     -0.181300
     17 C3          8.4340   -2.7200   -1.8980 ca        1 CBT     -0.089000
     18 C5          9.6750   -3.2390   -2.2620 ca        1 CBT     -0.120750
     19 C7         10.7620   -2.3770   -2.4500 ca        1 CBT      0.055400
     20 CL8        12.2690   -3.0030   -2.8850 cl        1 CBT     -0.029400
     21 C6         10.6040   -0.9930   -2.2820 ca        1 CBT     -0.120750
     22 C4          9.3620   -0.4810   -1.9260 ca        1 CBT     -0.089000
     23 H28         1.9430   -1.2720    2.2430 ha        1 CBT      0.171000
     24 H26         4.1630   -0.1620    2.3240 ha        1 CBT      0.142750
     25 H27         2.0420   -1.1540   -2.0960 ha        1 CBT      0.171000
     26 H25         4.2600   -0.0390   -2.0130 ha        1 CBT      0.142750
     27 H171        5.7110    1.4570   -0.5910 hx        1 CBT      0.111200
     28 H172        5.7960    1.1640    1.2230 hx        1 CBT      0.111200
     29 H20         6.8900   -3.9860    2.4150 hn        1 CBT      0.391700
     30 H11         6.1200   -1.5520   -1.4920 hx        1 CBT      0.111200
     31 H12         6.6990    0.0840   -2.0860 hx        1 CBT      0.111200
     32 H3          7.5800   -3.4020   -1.7580 ha        1 CBT      0.142750
     33 H5          9.7960   -4.3260   -2.4050 ha        1 CBT      0.171000
     34 H6         11.4590   -0.3150   -2.4390 ha        1 CBT      0.171000
     35 H4          9.2390    0.6080   -1.8210 ha        1 CBT      0.142750
     36 H131        7.7240    0.3920    0.1180 hn        1 CBT      0.468800
@<TRIPOS>BOND
     1    1    2 1   
     2    2    3 ar  
     3    2    5 ar  
     4    3    4 ar  
     5    3   23 1   
     6    4    7 ar  
     7    4   24 1   
     8    5    6 ar  
     9    5   25 1   
    10    6    7 ar  
    11    6   26 1   
    12    7    8 1   
    13    8    9 1   
    14    8   27 1   
    15    8   28 1   
    16    9   10 1   
    17    9   15 1   
    18    9   36 1   
    19   10   11 2   
    20   10   14 1   
    21   11   12 1   
    22   12   13 1   
    23   12   29 1   
    24   13   14 2   
    25   15   16 1   
    26   15   30 1   
    27   15   31 1   
    28   16   17 ar  
    29   16   22 ar  
    30   17   18 ar  
    31   17   32 1   
    32   18   19 ar  
    33   18   33 1   
    34   19   20 1   
    35   19   21 ar  
    36   21   22 ar  
    37   21   34 1   
    38   22   35 1   
@<TRIPOS>SUBSTRUCTURE
     1 CBT         1 TEMP              0 ****  ****    0 ROOT
