@<TRIPOS>MOLECULE
CBU
   24    24     1     0     0
SMALL
bcc


@<TRIPOS>ATOM
      1 C1          0.7380   -1.0800   -0.1070 c3        1 CBU      0.110433
      2 C2         -0.7790   -1.0360    0.1180 c3        1 CBU      0.110433
      3 C3         -1.3840    0.2220   -0.5320 c3        1 CBU      0.110433
      4 C4         -0.7350    1.5150   -0.0270 c3        1 CBU      0.110433
      5 C5          0.7940    1.4780   -0.1680 c3        1 CBU      0.110433
      6 C6          1.3860    0.2030    0.4460 c3        1 CBU      0.110433
      7 O1          1.2390   -2.1940    0.6090 oh        1 CBU     -0.595133
      8 O2         -1.3210   -2.1940   -0.4940 oh        1 CBU     -0.595133
      9 O3         -2.7810    0.2350   -0.3120 oh        1 CBU     -0.595133
     10 O4         -1.0990    1.6580    1.3390 oh        1 CBU     -0.595133
     11 O6          2.7630    0.1100    0.1030 oh        1 CBU     -0.595133
     12 OXT         1.0890    1.6080   -1.5480 oh        1 CBU     -0.595133
     13 H1          0.9650   -1.1810   -1.2040 h1        1 CBU      0.069200
     14 H2         -1.0040   -1.0480    1.2210 h1        1 CBU      0.069200
     15 H6          1.2530    0.2350    1.5620 h1        1 CBU      0.069200
     16 HA          2.1770   -2.2590    0.3850 ho        1 CBU      0.415500
     17 H3         -1.2660    0.1680   -1.6520 h1        1 CBU      0.069200
     18 HB         -2.2820   -2.0800   -0.4880 ho        1 CBU      0.415500
     19 H4         -1.1370    2.3790   -0.6290 h1        1 CBU      0.069200
     20 HC         -2.9240    0.4260    0.6250 ho        1 CBU      0.415500
     21 H5          1.2340    2.3700    0.3670 h1        1 CBU      0.069200
     22 HD         -0.9110    2.5710    1.5870 ho        1 CBU      0.415500
     23 HOT         1.9340    1.1610   -1.7050 ho        1 CBU      0.415500
     24 HE          3.2340    0.7550    0.6420 ho        1 CBU      0.415500
@<TRIPOS>BOND
     1    1    2 1   
     2    1    6 1   
     3    1    7 1   
     4    1   13 1   
     5    2    3 1   
     6    2    8 1   
     7    2   14 1   
     8    3    4 1   
     9    3    9 1   
    10    3   17 1   
    11    4    5 1   
    12    4   10 1   
    13    4   19 1   
    14    5    6 1   
    15    5   12 1   
    16    5   21 1   
    17    6   11 1   
    18    6   15 1   
    19    7   16 1   
    20    8   18 1   
    21    9   20 1   
    22   10   22 1   
    23   11   24 1   
    24   12   23 1   
@<TRIPOS>SUBSTRUCTURE
     1 CBU         1 TEMP              0 ****  ****    0 ROOT
