@<TRIPOS>MOLECULE
CBU
   24    24     1     0     0
SMALL
bcc


@<TRIPOS>ATOM
      1 C1         -0.7610    0.6550   -1.1320 c3        1 CBU      0.104267
      2 C2          0.7590    0.6550   -1.1320 c3        1 CBU      0.104267
      3 C3          1.3400    0.6550    0.2740 c3        1 CBU      0.104267
      4 C4          0.7590   -0.4500    1.1440 c3        1 CBU      0.104267
      5 C5         -0.7620   -0.4510    1.1440 c3        1 CBU      0.104267
      6 C6         -1.3430   -0.4510   -0.2610 c3        1 CBU      0.104267
      7 O1         -1.2190    1.9060   -0.6500 oh        1 CBU     -0.599633
      8 O2          1.2170   -0.4980   -1.8170 oh        1 CBU     -0.599633
      9 O3          2.7430    0.4800    0.1890 oh        1 CBU     -0.599633
     10 O4          1.2160   -1.7010    0.6610 oh        1 CBU     -0.599633
     11 O6         -2.7460   -0.2760   -0.1760 oh        1 CBU     -0.599633
     12 OXT        -1.2200   -1.6040    1.8290 oh        1 CBU     -0.599633
     13 H1         -1.0770    0.5350   -2.0480 h1        1 CBU      0.079367
     14 H2          1.0750    1.4490   -1.6040 h1        1 CBU      0.079367
     15 H6         -1.1570   -1.3130   -0.6800 h1        1 CBU      0.079367
     16 HA         -1.5750    2.3680   -1.3180 ho        1 CBU      0.415833
     17 H3          1.1540    1.5170    0.6920 h1        1 CBU      0.079367
     18 HB          1.5450   -0.2630   -2.6070 ho        1 CBU      0.415833
     19 H4          1.0740   -0.3300    2.0600 h1        1 CBU      0.079367
     20 HC          3.1510    1.1900    0.5320 ho        1 CBU      0.415833
     21 H5         -1.0780    0.3430    1.6160 h1        1 CBU      0.079367
     22 HD          1.6500   -2.1270    1.3080 ho        1 CBU      0.415833
     23 HOT        -1.5890   -1.3640    2.6000 ho        1 CBU      0.415833
     24 HE         -3.1530   -0.9260   -0.6230 ho        1 CBU      0.415833
@<TRIPOS>BOND
     1    1    2 1   
     2    1    6 1   
     3    1    7 1   
     4    1   13 1   
     5    2    3 1   
     6    2    8 1   
     7    2   14 1   
     8    3    4 1   
     9    3    9 1   
    10    3   17 1   
    11    4    5 1   
    12    4   10 1   
    13    4   19 1   
    14    5    6 1   
    15    5   12 1   
    16    5   21 1   
    17    6   11 1   
    18    6   15 1   
    19    7   16 1   
    20    8   18 1   
    21    9   20 1   
    22   10   22 1   
    23   11   24 1   
    24   12   23 1   
@<TRIPOS>SUBSTRUCTURE
     1 CBU         1 TEMP              0 ****  ****    0 ROOT
