@<TRIPOS>MOLECULE
CBU
   24    24     1     0     0
SMALL
bcc


@<TRIPOS>ATOM
      1 C1         -0.0020    0.0520    0.1200 c3        1 CBU      0.114767
      2 C2          1.5310    0.0770    0.1050 c3        1 CBU      0.114767
      3 C3          2.0490    0.0520    1.5510 c3        1 CBU      0.114767
      4 C4          1.5310    1.2720    2.3320 c3        1 CBU      0.114767
      5 C5         -0.0020    1.3840    2.2680 c3        1 CBU      0.114767
      6 C6         -0.5190    1.3170    0.8210 c3        1 CBU      0.114767
      7 O1         -0.5150    0.0750   -1.2040 oh        1 CBU     -0.608133
      8 O2          2.0450   -1.0810   -0.5360 oh        1 CBU     -0.608133
      9 O3          3.4640    0.1370    1.5720 oh        1 CBU     -0.608133
     10 O4          2.0450    2.4850    1.8040 oh        1 CBU     -0.608133
     11 O6         -1.9350    1.2930    0.9040 oh        1 CBU     -0.608133
     12 OXT        -0.5160    0.3210    3.0540 oh        1 CBU     -0.608133
     13 H1         -0.3700   -0.8610    0.6650 h1        1 CBU      0.072033
     14 H2          1.8990    1.0060   -0.4130 h1        1 CBU      0.072033
     15 H6         -0.1810    2.2310    0.2580 h1        1 CBU      0.072033
     16 HA         -0.4060   -0.8170   -1.5570 ho        1 CBU      0.421333
     17 H3          1.7100   -0.8910    2.0620 h1        1 CBU      0.072033
     18 HB          1.9350   -0.9420   -1.4840 ho        1 CBU      0.421333
     19 H4          1.8460    1.1640    3.4090 h1        1 CBU      0.072033
     20 HC          3.7910   -0.5860    1.0200 ho        1 CBU      0.421333
     21 H5         -0.3170    2.3710    2.7110 h1        1 CBU      0.072033
     22 HD          3.0070    2.3840    1.7790 ho        1 CBU      0.421333
     23 HOT        -1.4780    0.3490    2.9540 ho        1 CBU      0.421333
     24 HE         -2.2620    1.1750    0.0020 ho        1 CBU      0.421333
@<TRIPOS>BOND
     1    1    2 1   
     2    1    6 1   
     3    1    7 1   
     4    1   13 1   
     5    2    3 1   
     6    2    8 1   
     7    2   14 1   
     8    3    4 1   
     9    3    9 1   
    10    3   17 1   
    11    4    5 1   
    12    4   10 1   
    13    4   19 1   
    14    5    6 1   
    15    5   12 1   
    16    5   21 1   
    17    6   11 1   
    18    6   15 1   
    19    7   16 1   
    20    8   18 1   
    21    9   20 1   
    22   10   22 1   
    23   11   24 1   
    24   12   23 1   
@<TRIPOS>SUBSTRUCTURE
     1 CBU         1 TEMP              0 ****  ****    0 ROOT
