@<TRIPOS>MOLECULE
CBV
   33    33     1     0     0
SMALL
bcc


@<TRIPOS>ATOM
      1 O3P        -2.6920   -3.8310    0.0060 o         1 CBV     -0.921500
      2 P          -1.3280   -3.9400   -0.5950 p5        1 CBV      1.559500
      3 O1P        -0.2980   -4.1320    0.5160 o         1 CBV     -0.921500
      4 O2P        -1.2840   -5.1250   -1.5360 o         1 CBV     -0.921500
      5 O5'        -0.9900   -2.5830   -1.4190 os        1 CBV     -0.739000
      6 C5'        -0.8530   -1.3500   -0.6860 c3        1 CBV      0.048000
      7 C4'        -1.4440   -0.1920   -1.5120 c3        1 CBV     -0.050000
      8 O4'        -1.7200    1.0680   -0.5700 os        1 CBV     -0.295000
      9 C3'        -0.5940    0.2000   -2.4020 c3        1 CBV     -0.022000
     10 O3'        -1.3080    0.7140   -3.6030 oh        1 CBV     -0.398000
     11 C2'         0.1970    1.3410   -1.7250 c3        1 CBV     -0.003000
     12 O2'         0.2510    2.4170   -2.5360 oh        1 CBV     -0.342000
     13 C1'        -0.5860    1.6800   -0.4450 c3        1 CBV      0.108000
     14 N1          0.1230    1.1880    0.7340 n         1 CBV     -0.253000
     15 C2         -0.6320    0.7990    1.9280 c2        1 CBV      0.346000
     16 O2         -1.8530    0.6530    1.8610 o         1 CBV     -0.386000
     17 N3          0.0340    0.7410    3.2190 n2        1 CBV     -0.333000
     18 C4          1.4550    0.7590    3.2850 c1        1 CBV      0.219000
     19 N4          2.1160    0.6560    4.5560 n2        1 CBV     -0.345000
     20 C5          2.2360    1.0320    2.0690 c2        1 CBV     -0.428000
     21 C6          1.5360    1.2220    0.7760 c2        1 CBV      0.127000
     22 BR          4.1250    1.2680    2.1780 br        1 CBV      0.085000
     23 H5'1       -1.3370   -1.4220    0.1720 h1        1 CBV      0.057500
     24 H5'2        0.0820   -1.1780   -0.5140 h1        1 CBV      0.057500
     25 H4'        -2.2890   -0.4820   -1.9500 h1        1 CBV      0.083000
     26 H3'         0.0110   -0.5370   -2.6490 h1        1 CBV      0.205000
     27 HO3'       -1.1230    0.2310   -4.2710 ho        1 CBV      0.295000
     28 H2'         1.1040    1.0390   -1.5000 h1        1 CBV      0.112000
     29 HO2'        1.0810    2.4860   -2.8900 ho        1 CBV      0.221000
     30 H1'        -0.7240    2.6230   -0.3800 h2        1 CBV      0.148000
     31 HN41        3.0290    0.6750    4.5990 hn        1 CBV      0.203500
     32 HN42        1.6130    0.5710    5.3390 hn        1 CBV      0.203500
     33 H6          2.0620    1.4100   -0.0590 h4        1 CBV      0.282000
@<TRIPOS>BOND
     1    1    2 1   
     2    2    3 1   
     3    2    4 1   
     4    2    5 1   
     5    5    6 1   
     6    6    7 1   
     7    6   23 1   
     8    6   24 1   
     9    7    8 1   
    10    7    9 1   
    11    7   25 1   
    12    8   13 1   
    13    9   10 1   
    14    9   11 1   
    15    9   26 1   
    16   10   27 1   
    17   11   12 1   
    18   11   13 1   
    19   11   28 1   
    20   12   29 1   
    21   13   14 1   
    22   13   30 1   
    23   14   15 1   
    24   14   21 1   
    25   15   16 1   
    26   15   17 1   
    27   17   18 1   
    28   18   20 1   
    29   19   31 1   
    30   19   32 1   
    31   20   21 1   
    32   20   22 1   
    33   21   33 1   
@<TRIPOS>SUBSTRUCTURE
     1 CBV         1 TEMP              0 ****  ****    0 ROOT
