@<TRIPOS>MOLECULE
CBV
   33    34     1     0     0
SMALL
bcc


@<TRIPOS>ATOM
      1 O3P        -4.4190   -0.2030    0.3240 o         1 CBV     -0.928167
      2 P          -4.5160    0.8280   -0.7850 p5        1 CBV      1.333900
      3 O1P        -5.7690    0.8320   -1.6010 o         1 CBV     -0.928167
      4 O2P        -3.8690    2.1400   -0.4480 o         1 CBV     -0.928167
      5 O5'        -3.3250    0.1230   -1.8540 os        1 CBV     -0.552200
      6 C5'        -2.0710    0.0740   -1.3170 c3        1 CBV      0.228400
      7 C4'        -1.7310   -1.3660   -0.8600 c3        1 CBV      0.046100
      8 O4'        -0.3210   -1.6330   -1.0710 os        1 CBV     -0.437600
      9 C3'        -2.0540   -1.6400    0.6210 c3        1 CBV      0.127100
     10 O3'        -3.1230   -2.5470    0.7450 oh        1 CBV     -0.680800
     11 C2'        -0.7820   -2.2880    1.2110 c3        1 CBV      0.102100
     12 O2'        -0.8700   -3.6780    1.4330 oh        1 CBV     -0.609800
     13 C1'         0.3200   -2.0320    0.1290 c3        1 CBV      0.252500
     14 N1          1.3050   -1.0070    0.5300 n         1 CBV     -0.358000
     15 C2          2.6270   -1.4050    0.9480 c         1 CBV      0.828900
     16 O2          2.9210   -2.6200    0.9510 o         1 CBV     -0.639500
     17 N3          3.5560   -0.4360    1.3560 nc        1 CBV     -0.752100
     18 C4          3.2220    0.8640    1.2840 cd        1 CBV      0.751500
     19 N4          4.1800    1.8230    1.6100 nh        1 CBV     -0.907800
     20 C5          1.9100    1.2980    0.8300 cd        1 CBV     -0.391900
     21 C6          1.0000    0.3160    0.4630 cc        1 CBV      0.134600
     22 BR          1.4340    3.0890    0.7210 br        1 CBV     -0.053700
     23 H5'1       -1.9780    0.7860   -0.4460 h1        1 CBV     -0.002300
     24 H5'2       -1.3060    0.3540   -2.1010 h1        1 CBV     -0.002300
     25 H4'        -2.2730   -2.0970   -1.5190 h1        1 CBV      0.079700
     26 H3'        -2.3030   -0.6840    1.1620 h1        1 CBV      0.113700
     27 HO3'       -3.9410   -2.0060    0.6070 ho        1 CBV      0.516000
     28 H2'        -0.5130   -1.8430    2.2040 h1        1 CBV      0.063700
     29 HO2'       -1.6210   -4.0120    0.9220 ho        1 CBV      0.429000
     30 H1'         0.9000   -2.9760   -0.0950 h2        1 CBV      0.108700
     31 HN41        4.9790    1.5130    2.1120 hn        1 CBV      0.412800
     32 HN42        3.8240    2.7140    1.8690 hn        1 CBV      0.412800
     33 H6         -0.0250    0.5720    0.0920 h4        1 CBV      0.230000
@<TRIPOS>BOND
     1    1    2 1   
     2    2    3 1   
     3    2    4 1   
     4    2    5 1   
     5    5    6 1   
     6    6    7 1   
     7    6   23 1   
     8    6   24 1   
     9    7    8 1   
    10    7    9 1   
    11    7   25 1   
    12    8   13 1   
    13    9   10 1   
    14    9   11 1   
    15    9   26 1   
    16   10   27 1   
    17   11   12 1   
    18   11   13 1   
    19   11   28 1   
    20   12   29 1   
    21   13   14 1   
    22   13   30 1   
    23   14   15 1   
    24   14   21 1   
    25   15   16 2   
    26   15   17 1   
    27   17   18 2   
    28   18   19 1   
    29   18   20 1   
    30   19   31 1   
    31   19   32 1   
    32   20   21 2   
    33   20   22 1   
    34   21   33 1   
@<TRIPOS>SUBSTRUCTURE
     1 CBV         1 TEMP              0 ****  ****    0 ROOT
