@<TRIPOS>MOLECULE
CBX
    4     3     1     0     0
SMALL
bcc


@<TRIPOS>ATOM
      1 C          -0.0670    0.3860   -0.0000 c         1 CBX      0.904400
      2 O1         -1.1690   -0.2350    0.0000 o         1 CBX     -0.878300
      3 O2          1.0650   -0.1780    0.0000 o         1 CBX     -0.878300
      4 H          -0.0960    1.5200   -0.0000 h5        1 CBX     -0.148800
@<TRIPOS>BOND
     1    1    2 1   
     2    1    3 1   
     3    1    4 1   
@<TRIPOS>SUBSTRUCTURE
     1 CBX         1 TEMP              0 ****  ****    0 ROOT
