@<TRIPOS>MOLECULE
CBZ
   18    18     1     0     0
SMALL
bcc


@<TRIPOS>ATOM
      1 C          -2.4350   -0.2780    0.2890 c         1 CBZ      0.620900
      2 O1         -3.3170   -1.0220    0.7060 o         1 CBZ     -0.488000
      3 O2         -1.9020   -0.6810   -0.9110 os        1 CBZ     -0.427900
      4 C1'        -0.8770    0.1540   -1.4560 c3        1 CBZ      0.175700
      5 C1          0.3980    0.0920   -0.6820 ca        1 CBZ     -0.143300
      6 C2          0.8340   -1.1170   -0.1280 ca        1 CBZ     -0.114000
      7 C3          2.0450   -1.1740    0.5590 ca        1 CBZ     -0.130000
      8 C4          2.8290   -0.0280    0.6910 ca        1 CBZ     -0.119000
      9 C5          2.3990    1.1780    0.1360 ca        1 CBZ     -0.130000
     10 C6          1.1860    1.2390   -0.5480 ca        1 CBZ     -0.114000
     11 H          -2.0420    0.6420    0.7570 h5        1 CBZ      0.045200
     12 H1'1       -0.7280   -0.2690   -2.4890 h1        1 CBZ      0.066200
     13 H1'2       -1.2530    1.2100   -1.5320 h1        1 CBZ      0.066200
     14 H2          0.2090   -2.0180   -0.2380 ha        1 CBZ      0.140500
     15 H3          2.3820   -2.1260    0.9950 ha        1 CBZ      0.136500
     16 H4          3.7860   -0.0740    1.2320 ha        1 CBZ      0.135000
     17 H5          3.0170    2.0820    0.2370 ha        1 CBZ      0.136500
     18 H6          0.8510    2.1920   -0.9850 ha        1 CBZ      0.140500
@<TRIPOS>BOND
     1    1    2 2   
     2    1    3 1   
     3    1   11 1   
     4    3    4 1   
     5    4    5 1   
     6    4   12 1   
     7    4   13 1   
     8    5    6 ar  
     9    5   10 ar  
    10    6    7 ar  
    11    6   14 1   
    12    7    8 ar  
    13    7   15 1   
    14    8    9 ar  
    15    8   16 1   
    16    9   10 ar  
    17    9   17 1   
    18   10   18 1   
@<TRIPOS>SUBSTRUCTURE
     1 CBZ         1 TEMP              0 ****  ****    0 ROOT
