@<TRIPOS>MOLECULE
CBZ
   18    18     1     0     0
SMALL
bcc


@<TRIPOS>ATOM
      1 C          -0.1330    0.2480    0.7770 c         1 CBZ      0.620900
      2 O1          0.7830    0.9670    0.3900 o         1 CBZ     -0.488000
      3 O2         -1.3780    0.7200    0.4380 os        1 CBZ     -0.427900
      4 C1'        -2.4870   -0.0830    0.8500 c3        1 CBZ      0.175700
      5 C1         -2.7020   -0.0660    2.3260 ca        1 CBZ     -0.143300
      6 C2         -2.5010    1.1090    3.0600 ca        1 CBZ     -0.114000
      7 C3         -2.7420    1.1260    4.4330 ca        1 CBZ     -0.130000
      8 C4         -3.1910   -0.0260    5.0780 ca        1 CBZ     -0.119000
      9 C5         -3.3980   -1.1980    4.3490 ca        1 CBZ     -0.130000
     10 C6         -3.1530   -1.2190    2.9770 ca        1 CBZ     -0.114000
     11 H          -0.0640   -0.6970    1.3430 h5        1 CBZ      0.045200
     12 H1'1       -2.3530   -1.1320    0.4730 h1        1 CBZ      0.066200
     13 H1'2       -3.3580    0.3990    0.3230 h1        1 CBZ      0.066200
     14 H2         -2.1470    2.0150    2.5430 ha        1 CBZ      0.140500
     15 H3         -2.5790    2.0510    5.0050 ha        1 CBZ      0.136500
     16 H4         -3.3840   -0.0110    6.1610 ha        1 CBZ      0.135000
     17 H5         -3.7540   -2.1070    4.8560 ha        1 CBZ      0.136500
     18 H6         -3.3180   -2.1450    2.4050 ha        1 CBZ      0.140500
@<TRIPOS>BOND
     1    1    2 2   
     2    1    3 1   
     3    1   11 1   
     4    3    4 1   
     5    4    5 1   
     6    4   12 1   
     7    4   13 1   
     8    5    6 ar  
     9    5   10 ar  
    10    6    7 ar  
    11    6   14 1   
    12    7    8 ar  
    13    7   15 1   
    14    8    9 ar  
    15    8   16 1   
    16    9   10 ar  
    17    9   17 1   
    18   10   18 1   
@<TRIPOS>SUBSTRUCTURE
     1 CBZ         1 TEMP              0 ****  ****    0 ROOT
