@<TRIPOS>MOLECULE
CC2
   43    46     1     0     0
SMALL
bcc


@<TRIPOS>ATOM
      1 C1         -0.0920    0.1420   -0.0180 ca        1 CC2     -0.022300
      2 O1          1.6250   -0.0620    4.8590 oh        1 CC2     -0.472100
      3 C2          1.2960    0.0980   -0.0440 ca        1 CC2     -0.149000
      4 O2          3.3810    0.0030    1.0440 os        1 CC2     -0.328200
      5 C3          2.0130    0.0370    1.1660 ca        1 CC2      0.170100
      6 C4          1.3500    0.0180    2.4080 ca        1 CC2     -0.187800
      7 C5         -0.0550    0.0640    2.4080 ca        1 CC2     -0.083000
      8 C6         -0.7750    0.1260    1.2220 ca        1 CC2     -0.100300
      9 O7          5.3590   -0.0280    1.9020 o         1 CC2     -0.560500
     10 C8          4.1670   -0.0550    2.2010 c         1 CC2      0.734800
     11 C9          3.5350   -0.1200    3.5090 cc        1 CC2     -0.252400
     12 C10         2.1710   -0.0580    3.6030 cd        1 CC2      0.225900
     13 C11        -0.8570    0.2070   -1.2850 c3        1 CC2     -0.062800
     14 C12        -2.2560    0.1730    1.2480 c3        1 CC2     -0.052800
     15 C13         4.4280   -0.1900    4.6960 c3        1 CC2      0.025100
     16 C14         4.7700   -1.5680    5.1570 ca        1 CC2     -0.051300
     17 C15         5.5410   -1.7140    6.3540 ca        1 CC2     -0.031000
     18 C16         5.8680   -3.0190    6.8090 ca        1 CC2     -0.034000
     19 C17         5.4350   -4.1520    6.0670 ca        1 CC2     -0.124000
     20 C18         4.7060   -3.9860    4.9170 ca        1 CC2     -0.122000
     21 C19         4.3740   -2.6890    4.4620 ca        1 CC2     -0.123000
     22 C20         5.9980   -0.5990    7.1100 ca        1 CC2     -0.119000
     23 C21         6.7340   -0.7760    8.2560 ca        1 CC2     -0.129000
     24 C22         7.0520   -2.0780    8.7090 ca        1 CC2     -0.129000
     25 C23         6.6290   -3.1740    8.0000 ca        1 CC2     -0.118000
     26 HO1         0.6600   -0.0240    4.7860 ho        1 CC2      0.430000
     27 H2          1.8540    0.1100   -0.9940 ha        1 CC2      0.164000
     28 H5         -0.6100    0.0500    3.3590 ha        1 CC2      0.129000
     29 H11        -1.4820    1.1360   -1.3100 hc        1 CC2      0.054033
     30 H11A       -1.5420   -0.6750   -1.3660 hc        1 CC2      0.054033
     31 H11B       -0.1780    0.2120   -2.1720 hc        1 CC2      0.054033
     32 H12        -2.6210    1.1070    0.7510 hc        1 CC2      0.048033
     33 H12A       -2.6800   -0.7030    0.6950 hc        1 CC2      0.048033
     34 H12B       -2.6480    0.1530    2.2940 hc        1 CC2      0.048033
     35 H13         3.9270    0.3570    5.5450 hc        1 CC2      0.074700
     36 H13A        5.3890    0.3500    4.4540 hc        1 CC2      0.074700
     37 H17         5.6990   -5.1550    6.4330 ha        1 CC2      0.131000
     38 H18         4.3720   -4.8560    4.3330 ha        1 CC2      0.131000
     39 H19         3.7910   -2.5920    3.5330 ha        1 CC2      0.132000
     40 H20         5.7610    0.4180    6.7630 ha        1 CC2      0.132000
     41 H21         7.0850    0.0910    8.8340 ha        1 CC2      0.131000
     42 H22         7.6420   -2.1960    9.6300 ha        1 CC2      0.131000
     43 H23         6.8730   -4.1930    8.3380 ha        1 CC2      0.131000
@<TRIPOS>BOND
     1    1    3 ar  
     2    1    8 ar  
     3    1   13 1   
     4    2   12 1   
     5    2   26 1   
     6    3    5 ar  
     7    3   27 1   
     8    4    5 1   
     9    4   10 1   
    10    5    6 ar  
    11    6    7 ar  
    12    6   12 1   
    13    7    8 ar  
    14    7   28 1   
    15    8   14 1   
    16    9   10 2   
    17   10   11 1   
    18   11   12 2   
    19   11   15 1   
    20   13   29 1   
    21   13   30 1   
    22   13   31 1   
    23   14   32 1   
    24   14   33 1   
    25   14   34 1   
    26   15   16 1   
    27   15   35 1   
    28   15   36 1   
    29   16   17 ar  
    30   16   21 ar  
    31   17   18 ar  
    32   17   22 ar  
    33   18   19 ar  
    34   18   25 ar  
    35   19   20 ar  
    36   19   37 1   
    37   20   21 ar  
    38   20   38 1   
    39   21   39 1   
    40   22   23 ar  
    41   22   40 1   
    42   23   24 ar  
    43   23   41 1   
    44   24   25 ar  
    45   24   42 1   
    46   25   43 1   
@<TRIPOS>SUBSTRUCTURE
     1 CC2         1 TEMP              0 ****  ****    0 ROOT
