@<TRIPOS>MOLECULE
CC2
   43    40     1     0     0
SMALL
bcc


@<TRIPOS>ATOM
      1 C1         -3.1520    0.7330   -3.7840 c1        1 CC2     -0.054000
      2 O1         -1.7640    0.7230    1.1810 oh        1 CC2     -0.227000
      3 C2         -1.7580    0.7170   -3.7690 c1        1 CC2     -0.149000
      4 O2          0.4160    0.5490   -2.5390 os        1 CC2     -0.193000
      5 C3         -1.0720    0.6920   -2.5510 c2        1 CC2      0.125000
      6 C4         -1.7890    0.6830   -1.3420 c2        1 CC2     -0.176000
      7 C5         -3.1870    0.6990   -1.3600 c1        1 CC2     -0.083000
      8 C6         -3.8690    0.7240   -2.5760 c1        1 CC2     -0.054000
      9 O7          2.3480    0.6510   -1.3000 o         1 CC2     -0.285000
     10 C8          1.1340    0.6040   -1.2980 c2        1 CC2      0.350000
     11 C9          0.3950    0.6570   -0.0210 c2        1 CC2     -0.229000
     12 C10        -1.0500    0.6940   -0.0310 c2        1 CC2      0.170000
     13 C11        -3.7210    0.6490   -5.1840 c3        1 CC2     -0.183000
     14 C12        -5.3680    0.7640   -2.3770 c3        1 CC2     -0.183000
     15 C13         1.1470    0.8190    1.2820 c3        1 CC2     -0.065000
     16 C14         1.8600   -0.4750    1.6170 c2        1 CC2     -0.044000
     17 C15         2.8020   -0.5050    2.6630 c2        1 CC2     -0.031000
     18 C16         3.3910   -1.6950    3.0230 c1        1 CC2     -0.034000
     19 C17         3.0520   -2.8810    2.3450 c1        1 CC2     -0.126000
     20 C18         2.1230   -2.8490    1.3120 c1        1 CC2     -0.126000
     21 C19         1.5260   -1.6450    0.9490 c1        1 CC2     -0.123000
     22 C20         3.1530    0.6840    3.3300 c1        1 CC2     -0.119000
     23 C21         4.0950    0.6550    4.3510 c1        1 CC2     -0.126000
     24 C22         4.6910   -0.5490    4.7150 c1        1 CC2     -0.126000
     25 C23         4.3450   -1.7220    4.0580 c1        1 CC2     -0.118000
     26 HO1        -1.9390    1.5670    1.4020 ho        1 CC2      0.229000
     27 H2         -1.2600    0.7230   -4.6090 ha        1 CC2      0.164000
     28 H5         -3.6850    0.6930   -0.5210 ha        1 CC2      0.129000
     29 H11        -3.1560    1.1640   -5.7980 hc        1 CC2      0.090333
     30 H11A       -4.6300    1.0170   -5.1900 hc        1 CC2      0.090333
     31 H11B       -3.7460   -0.2870   -5.4710 hc        1 CC2      0.090333
     32 H12        -5.5720    0.6790   -1.4220 hc        1 CC2      0.090333
     33 H12A       -5.7190    1.6150   -2.7120 hc        1 CC2      0.090333
     34 H12B       -5.7830    0.0240   -2.8670 hc        1 CC2      0.090333
     35 H13         0.5170    1.0380    1.9970 hc        1 CC2      0.114000
     36 H13A        1.8030    1.5390    1.1930 hc        1 CC2      0.114000
     37 H17         3.4700   -3.7250    2.5990 ha        1 CC2      0.131000
     38 H18         1.8880   -3.6720    0.8420 ha        1 CC2      0.131000
     39 H19         0.8740   -1.6240    0.2230 ha        1 CC2      0.132000
     40 H20         2.7350    1.5280    3.0750 ha        1 CC2      0.132000
     41 H21         4.3380    1.4800    4.8130 ha        1 CC2      0.131000
     42 H22         5.3530   -0.5680    5.4330 ha        1 CC2      0.131000
     43 H23         4.7640   -2.5660    4.3130 ha        1 CC2      0.131000
@<TRIPOS>BOND
     1    1    8 1   
     2    1   13 1   
     3    2   12 1   
     4    2   26 1   
     5    3    5 1   
     6    3   27 1   
     7    4    5 1   
     8    4   10 1   
     9    5    6 1   
    10    6    7 1   
    11    6   12 1   
    12    7   28 1   
    13    8   14 1   
    14    9   10 1   
    15   10   11 1   
    16   11   12 1   
    17   11   15 1   
    18   13   29 1   
    19   13   30 1   
    20   13   31 1   
    21   14   32 1   
    22   14   33 1   
    23   14   34 1   
    24   15   16 1   
    25   15   35 1   
    26   15   36 1   
    27   16   17 1   
    28   16   21 1   
    29   17   18 1   
    30   17   22 1   
    31   18   25 1   
    32   19   20 1   
    33   19   37 1   
    34   20   38 1   
    35   21   39 1   
    36   22   40 1   
    37   23   24 1   
    38   23   41 1   
    39   24   42 1   
    40   25   43 1   
@<TRIPOS>SUBSTRUCTURE
     1 CC2         1 TEMP              0 ****  ****    0 ROOT
