@<TRIPOS>MOLECULE
CC2
   43    46     1     0     0
SMALL
bcc


@<TRIPOS>ATOM
      1 C1         -5.1290   -0.1270    0.3300 ca        1 CC2     -0.022300
      2 O1         -0.5270    1.6580   -1.2220 oh        1 CC2     -0.472100
      3 C2         -4.2050   -1.1600    0.4210 ca        1 CC2     -0.149000
      4 O2         -2.0250   -2.0100    0.1700 os        1 CC2     -0.328200
      5 C3         -2.8660   -0.9300    0.0540 ca        1 CC2      0.170100
      6 C4         -2.4390    0.3320   -0.4040 ca        1 CC2     -0.187800
      7 C5         -3.3930    1.3610   -0.4870 ca        1 CC2     -0.083000
      8 C6         -4.7180    1.1480   -0.1300 ca        1 CC2     -0.100300
      9 O7         -0.0930   -2.9410   -0.0580 o         1 CC2     -0.560500
     10 C8         -0.6770   -1.8650   -0.1770 c         1 CC2      0.734800
     11 C9         -0.1720   -0.5740   -0.6160 cc        1 CC2     -0.252400
     12 C10        -1.0370    0.4790   -0.7490 cd        1 CC2      0.225900
     13 C11        -6.5410   -0.3570    0.7120 c3        1 CC2     -0.062800
     14 C12        -5.7050    2.2490   -0.2270 c3        1 CC2     -0.052800
     15 C13         1.2720   -0.4860   -0.9610 c3        1 CC2      0.025100
     16 C14         2.1720   -0.0890    0.1610 ca        1 CC2     -0.051300
     17 C15         3.5610    0.1170   -0.1200 ca        1 CC2     -0.031000
     18 C16         4.4290    0.5020    0.9350 ca        1 CC2     -0.034000
     19 C17         3.9100    0.6670    2.2480 ca        1 CC2     -0.124000
     20 C18         2.5780    0.4550    2.4960 ca        1 CC2     -0.122000
     21 C19         1.7080    0.0760    1.4470 ca        1 CC2     -0.123000
     22 C20         4.1110   -0.0540   -1.4210 ca        1 CC2     -0.119000
     23 C21         5.4480    0.1540   -1.6560 ca        1 CC2     -0.129000
     24 C22         6.3080    0.5430   -0.6030 ca        1 CC2     -0.129000
     25 C23         5.8100    0.7130    0.6640 ca        1 CC2     -0.118000
     26 HO1        -1.2330    2.3190   -1.2580 ho        1 CC2      0.430000
     27 H2         -4.4960   -2.1610    0.7750 ha        1 CC2      0.164000
     28 H5         -3.0980    2.3620   -0.8400 ha        1 CC2      0.129000
     29 H11        -6.8330    0.3360    1.5420 hc        1 CC2      0.054033
     30 H11A       -7.2140   -0.1560   -0.1600 hc        1 CC2      0.054033
     31 H11B       -6.7060   -1.4080    1.0530 hc        1 CC2      0.054033
     32 H12        -6.1520    2.4570    0.7780 hc        1 CC2      0.048033
     33 H12A       -5.2330    3.1890   -0.6040 hc        1 CC2      0.048033
     34 H12B       -6.5330    1.9650   -0.9240 hc        1 CC2      0.048033
     35 H13         1.6100   -1.4910   -1.3450 hc        1 CC2      0.074700
     36 H13A        1.3890    0.2620   -1.7960 hc        1 CC2      0.074700
     37 H17         4.5970    0.9640    3.0540 ha        1 CC2      0.131000
     38 H18         2.1680    0.5750    3.5090 ha        1 CC2      0.131000
     39 H19         0.6450   -0.0900    1.6810 ha        1 CC2      0.132000
     40 H20         3.4510   -0.3630   -2.2460 ha        1 CC2      0.132000
     41 H21         5.8660    0.0180   -2.6650 ha        1 CC2      0.131000
     42 H22         7.3750    0.7050   -0.8150 ha        1 CC2      0.131000
     43 H23         6.4670    1.0120    1.4940 ha        1 CC2      0.131000
@<TRIPOS>BOND
     1    1    3 ar  
     2    1    8 ar  
     3    1   13 1   
     4    2   12 1   
     5    2   26 1   
     6    3    5 ar  
     7    3   27 1   
     8    4    5 1   
     9    4   10 1   
    10    5    6 ar  
    11    6    7 ar  
    12    6   12 1   
    13    7    8 ar  
    14    7   28 1   
    15    8   14 1   
    16    9   10 2   
    17   10   11 1   
    18   11   12 2   
    19   11   15 1   
    20   13   29 1   
    21   13   30 1   
    22   13   31 1   
    23   14   32 1   
    24   14   33 1   
    25   14   34 1   
    26   15   16 1   
    27   15   35 1   
    28   15   36 1   
    29   16   17 ar  
    30   16   21 ar  
    31   17   18 ar  
    32   17   22 ar  
    33   18   19 ar  
    34   18   25 ar  
    35   19   20 ar  
    36   19   37 1   
    37   20   21 ar  
    38   20   38 1   
    39   21   39 1   
    40   22   23 ar  
    41   22   40 1   
    42   23   24 ar  
    43   23   41 1   
    44   24   25 ar  
    45   24   42 1   
    46   25   43 1   
@<TRIPOS>SUBSTRUCTURE
     1 CC2         1 TEMP              0 ****  ****    0 ROOT
