@<TRIPOS>MOLECULE
CC3
   48    51     1     0     0
SMALL
bcc


@<TRIPOS>ATOM
      1 O27         0.4910    1.0810    0.1030 o         1 CC3     -0.581100
      2 C26         1.5080    0.3670    0.1670 c         1 CC3      0.694100
      3 C28         2.2570    0.1900    1.4540 cx        1 CC3     -0.212700
      4 C30         2.7570   -1.1590    1.8970 cx        1 CC3     -0.117900
      5 C29         1.5920   -0.5260    2.5980 cx        1 CC3     -0.117900
      6 N25         2.0460   -0.2810   -0.9360 n         1 CC3     -0.475100
      7 C21         1.5860   -0.2010   -2.2620 ca        1 CC3      0.076600
      8 C20         0.2400    0.0810   -2.5720 ca        1 CC3     -0.125000
      9 C22         2.5050   -0.4350   -3.3110 ca        1 CC3     -0.180000
     10 C23         2.0790   -0.3850   -4.6320 ca        1 CC3     -0.094000
     11 C24         0.7530   -0.1150   -4.9490 ca        1 CC3     -0.185000
     12 C19        -0.1790    0.1160   -3.9140 ca        1 CC3      0.149600
     13 N18        -1.5130    0.4590   -4.2410 nh        1 CC3     -0.714300
     14 C16        -2.6110   -0.3380   -3.8760 ca        1 CC3      0.906900
     15 N15        -3.8130   -0.0370   -4.5190 nb        1 CC3     -0.770000
     16 C14        -4.8850   -0.7250   -4.1080 ca        1 CC3      0.487200
     17 C13        -4.8500   -1.7080   -3.1120 ca        1 CC3     -0.468600
     18 N17        -2.4500   -1.3030   -2.8970 nb        1 CC3     -0.780000
     19 C12        -3.5750   -1.9850   -2.5260 ca        1 CC3      0.704200
     20 N11        -3.5120   -3.0260   -1.5830 nh        1 CC3     -0.728300
     21 C1         -2.3850   -3.3220   -0.7900 ca        1 CC3      0.144600
     22 C6         -1.1190   -3.5700   -1.3650 ca        1 CC3     -0.067000
     23 C5         -0.0660   -3.9780   -0.5510 ca        1 CC3     -0.153300
     24 C7          1.3060   -4.2610   -1.1510 c3        1 CC3      0.690200
     25 F10         1.8480   -5.4670   -0.7710 f         1 CC3     -0.239633
     26 F9          1.3590   -4.2890   -2.5210 f         1 CC3     -0.239633
     27 F8          2.2740   -3.3480   -0.7940 f         1 CC3     -0.239633
     28 C4         -0.2310   -4.1470    0.8260 ca        1 CC3     -0.107000
     29 C3         -1.4750   -3.8960    1.3960 ca        1 CC3     -0.114000
     30 C2         -2.5430   -3.4830    0.6060 ca        1 CC3     -0.146000
     31 H28         2.8690    1.0890    1.6710 hc        1 CC3      0.108700
     32 H301        3.7320   -1.2140    2.4130 hc        1 CC3      0.080200
     33 H302        2.5820   -2.0420    1.2550 hc        1 CC3      0.080200
     34 H291        0.5800   -0.9420    2.4480 hc        1 CC3      0.080200
     35 H292        1.7260   -0.1230    3.6180 hc        1 CC3      0.080200
     36 HN25        2.8590   -0.8400   -0.7930 hn        1 CC3      0.325500
     37 H20        -0.4820    0.2790   -1.7610 ha        1 CC3      0.183000
     38 H22         3.5590   -0.6620   -3.0920 ha        1 CC3      0.134000
     39 H23         2.8030   -0.5670   -5.4410 ha        1 CC3      0.134000
     40 H24         0.4420   -0.0830   -6.0030 ha        1 CC3      0.134000
     41 HN18       -1.6160    0.9540   -5.1040 hn        1 CC3      0.446800
     42 H14        -5.8340   -0.4720   -4.6170 h4        1 CC3      0.027100
     43 H13        -5.7570   -2.2430   -2.8150 ha        1 CC3      0.152000
     44 HN11       -4.3870   -3.1930   -1.1280 hn        1 CC3      0.430800
     45 H6         -0.9570   -3.4470   -2.4500 ha        1 CC3      0.177000
     46 H4          0.6170   -4.4790    1.4450 ha        1 CC3      0.148000
     47 H3         -1.6170   -4.0210    2.4810 ha        1 CC3      0.143000
     48 H2         -3.5180   -3.2890    1.0830 ha        1 CC3      0.138000
@<TRIPOS>BOND
     1    1    2 2   
     2    2    3 1   
     3    2    6 1   
     4    3    4 1   
     5    3    5 1   
     6    3   31 1   
     7    4    5 1   
     8    4   32 1   
     9    4   33 1   
    10    5   34 1   
    11    5   35 1   
    12    6    7 1   
    13    6   36 1   
    14    7    8 ar  
    15    7    9 ar  
    16    8   12 ar  
    17    8   37 1   
    18    9   10 ar  
    19    9   38 1   
    20   10   11 ar  
    21   10   39 1   
    22   11   12 ar  
    23   11   40 1   
    24   12   13 1   
    25   13   14 1   
    26   13   41 1   
    27   14   15 ar  
    28   14   18 ar  
    29   15   16 ar  
    30   16   17 ar  
    31   16   42 1   
    32   17   19 ar  
    33   17   43 1   
    34   18   19 ar  
    35   19   20 1   
    36   20   21 1   
    37   20   44 1   
    38   21   22 ar  
    39   21   30 ar  
    40   22   23 ar  
    41   22   45 1   
    42   23   24 1   
    43   23   28 ar  
    44   24   25 1   
    45   24   26 1   
    46   24   27 1   
    47   28   29 ar  
    48   28   46 1   
    49   29   30 ar  
    50   29   47 1   
    51   30   48 1   
@<TRIPOS>SUBSTRUCTURE
     1 CC3         1 TEMP              0 ****  ****    0 ROOT
