@<TRIPOS>MOLECULE
CC3
   48    44     1     0     0
SMALL
bcc


@<TRIPOS>ATOM
      1 O27        -1.4310   -5.9700   -1.4220 o         1 CC3     -0.339000
      2 C26        -2.2570   -5.2800   -1.9890 c1        1 CC3      0.340000
      3 C28        -2.8300   -5.7210   -3.2530 cx        1 CC3     -0.208000
      4 C30        -2.2720   -7.1270   -3.3370 cx        1 CC3     -0.193000
      5 C29        -1.5720   -6.0610   -4.0250 cx        1 CC3     -0.193000
      6 N25        -2.6590   -4.0280   -1.4170 n2        1 CC3     -0.327000
      7 C21        -2.0840   -3.5860   -0.1710 c2        1 CC3      0.093000
      8 C20        -1.8180   -2.2350    0.0300 c1        1 CC3     -0.224000
      9 C22        -1.8860   -4.4970    0.8640 c2        1 CC3     -0.162000
     10 C23        -1.4220   -4.0560    2.1000 c1        1 CC3     -0.098000
     11 C24        -1.1570   -2.7040    2.3020 c1        1 CC3     -0.129000
     12 C19        -1.3550   -1.7930    1.2680 c1        1 CC3      0.071000
     13 N18        -1.1940   -0.3860    1.5120 n3        1 CC3     -0.228000
     14 C16         0.0980    0.2220    1.3800 c2        1 CC3      0.177000
     15 N15         1.1780   -0.3280    2.0110 n2        1 CC3     -0.217000
     16 C14         2.3780    0.2760    1.9400 c1        1 CC3      0.011000
     17 C13         2.5180    1.4420    1.2360 c1        1 CC3     -0.312000
     18 N17         0.2360    1.3870    0.6760 n1        1 CC3     -0.282000
     19 C12         1.4350    1.9930    0.6040 c1        1 CC3      0.179000
     20 N11         1.6030    3.1570   -0.2240 n3        1 CC3     -0.254000
     21 C1          1.9430    4.4220    0.3720 c2        1 CC3      0.063000
     22 C6          1.2790    5.5790   -0.0280 c2        1 CC3     -0.118000
     23 C5          1.6740    6.8160    0.4730 c1        1 CC3     -0.133000
     24 C7          0.9810    8.0860   -0.0040 c2        1 CC3      0.465000
     25 F10         0.5880    7.9290   -1.2780 f         1 CC3     -0.164333
     26 F9          1.8360    9.1190    0.0760 f         1 CC3     -0.164333
     27 F8         -0.0890    8.3300    0.7680 f         1 CC3     -0.164333
     28 C4          2.7310    6.8970    1.3740 c2        1 CC3     -0.107000
     29 C3          3.3940    5.7410    1.7740 c1        1 CC3     -0.107000
     30 C2          3.0000    4.5040    1.2730 c1        1 CC3     -0.146000
     31 H28        -3.6610   -5.1980   -3.2880 hc        1 CC3      0.149000
     32 H301       -2.7720   -7.7480   -3.9120 hc        1 CC3      0.120500
     33 H302       -1.8400   -7.4610   -2.5210 hc        1 CC3      0.120500
     34 H291       -0.7290   -5.7710   -3.6130 hc        1 CC3      0.120500
     35 H292       -1.6600   -6.0580   -5.0040 hc        1 CC3      0.120500
     36 HN25       -3.2940   -3.5140   -1.8370 hn        1 CC3      0.231000
     37 H20        -1.9580   -1.5930   -0.6990 ha        1 CC3      0.128000
     38 H22        -2.0730   -5.4500    0.7220 ha        1 CC3      0.175000
     39 H23        -1.2830   -4.6980    2.8300 ha        1 CC3      0.139000
     40 H24        -0.8290   -2.3930    3.1750 ha        1 CC3      0.155000
     41 HN18       -1.9150    0.1190    1.7740 hn        1 CC3      0.232000
     42 H14         3.1540   -0.1200    2.3940 ha        1 CC3      0.167000
     43 H13         3.3930    1.8820    1.1840 ha        1 CC3      0.163000
     44 HN11        1.4820    3.0950   -1.1330 hn        1 CC3      0.239000
     45 H6          0.5260    5.5200   -0.6550 ha        1 CC3      0.158000
     46 H4          3.0090    7.7700    1.7280 ha        1 CC3      0.155000
     47 H3          4.1400    5.7990    2.4100 ha        1 CC3      0.146000
     48 H2          3.4670    3.6910    1.5550 ha        1 CC3      0.153000
@<TRIPOS>BOND
     1    1    2 1   
     2    2    3 1   
     3    3    4 1   
     4    3    5 1   
     5    3   31 1   
     6    4    5 1   
     7    4   32 1   
     8    4   33 1   
     9    5   34 1   
    10    5   35 1   
    11    6    7 1   
    12    6   36 1   
    13    7    8 1   
    14    7    9 1   
    15    8   37 1   
    16    9   10 1   
    17    9   38 1   
    18   10   39 1   
    19   11   12 1   
    20   11   40 1   
    21   12   13 1   
    22   13   14 1   
    23   13   41 1   
    24   14   15 1   
    25   14   18 1   
    26   15   16 1   
    27   16   42 1   
    28   17   19 1   
    29   17   43 1   
    30   19   20 1   
    31   20   21 1   
    32   20   44 1   
    33   21   22 1   
    34   21   30 1   
    35   22   23 1   
    36   22   45 1   
    37   23   28 1   
    38   24   25 1   
    39   24   26 1   
    40   24   27 1   
    41   28   29 1   
    42   28   46 1   
    43   29   47 1   
    44   30   48 1   
@<TRIPOS>SUBSTRUCTURE
     1 CC3         1 TEMP              0 ****  ****    0 ROOT
