@<TRIPOS>MOLECULE
CC3
   48    51     1     0     0
SMALL
bcc


@<TRIPOS>ATOM
      1 O27         0.5060    1.0760    0.1050 o         1 CC3     -0.581100
      2 C26         1.5180    0.3560    0.1670 c         1 CC3      0.694100
      3 C28         2.2670    0.1740    1.4540 cx        1 CC3     -0.212700
      4 C30         2.7600   -1.1780    1.8950 cx        1 CC3     -0.117900
      5 C29         1.5990   -0.5400    2.5980 cx        1 CC3     -0.117900
      6 N25         2.0530   -0.2930   -0.9360 ns        1 CC3     -0.475100
      7 C21         1.5920   -0.2090   -2.2620 ca        1 CC3      0.076600
      8 C20         0.2480    0.0800   -2.5700 ca        1 CC3     -0.125000
      9 C22         2.5100   -0.4470   -3.3120 ca        1 CC3     -0.180000
     10 C23         2.0830   -0.3930   -4.6320 ca        1 CC3     -0.094000
     11 C24         0.7570   -0.1160   -4.9480 ca        1 CC3     -0.185000
     12 C19        -0.1720    0.1190   -3.9120 ca        1 CC3      0.149600
     13 N18        -1.5050    0.4680   -4.2380 nu        1 CC3     -0.714300
     14 C16        -2.6070   -0.3230   -3.8730 ca        1 CC3      0.906900
     15 N15        -3.8080   -0.0150   -4.5140 nb        1 CC3     -0.770000
     16 C14        -4.8830   -0.6990   -4.1030 ca        1 CC3      0.487200
     17 C13        -4.8520   -1.6820   -3.1080 ca        1 CC3     -0.468600
     18 N17        -2.4500   -1.2910   -2.8950 nb        1 CC3     -0.780000
     19 C12        -3.5780   -1.9670   -2.5230 ca        1 CC3      0.704200
     20 N11        -3.5190   -3.0090   -1.5820 nu        1 CC3     -0.728300
     21 C1         -2.3930   -3.3120   -0.7900 ca        1 CC3      0.144600
     22 C6         -1.1290   -3.5660   -1.3670 ca        1 CC3     -0.067000
     23 C5         -0.0770   -3.9800   -0.5540 ca        1 CC3     -0.153300
     24 C7          1.2940   -4.2690   -1.1560 c3        1 CC3      0.690200
     25 F10         1.8290   -5.4780   -0.7770 f         1 CC3     -0.239633
     26 F9          1.3450   -4.2960   -2.5260 f         1 CC3     -0.239633
     27 F8          2.2660   -3.3610   -0.7990 f         1 CC3     -0.239633
     28 C4         -0.2410   -4.1490    0.8230 ca        1 CC3     -0.107000
     29 C3         -1.4840   -3.8930    1.3950 ca        1 CC3     -0.114000
     30 C2         -2.5510   -3.4740    0.6060 ca        1 CC3     -0.146000
     31 H28         2.8840    1.0700    1.6720 hc        1 CC3      0.108700
     32 H301        3.7350   -1.2390    2.4110 hc        1 CC3      0.080200
     33 H302        2.5810   -2.0600    1.2520 hc        1 CC3      0.080200
     34 H291        0.5840   -0.9510    2.4470 hc        1 CC3      0.080200
     35 H292        1.7350   -0.1400    3.6180 hc        1 CC3      0.080200
     36 HN25        2.8630   -0.8560   -0.7950 hn        1 CC3      0.325500
     37 H20        -0.4740    0.2810   -1.7590 ha        1 CC3      0.183000
     38 H22         3.5630   -0.6790   -3.0940 ha        1 CC3      0.134000
     39 H23         2.8050   -0.5780   -5.4420 ha        1 CC3      0.134000
     40 H24         0.4460   -0.0820   -6.0020 ha        1 CC3      0.134000
     41 HN18       -1.6070    0.9650   -5.1000 hn        1 CC3      0.446800
     42 H14        -5.8310   -0.4400   -4.6100 h4        1 CC3      0.027100
     43 H13        -5.7610   -2.2130   -2.8110 ha        1 CC3      0.152000
     44 HN11       -4.3940   -3.1730   -1.1260 hn        1 CC3      0.430800
     45 H6         -0.9670   -3.4420   -2.4510 ha        1 CC3      0.177000
     46 H4          0.6050   -4.4870    1.4400 ha        1 CC3      0.148000
     47 H3         -1.6250   -4.0200    2.4790 ha        1 CC3      0.143000
     48 H2         -3.5230   -3.2760    1.0830 ha        1 CC3      0.138000
@<TRIPOS>BOND
     1    1    2 2   
     2    2    3 1   
     3    2    6 1   
     4    3    4 1   
     5    3    5 1   
     6    3   31 1   
     7    4    5 1   
     8    4   32 1   
     9    4   33 1   
    10    5   34 1   
    11    5   35 1   
    12    6    7 1   
    13    6   36 1   
    14    7    8 ar  
    15    7    9 ar  
    16    8   12 ar  
    17    8   37 1   
    18    9   10 ar  
    19    9   38 1   
    20   10   11 ar  
    21   10   39 1   
    22   11   12 ar  
    23   11   40 1   
    24   12   13 1   
    25   13   14 1   
    26   13   41 1   
    27   14   15 ar  
    28   14   18 ar  
    29   15   16 ar  
    30   16   17 ar  
    31   16   42 1   
    32   17   19 ar  
    33   17   43 1   
    34   18   19 ar  
    35   19   20 1   
    36   20   21 1   
    37   20   44 1   
    38   21   22 ar  
    39   21   30 ar  
    40   22   23 ar  
    41   22   45 1   
    42   23   24 1   
    43   23   28 ar  
    44   24   25 1   
    45   24   26 1   
    46   24   27 1   
    47   28   29 ar  
    48   28   46 1   
    49   29   30 ar  
    50   29   47 1   
    51   30   48 1   
@<TRIPOS>SUBSTRUCTURE
     1 CC3         1 TEMP              0 ****  ****    0 ROOT
