@<TRIPOS>MOLECULE
CC3
   48    51     1     0     0
SMALL
bcc


@<TRIPOS>ATOM
      1 O27         2.2960   -4.3590    8.1610 o         1 CC3     -0.581100
      2 C26         3.5250   -4.5210    8.2540 c         1 CC3      0.694100
      3 C28         4.1580   -5.8580    8.0050 cx        1 CC3     -0.212700
      4 C30         5.4200   -5.9970    7.1970 cx        1 CC3     -0.117900
      5 C29         4.1110   -6.4460    6.6200 cx        1 CC3     -0.117900
      6 N25         4.3950   -3.5060    8.6280 n         1 CC3     -0.475100
      7 C21         4.0430   -2.1970    8.9990 ca        1 CC3      0.076600
      8 C20         2.8680   -1.5750    8.5300 ca        1 CC3     -0.125000
      9 C22         4.9130   -1.4800    9.8530 ca        1 CC3     -0.180000
     10 C23         4.6060   -0.1760   10.2220 ca        1 CC3     -0.094000
     11 C24         3.4550    0.4490    9.7590 ca        1 CC3     -0.185000
     12 C19         2.5770   -0.2500    8.9030 ca        1 CC3      0.149600
     13 N18         1.3710    0.3640    8.4880 nh        1 CC3     -0.714300
     14 C16         1.0830    0.6370    7.1400 ca        1 CC3      0.906900
     15 N15         0.0130    1.5040    6.9170 nb        1 CC3     -0.770000
     16 C14        -0.3300    1.6930    5.6370 ca        1 CC3      0.487200
     17 C13         0.3250    1.0950    4.5540 ca        1 CC3     -0.468600
     18 N17         1.8210    0.0080    6.1510 nb        1 CC3     -0.780000
     19 C12         1.4360    0.2480    4.8620 ca        1 CC3      0.704200
     20 N11         2.1530   -0.2930    3.7810 nh        1 CC3     -0.728300
     21 C1          3.1600   -1.2720    3.8960 ca        1 CC3      0.144600
     22 C6          4.2810   -1.0860    4.7350 ca        1 CC3     -0.067000
     23 C5          5.3090   -2.0260    4.7220 ca        1 CC3     -0.153300
     24 C7          6.5320   -1.8410    5.6120 c3        1 CC3      0.690200
     25 F10         7.7320   -1.9810    4.9540 f         1 CC3     -0.239633
     26 F9          6.6330   -0.6230    6.2350 f         1 CC3     -0.239633
     27 F8          6.6220   -2.7540    6.6400 f         1 CC3     -0.239633
     28 C4          5.2570   -3.1520    3.8980 ca        1 CC3     -0.107000
     29 C3          4.1500   -3.3420    3.0760 ca        1 CC3     -0.114000
     30 C2          3.1080   -2.4200    3.0720 ca        1 CC3     -0.146000
     31 H28         3.9970   -6.5280    8.8740 hc        1 CC3      0.108700
     32 H301        6.1620   -6.7540    7.5080 hc        1 CC3      0.080200
     33 H302        5.9060   -5.0910    6.7870 hc        1 CC3      0.080200
     34 H291        3.6470   -5.8570    5.8090 hc        1 CC3      0.080200
     35 H292        3.9070   -7.5260    6.5150 hc        1 CC3      0.080200
     36 HN25        5.3670   -3.7210    8.6700 hn        1 CC3      0.325500
     37 H20         2.1750   -2.1300    7.8740 ha        1 CC3      0.183000
     38 H22         5.8380   -1.9440   10.2280 ha        1 CC3      0.134000
     39 H23         5.2900    0.3720   10.8890 ha        1 CC3      0.134000
     40 H24         3.2370    1.4820   10.0660 ha        1 CC3      0.134000
     41 HN18        0.9890    1.0160    9.1440 hn        1 CC3      0.446800
     42 H14        -1.1860    2.3740    5.4710 h4        1 CC3      0.027100
     43 H13         0.0050    1.2860    3.5260 ha        1 CC3      0.152000
     44 HN11        1.6050   -0.3680    2.9480 hn        1 CC3      0.430800
     45 H6          4.3530   -0.2060    5.3970 ha        1 CC3      0.177000
     46 H4          6.0880   -3.8740    3.9020 ha        1 CC3      0.148000
     47 H3          4.0960   -4.2270    2.4250 ha        1 CC3      0.143000
     48 H2          2.2430   -2.5940    2.4130 ha        1 CC3      0.138000
@<TRIPOS>BOND
     1    1    2 2   
     2    2    3 1   
     3    2    6 1   
     4    3    4 1   
     5    3    5 1   
     6    3   31 1   
     7    4    5 1   
     8    4   32 1   
     9    4   33 1   
    10    5   34 1   
    11    5   35 1   
    12    6    7 1   
    13    6   36 1   
    14    7    8 ar  
    15    7    9 ar  
    16    8   12 ar  
    17    8   37 1   
    18    9   10 ar  
    19    9   38 1   
    20   10   11 ar  
    21   10   39 1   
    22   11   12 ar  
    23   11   40 1   
    24   12   13 1   
    25   13   14 1   
    26   13   41 1   
    27   14   15 ar  
    28   14   18 ar  
    29   15   16 ar  
    30   16   17 ar  
    31   16   42 1   
    32   17   19 ar  
    33   17   43 1   
    34   18   19 ar  
    35   19   20 1   
    36   20   21 1   
    37   20   44 1   
    38   21   22 ar  
    39   21   30 ar  
    40   22   23 ar  
    41   22   45 1   
    42   23   24 1   
    43   23   28 ar  
    44   24   25 1   
    45   24   26 1   
    46   24   27 1   
    47   28   29 ar  
    48   28   46 1   
    49   29   30 ar  
    50   29   47 1   
    51   30   48 1   
@<TRIPOS>SUBSTRUCTURE
     1 CC3         1 TEMP              0 ****  ****    0 ROOT
