@<TRIPOS>MOLECULE
CC3
   51    54     1     0     0
SMALL
bcc


@<TRIPOS>ATOM
      1 O27         1.4820    0.1360   -0.0600 o         1 CC3     -0.452100
      2 C26         2.6370    0.3630   -0.3820 c         1 CC3      0.624100
      3 C28         3.9000   -0.1130    0.1810 cx        1 CC3     -0.309700
      4 C30         3.8810   -1.4620    0.9000 cx        1 CC3     -0.045400
      5 C29         4.0010   -0.2200    1.7040 cx        1 CC3     -0.045400
      6 N25         2.7780    1.3480   -1.5720 n4        1 CC3     -0.570200
      7 C21         1.9400    1.0060   -2.7230 ca        1 CC3     -0.012400
      8 C20         0.5400    0.9880   -2.5920 ca        1 CC3     -0.066000
      9 C22         2.5460    0.7130   -3.9620 ca        1 CC3     -0.042000
     10 C23         1.7470    0.4140   -5.0640 ca        1 CC3     -0.077000
     11 C24         0.3560    0.3970   -4.9630 ca        1 CC3     -0.037000
     12 C19        -0.2410    0.6810   -3.7210 ca        1 CC3     -0.044400
     13 N18        -1.7080    0.7290   -3.6110 n4        1 CC3     -0.612100
     14 C16        -2.3470   -0.6320   -3.6050 ca        1 CC3      0.749900
     15 N15        -2.2410   -1.3650   -4.7680 nb        1 CC3     -0.625000
     16 C14        -2.8660   -2.5510   -4.7720 ca        1 CC3      0.508200
     17 C13        -3.5940   -3.0430   -3.6540 ca        1 CC3     -0.252600
     18 N17        -2.9960   -1.0010   -2.4620 nb        1 CC3     -0.670000
     19 C12        -3.6250   -2.2190   -2.5110 ca        1 CC3      0.540200
     20 N11        -4.3610   -2.6570   -1.2970 n4        1 CC3     -0.616100
     21 C1         -3.5800   -3.6090   -0.4900 ca        1 CC3     -0.087400
     22 C6         -2.3860   -3.1850    0.1130 ca        1 CC3     -0.062000
     23 C5         -1.6770   -4.0870    0.9060 ca        1 CC3     -0.148300
     24 C7         -0.3680   -3.6070    1.5430 c3        1 CC3      0.694200
     25 F10         0.3720   -4.5890    2.1390 f         1 CC3     -0.218633
     26 F9          0.4880   -3.0250    0.6320 f         1 CC3     -0.218633
     27 F8         -0.5440   -2.6390    2.4960 f         1 CC3     -0.218633
     28 C4         -2.1500   -5.3830    1.1230 ca        1 CC3     -0.001000
     29 C3         -3.3480   -5.7880    0.5230 ca        1 CC3     -0.086000
     30 C2         -4.0690   -4.9160   -0.2890 ca        1 CC3     -0.069000
     31 H28         4.8230    0.1600   -0.3710 hc        1 CC3      0.133700
     32 H301        4.7630   -2.1190    0.7570 hc        1 CC3      0.121200
     33 H302        2.9300   -2.0310    0.9230 hc        1 CC3      0.121200
     34 H291        3.1430    0.1150    2.3190 hc        1 CC3      0.121200
     35 H292        4.9750    0.0560    2.1600 hc        1 CC3      0.121200
     36 HN25        2.5130    2.2870   -1.2390 hn        1 CC3      0.478300
     37 H20         0.0720    1.2070   -1.6120 ha        1 CC3      0.188000
     38 H22         3.6470    0.7220   -4.0870 ha        1 CC3      0.198000
     39 H23         2.2250    0.1950   -6.0410 ha        1 CC3      0.217000
     40 H24        -0.2450    0.1700   -5.8650 ha        1 CC3      0.203000
     41 HN18       -1.9770    1.2370   -2.7510 hn        1 CC3      0.500300
     42 H14        -2.7910   -3.1430   -5.7180 h4        1 CC3      0.120100
     43 H13        -4.0980   -4.0250   -3.7140 ha        1 CC3      0.226000
     44 HN11       -4.5950   -1.8410   -0.7030 hn        1 CC3      0.493300
     45 H6         -1.9980   -2.1600   -0.0120 ha        1 CC3      0.161000
     46 H4         -1.5840   -6.0850    1.7670 ha        1 CC3      0.210000
     47 H3         -3.7320   -6.8120    0.7000 ha        1 CC3      0.207000
     48 H2         -5.0150   -5.2620   -0.7430 ha        1 CC3      0.176000
     49 H252        3.7640    1.3800   -1.8680 hn        1 CC3      0.478300
     50 H182       -2.0820    1.2420   -4.4330 hn        1 CC3      0.500300
     51 H112       -5.2410   -3.1060   -1.6030 hn        1 CC3      0.493300
@<TRIPOS>BOND
     1    1    2 2   
     2    2    3 1   
     3    2    6 1   
     4    3    4 1   
     5    3    5 1   
     6    3   31 1   
     7    4    5 1   
     8    4   32 1   
     9    4   33 1   
    10    5   34 1   
    11    5   35 1   
    12    6    7 1   
    13    6   36 1   
    14    6   49 1   
    15    7    8 ar  
    16    7    9 ar  
    17    8   12 ar  
    18    8   37 1   
    19    9   10 ar  
    20    9   38 1   
    21   10   11 ar  
    22   10   39 1   
    23   11   12 ar  
    24   11   40 1   
    25   12   13 1   
    26   13   14 1   
    27   13   41 1   
    28   13   50 1   
    29   14   15 ar  
    30   14   18 ar  
    31   15   16 ar  
    32   16   17 ar  
    33   16   42 1   
    34   17   19 ar  
    35   17   43 1   
    36   18   19 ar  
    37   19   20 1   
    38   20   21 1   
    39   20   44 1   
    40   20   51 1   
    41   21   22 ar  
    42   21   30 ar  
    43   22   23 ar  
    44   22   45 1   
    45   23   24 1   
    46   23   28 ar  
    47   24   25 1   
    48   24   26 1   
    49   24   27 1   
    50   28   29 ar  
    51   28   46 1   
    52   29   30 ar  
    53   29   47 1   
    54   30   48 1   
@<TRIPOS>SUBSTRUCTURE
     1 CC3         1 TEMP              0 ****  ****    0 ROOT
