@<TRIPOS>MOLECULE
CC4
   12    12     1     0     0
SMALL
bcc


@<TRIPOS>ATOM
      1 C4         -0.1510    0.4650    0.0240 c         1 CC4      0.921600
      2 O1          1.0030    0.9260    0.2440 o         1 CC4     -0.836300
      3 C2         -0.7880   -0.4220    1.1160 cy        1 CC4     -0.199700
      4 C3         -0.4330   -0.0020    2.5410 cy        1 CC4      0.082700
      5 C1         -2.3040   -0.2840    1.2200 cy        1 CC4      0.082700
      6 SE         -2.1960    0.1630    2.9870 ss        1 CC4     -0.528200
      7 H31C       -0.4790   -1.4750    0.9030 hc        1 CC4      0.050700
      8 H32C        0.0820   -0.7750    3.1410 h1        1 CC4      0.065200
      9 H11C        0.1210    0.9580    2.5820 h1        1 CC4      0.065200
     10 H12C       -2.8710   -1.2200    1.0570 h1        1 CC4      0.065200
     11 HSE        -2.7080    0.5320    0.5860 h1        1 CC4      0.065200
     12 OXT        -0.8110    0.6550   -1.0350 o         1 CC4     -0.836300
@<TRIPOS>BOND
     1    1    2 1   
     2    1    3 1   
     3    1   12 1   
     4    3    4 1   
     5    3    5 1   
     6    3    7 1   
     7    4    6 1   
     8    4    8 1   
     9    4    9 1   
    10    5    6 1   
    11    5   10 1   
    12    5   11 1   
@<TRIPOS>SUBSTRUCTURE
     1 CC4         1 TEMP              0 ****  ****    0 ROOT
