@<TRIPOS>MOLECULE
CC4
   12    11     1     0     0
SMALL
bcc


@<TRIPOS>ATOM
      1 C4         -2.3440    0.1350   -0.0030 c         1 CC4      0.905800
      2 O1         -3.2530   -0.7410    0.0010 o         1 CC4     -0.835300
      3 C2         -0.8890   -0.3330    0.0010 ce        1 CC4     -0.172400
      4 C3         -0.5640   -1.6260    0.0010 c2        1 CC4     -0.228000
      5 C1          0.0860    0.7760    0.0050 c3        1 CC4      0.090900
      6 SE          1.7810    0.1880   -0.0060 sh        1 CC4     -0.457900
      7 H31C        0.4720   -1.9900    0.0030 ha        1 CC4      0.104500
      8 H32C       -1.3490   -2.3950   -0.0020 ha        1 CC4      0.104500
      9 H11C       -0.0880    1.4200   -0.8920 h1        1 CC4      0.074200
     10 H12C       -0.0800    1.4060    0.9140 h1        1 CC4      0.074200
     11 HSE         2.3810    1.3620   -0.0060 hs        1 CC4      0.173800
     12 OXT        -2.5590    1.3820   -0.0100 o         1 CC4     -0.835300
@<TRIPOS>BOND
     1    1    2 1   
     2    1    3 1   
     3    1   12 1   
     4    3    4 2   
     5    3    5 1   
     6    4    7 1   
     7    4    8 1   
     8    5    6 1   
     9    5    9 1   
    10    5   10 1   
    11    6   11 1   
@<TRIPOS>SUBSTRUCTURE
     1 CC4         1 TEMP              0 ****  ****    0 ROOT
