@<TRIPOS>MOLECULE
CC4
   12     9     1     0     0
SMALL
bcc


@<TRIPOS>ATOM
      1 C4          0.7420   -0.4860   -1.3090 c1        1 CC4      0.821000
      2 O1          2.0850   -0.5770   -1.2900 o         1 CC4     -0.805000
      3 C2         -0.0270   -0.5220   -0.0270 c1        1 CC4     -0.131100
      4 C3         -0.3100   -1.6940    0.5550 c1        1 CC4     -0.166500
      5 C1         -0.4890    0.7550    0.6050 c3        1 CC4      0.079800
      6 SE          0.4640    2.2260   -0.1600 sh        1 CC4     -0.544900
      7 H31C       -0.0110   -2.5250    0.1450 DU        1 CC4      0.120000
      8 H32C       -0.8480   -1.7170    1.4580 ha        1 CC4      0.014500
      9 H11C       -0.3080    0.7190    1.6440 h1        1 CC4      0.052200
     10 H12C       -1.3880    0.8620    0.4550 h1        1 CC4      0.052200
     11 HSE        -0.0370    3.4110    0.3370 hs        1 CC4      0.313800
     12 OXT         0.1270   -0.4530   -2.4120 o         1 CC4     -0.805000
@<TRIPOS>BOND
     1    1    2 2   
     2    1   12 2   
     3    3    4 3   
     4    3    5 1   
     5    4    8 1   
     6    5    6 1   
     7    5    9 1   
     8    5   10 1   
     9    6   11 1   
@<TRIPOS>SUBSTRUCTURE
     1 CC4         1 TEMP              0 ****  ****    0 ROOT
