@<TRIPOS>MOLECULE
CC4
   12    12     1     0     0
SMALL
bcc


@<TRIPOS>ATOM
      1 C4         -0.1600    0.4900    0.0290 c         1 CC4      0.921600
      2 O1          0.9960    0.9460    0.2500 o         1 CC4     -0.836300
      3 C2         -0.7900   -0.4190    1.1070 cy        1 CC4     -0.199700
      4 C3         -0.4230   -0.0300    2.5370 cy        1 CC4      0.082700
      5 C1         -2.3050   -0.2800    1.2260 cy        1 CC4      0.082700
      6 SE         -2.1810    0.1280    3.0010 ss        1 CC4     -0.528200
      7 H31C       -0.4840   -1.4680    0.8690 hc        1 CC4      0.050700
      8 H32C        0.0960   -0.8160    3.1160 h1        1 CC4      0.065200
      9 H11C        0.1330    0.9280    2.5940 h1        1 CC4      0.065200
     10 H12C       -2.8740   -1.2120    1.0480 h1        1 CC4      0.065200
     11 HSE        -2.7120    0.5490    0.6120 h1        1 CC4      0.065200
     12 OXT        -0.8280    0.7030   -1.0210 o         1 CC4     -0.836300
@<TRIPOS>BOND
     1    1    2 1   
     2    1    3 1   
     3    1   12 1   
     4    3    4 1   
     5    3    5 1   
     6    3    7 1   
     7    4    6 1   
     8    4    8 1   
     9    4    9 1   
    10    5    6 1   
    11    5   10 1   
    12    5   11 1   
@<TRIPOS>SUBSTRUCTURE
     1 CC4         1 TEMP              0 ****  ****    0 ROOT
