@<TRIPOS>MOLECULE
CC5
   28    30     1     0     0
SMALL
bcc


@<TRIPOS>ATOM
      1 N1          3.8540    0.9330    0.5960 nb        1 CC5     -0.794000
      2 C2          2.8430    1.7310    1.0280 ca        1 CC5      0.690900
      3 N3          1.5010    1.5730    0.9300 nb        1 CC5     -0.734000
      4 C4          1.1540    0.4160    0.2930 ca        1 CC5      0.475800
      5 N9         -0.1060   -0.1150   -0.0340 na        1 CC5     -0.286000
      6 C8          0.1530   -1.3540   -0.6780 cc        1 CC5      0.403700
      7 N7          1.4560   -1.6270   -0.8210 nd        1 CC5     -0.537100
      8 C5          2.1230   -0.5420   -0.2280 ca        1 CC5     -0.237200
      9 C6          3.5130   -0.2310   -0.0560 ca        1 CC5      0.763200
     10 N6          4.4760   -1.0680   -0.5550 nh        1 CC5     -0.958500
     11 C1'        -1.3810    0.4100    0.3830 c3        1 CC5      0.249800
     12 C2'        -2.3840    0.6000   -0.8040 c3        1 CC5      0.073100
     13 C3'        -3.4870   -0.4620   -0.5780 c3        1 CC5      0.076100
     14 C4'        -3.0430   -1.2330    0.6730 c3        1 CC5      0.082400
     15 O4'        -2.0230   -0.4690    1.3190 os        1 CC5     -0.406600
     16 O2'        -2.9020    1.9070   -0.6640 oh        1 CC5     -0.585800
     17 O3'        -4.7490    0.1480   -0.4240 oh        1 CC5     -0.587800
     18 H2          3.1740    2.6580    1.5450 h5        1 CC5      0.053100
     19 H8         -0.6710   -1.9940   -1.0140 h5        1 CC5      0.067800
     20 H6N1        5.4340   -0.8930   -0.3790 hn        1 CC5      0.447800
     21 H6N2        4.1980   -1.9370   -0.9370 hn        1 CC5      0.447800
     22 H1'        -1.2170    1.3810    0.9420 h2        1 CC5      0.146700
     23 H2'        -1.8990    0.4810   -1.8070 h1        1 CC5      0.072700
     24 H3'        -3.6060   -1.1390   -1.4650 h1        1 CC5      0.094700
     25 H4'1       -2.6280   -2.2380    0.4050 h1        1 CC5      0.068200
     26 H4'2       -3.8670   -1.3400    1.4240 h1        1 CC5      0.068200
     27 HA         -3.5990    2.0030   -1.3300 ho        1 CC5      0.424000
     28 HB         -4.6960    0.7370    0.3430 ho        1 CC5      0.421000
@<TRIPOS>BOND
     1    1    2 ar  
     2    1    9 ar  
     3    2    3 ar  
     4    2   18 1   
     5    3    4 ar  
     6    4    5 1   
     7    4    8 ar  
     8    5    6 1   
     9    5   11 1   
    10    6    7 2   
    11    6   19 1   
    12    7    8 1   
    13    8    9 ar  
    14    9   10 1   
    15   10   20 1   
    16   10   21 1   
    17   11   12 1   
    18   11   15 1   
    19   11   22 1   
    20   12   13 1   
    21   12   16 1   
    22   12   23 1   
    23   13   14 1   
    24   13   17 1   
    25   13   24 1   
    26   14   15 1   
    27   14   25 1   
    28   14   26 1   
    29   16   27 1   
    30   17   28 1   
@<TRIPOS>SUBSTRUCTURE
     1 CC5         1 TEMP              0 ****  ****    0 ROOT
