@<TRIPOS>MOLECULE
CC5
   28    30     1     0     0
SMALL
bcc


@<TRIPOS>ATOM
      1 N1         -0.3050   -0.5320    0.0630 nb        1 CC5     -0.794000
      2 C2          1.0480   -0.5220   -0.0570 ca        1 CC5      0.690900
      3 N3          2.0060   -0.2480    0.8610 nb        1 CC5     -0.734000
      4 C4          1.4870    0.0590    2.0860 ca        1 CC5      0.475800
      5 N9          2.1150    0.4200    3.2910 na        1 CC5     -0.286000
      6 C8          1.0670    0.6050    4.2310 cc        1 CC5      0.403700
      7 N7         -0.1570    0.4330    3.7180 nd        1 CC5     -0.537100
      8 C5          0.0570    0.0910    2.3730 ca        1 CC5     -0.237200
      9 C6         -0.8370   -0.2140    1.2920 ca        1 CC5      0.763200
     10 N6         -2.1930   -0.1650    1.4820 nh        1 CC5     -0.958500
     11 C1'         3.5330    0.4060    3.5440 c3        1 CC5      0.249800
     12 C2'         4.0590    1.7450    4.1600 c3        1 CC5      0.073100
     13 C3'         4.4600    1.3960    5.6130 c3        1 CC5      0.076100
     14 C4'         4.0990   -0.0870    5.7760 c3        1 CC5      0.082400
     15 O4'         3.8830   -0.6320    4.4730 os        1 CC5     -0.406600
     16 O2'         5.1910    2.1030    3.3930 oh        1 CC5     -0.585800
     17 O3'         5.8290    1.6510    5.8330 oh        1 CC5     -0.587800
     18 H2          1.4250   -0.7830   -1.0700 h5        1 CC5      0.053100
     19 H8          1.2880    0.8680    5.2720 h5        1 CC5      0.066800
     20 H6N1       -2.8120   -0.4410    0.7600 hn        1 CC5      0.447800
     21 H6N2       -2.5400   -0.0210    2.3970 hn        1 CC5      0.447800
     22 H1'         4.0780    0.1520    2.5850 h2        1 CC5      0.146700
     23 H2'         3.2980    2.5670    4.1310 h1        1 CC5      0.072700
     24 H3'         3.9280    2.0400    6.3620 h1        1 CC5      0.094700
     25 H4'1        4.9350   -0.6850    6.2220 h1        1 CC5      0.068200
     26 H4'2        3.1650   -0.2140    6.3810 h1        1 CC5      0.068200
     27 HA          5.5880    2.8730    3.8250 ho        1 CC5      0.424000
     28 HB          6.3310    1.1030    5.2120 ho        1 CC5      0.421000
@<TRIPOS>BOND
     1    1    2 ar  
     2    1    9 ar  
     3    2    3 ar  
     4    2   18 1   
     5    3    4 ar  
     6    4    5 1   
     7    4    8 ar  
     8    5    6 1   
     9    5   11 1   
    10    6    7 2   
    11    6   19 1   
    12    7    8 1   
    13    8    9 ar  
    14    9   10 1   
    15   10   20 1   
    16   10   21 1   
    17   11   12 1   
    18   11   15 1   
    19   11   22 1   
    20   12   13 1   
    21   12   16 1   
    22   12   23 1   
    23   13   14 1   
    24   13   17 1   
    25   13   24 1   
    26   14   15 1   
    27   14   25 1   
    28   14   26 1   
    29   16   27 1   
    30   17   28 1   
@<TRIPOS>SUBSTRUCTURE
     1 CC5         1 TEMP              0 ****  ****    0 ROOT
