@<TRIPOS>MOLECULE
CC5
   29    31     1     0     0
SMALL
bcc


@<TRIPOS>ATOM
      1 N1         -0.2190    0.6670    0.1520 nb        1 CC5     -0.678000
      2 C2          1.1110    0.9720    0.1720 ca        1 CC5      0.669900
      3 N3          2.0140    0.7820    1.1690 nb        1 CC5     -0.610000
      4 C4          1.4950    0.2090    2.2820 ca        1 CC5      0.453800
      5 N9          2.0600   -0.1580    3.5120 na        1 CC5     -0.268000
      6 C8          1.0200   -0.7290    4.2740 cc        1 CC5      0.516700
      7 N7         -0.1770   -0.7460    3.6500 nd        1 CC5     -0.592100
      8 C5          0.0660   -0.1740    2.4010 ca        1 CC5     -0.136200
      9 C6         -0.7270    0.0950    1.2710 ca        1 CC5      0.515200
     10 N6         -2.1560   -0.2680    1.3170 n4        1 CC5     -0.815300
     11 C1'         3.4790   -0.1210    3.8640 c3        1 CC5      0.209800
     12 C2'         4.1350    1.2960    3.7510 c3        1 CC5      0.090100
     13 C3'         4.4380    1.7030    5.2140 c3        1 CC5      0.081100
     14 C4'         3.9480    0.5350    6.0780 c3        1 CC5      0.114400
     15 O4'         3.6250   -0.5620    5.2070 os        1 CC5     -0.407600
     16 O2'         5.2920    1.2240    2.9640 oh        1 CC5     -0.564800
     17 O3'         5.8340    1.8140    5.4070 oh        1 CC5     -0.581800
     18 H2          1.5060    1.4400   -0.7620 h5        1 CC5      0.102100
     19 H8          1.2140   -1.1210    5.2890 h5        1 CC5      0.119800
     20 H6N1       -2.5890    0.2130    2.1150 hn        1 CC5      0.477800
     21 H6N2       -2.2290   -1.2840    1.4560 hn        1 CC5      0.477800
     22 H1'         4.0160   -0.8760    3.2130 h2        1 CC5      0.125700
     23 H2'         3.4770    2.0420    3.2310 h1        1 CC5      0.108700
     24 H3'         3.9210    2.6600    5.4830 h1        1 CC5      0.074700
     25 H4'1        4.7480    0.1490    6.7630 h1        1 CC5      0.088200
     26 H4'2        3.0260    0.8080    6.6510 h1        1 CC5      0.088200
     27 HA          5.9780    0.7560    3.4690 ho        1 CC5      0.432000
     28 HB          6.1200    2.6290    4.9720 ho        1 CC5      0.429000
     29 H63        -2.6370   -0.0020    0.4480 hn        1 CC5      0.477800
@<TRIPOS>BOND
     1    1    2 ar  
     2    1    9 ar  
     3    2    3 ar  
     4    2   18 1   
     5    3    4 ar  
     6    4    5 1   
     7    4    8 ar  
     8    5    6 1   
     9    5   11 1   
    10    6    7 2   
    11    6   19 1   
    12    7    8 1   
    13    8    9 ar  
    14    9   10 1   
    15   10   20 1   
    16   10   21 1   
    17   10   29 1   
    18   11   12 1   
    19   11   15 1   
    20   11   22 1   
    21   12   13 1   
    22   12   16 1   
    23   12   23 1   
    24   13   14 1   
    25   13   17 1   
    26   13   24 1   
    27   14   15 1   
    28   14   25 1   
    29   14   26 1   
    30   16   27 1   
    31   17   28 1   
@<TRIPOS>SUBSTRUCTURE
     1 CC5         1 TEMP              0 ****  ****    0 ROOT
