@<TRIPOS>MOLECULE
CC5
   28    30     1     0     0
SMALL
bcc


@<TRIPOS>ATOM
      1 N1         -0.3080   -0.5250    0.0660 nb        1 CC5     -0.794000
      2 C2          1.0450   -0.5020   -0.0590 ca        1 CC5      0.690900
      3 N3          2.0040   -0.2300    0.8580 nb        1 CC5     -0.734000
      4 C4          1.4860    0.0590    2.0880 ca        1 CC5      0.475800
      5 N9          2.1160    0.4120    3.2950 na        1 CC5     -0.287000
      6 C8          1.0700    0.5770    4.2410 cc        1 CC5      0.403700
      7 N7         -0.1540    0.4000    3.7310 nd        1 CC5     -0.537100
      8 C5          0.0570    0.0750    2.3810 ca        1 CC5     -0.237200
      9 C6         -0.8380   -0.2260    1.3010 ca        1 CC5      0.763200
     10 N6         -2.1940   -0.1910    1.4960 nv        1 CC5     -0.958500
     11 C1'         3.5350    0.4090    3.5420 c3        1 CC5      0.249800
     12 C2'         4.0530    1.7500    4.1620 c3        1 CC5      0.072100
     13 C3'         4.4640    1.3970    5.6120 c3        1 CC5      0.076100
     14 C4'         4.1160   -0.0900    5.7690 c3        1 CC5      0.082400
     15 O4'         3.8980   -0.6300    4.4650 os        1 CC5     -0.406600
     16 O2'         5.1790    2.1200    3.3920 oh        1 CC5     -0.585800
     17 O3'         5.8310    1.6630    5.8270 oh        1 CC5     -0.587800
     18 H2          1.4200   -0.7490   -1.0770 h5        1 CC5      0.053100
     19 H8          1.2930    0.8300    5.2840 h5        1 CC5      0.067800
     20 H6N1       -2.5380   -0.0610    2.4140 hn        1 CC5      0.447800
     21 H6N2       -2.8130   -0.4640    0.7740 hn        1 CC5      0.447800
     22 H1'         4.0790    0.1640    2.5800 h2        1 CC5      0.146700
     23 H2'         3.2840    2.5650    4.1400 h1        1 CC5      0.072700
     24 H3'         3.9290    2.0330    6.3660 h1        1 CC5      0.094700
     25 H4'1        4.9600   -0.6820    6.2080 h1        1 CC5      0.068200
     26 H4'2        3.1860   -0.2280    6.3780 h1        1 CC5      0.068200
     27 HA          5.5700    2.8920    3.8250 ho        1 CC5      0.424000
     28 HB          6.3350    1.1230    5.2000 ho        1 CC5      0.421000
@<TRIPOS>BOND
     1    1    2 ar  
     2    1    9 ar  
     3    2    3 ar  
     4    2   18 1   
     5    3    4 ar  
     6    4    5 1   
     7    4    8 ar  
     8    5    6 1   
     9    5   11 1   
    10    6    7 2   
    11    6   19 1   
    12    7    8 1   
    13    8    9 ar  
    14    9   10 1   
    15   10   20 1   
    16   10   21 1   
    17   11   12 1   
    18   11   15 1   
    19   11   22 1   
    20   12   13 1   
    21   12   16 1   
    22   12   23 1   
    23   13   14 1   
    24   13   17 1   
    25   13   24 1   
    26   14   15 1   
    27   14   25 1   
    28   14   26 1   
    29   16   27 1   
    30   17   28 1   
@<TRIPOS>SUBSTRUCTURE
     1 CC5         1 TEMP              0 ****  ****    0 ROOT
