@<TRIPOS>MOLECULE
CC5
   28    24     1     0     0
SMALL
bcc


@<TRIPOS>ATOM
      1 N1         -2.2190   -0.0890   -3.5330 n1        1 CC5     -0.270000
      2 C2         -0.8330   -0.0690   -3.5630 c1        1 CC5      0.029000
      3 N3         -0.1260   -0.0600   -2.3990 n1        1 CC5     -0.240000
      4 C4         -0.7860   -0.0690   -1.1930 c1        1 CC5      0.059000
      5 N9         -0.3390   -0.1240    0.0840 n1        1 CC5     -0.208000
      6 C8         -1.4160   -0.1770    0.9020 c1        1 CC5     -0.028000
      7 N7         -2.5320   -0.1560    0.1300 n2        1 CC5     -0.122000
      8 C5         -2.1440   -0.0890   -1.1630 c1        1 CC5     -0.237000
      9 C6         -2.8670   -0.0980   -2.3570 c1        1 CC5      0.245000
     10 N6         -4.2830   -0.1040   -2.6870 n3        1 CC5     -0.355000
     11 C1'         1.0030   -0.2980    0.5000 c2        1 CC5      0.137000
     12 C2'         1.4080    0.7420    1.1960 c3        1 CC5     -0.027000
     13 C3'         2.4310    0.1620    2.3170 c3        1 CC5      0.013000
     14 C4'         1.9240   -1.0350    2.7130 c3        1 CC5     -0.032000
     15 O4'         1.1180   -1.5490    1.5110 os        1 CC5     -0.268000
     16 O2'         2.0910    1.6760    0.3400 oh        1 CC5     -0.325000
     17 O3'         3.7170   -0.0200    1.7550 oh        1 CC5     -0.316000
     18 H2         -0.3300   -0.0650   -4.4810 ha        1 CC5      0.188000
     19 H8         -1.3940   -0.2460    1.8440 DU        1 CC5      0.217000
     20 H6N1       -4.6410   -0.8070   -3.0760 hn        1 CC5      0.245500
     21 H6N2       -4.7770    0.6370   -2.5580 hn        1 CC5      0.245500
     22 H1'         1.5860   -0.4350   -0.2810 h4        1 CC5      0.143000
     23 H2'         0.6680    1.1610    1.6140 h1        1 CC5      0.116000
     24 H3'         2.4820    0.7940    3.1010 h1        1 CC5      0.098000
     25 H4'1        2.6850   -1.6880    2.9360 h1        1 CC5      0.112000
     26 H4'2        1.3370   -0.9180    3.4910 h1        1 CC5      0.112000
     27 HA          1.8860    2.4950    0.5810 ho        1 CC5      0.239000
     28 HB          4.3510    0.4300    2.2740 ho        1 CC5      0.230000
@<TRIPOS>BOND
     1    1    9 1   
     2    2    3 1   
     3    2   18 1   
     4    4    8 1   
     5    5    6 1   
     6    6    7 1   
     7    7    8 1   
     8    9   10 1   
     9   10   20 1   
    10   10   21 1   
    11   11   12 1   
    12   11   15 1   
    13   11   22 1   
    14   12   13 1   
    15   12   16 1   
    16   12   23 1   
    17   13   14 1   
    18   13   17 1   
    19   13   24 1   
    20   14   15 1   
    21   14   25 1   
    22   14   26 1   
    23   16   27 1   
    24   17   28 1   
@<TRIPOS>SUBSTRUCTURE
     1 CC5         1 TEMP              0 ****  ****    0 ROOT
