@<TRIPOS>MOLECULE
CC7
   33    35     1     0     0
SMALL
bcc


@<TRIPOS>ATOM
      1 O2         -0.0850   -0.7470   -0.0370 o         1 CC7     -0.513500
      2 C2          1.1090   -0.4320    0.0070 c         1 CC7      0.834900
      3 N3          1.7720   -0.2840    1.2630 nc        1 CC7     -0.619100
      4 C4          3.0480    0.0410    1.2570 cd        1 CC7      0.610500
      5 N4          3.7190    0.1970    2.5760 n4        1 CC7     -0.803600
      6 C5          3.8410    0.2620    0.0820 cd        1 CC7     -0.440600
      7 C6          3.1790    0.1290   -1.1300 cc        1 CC7      0.137600
      8 N1          1.8640   -0.2300   -1.2080 n         1 CC7     -0.336000
      9 C1'         1.2080   -0.2670   -2.5180 c3        1 CC7      0.266500
     10 O4'         0.3820    0.9180   -2.6470 os        1 CC7     -0.395600
     11 C4'        -0.7900    0.5250   -3.3660 c3        1 CC7      0.041100
     12 C5'        -2.0430    1.3590   -3.1150 c3        1 CC7      0.193400
     13 O5'        -3.0710    0.7710   -3.8820 os        1 CC7     -0.555200
     14 P          -3.4430   -0.7860   -3.7520 p5        1 CC7      1.629500
     15 O2P        -3.8140   -0.8880   -2.2090 oh        1 CC7     -0.788400
     16 O1P        -4.4310   -1.3350   -4.6500 o         1 CC7     -0.747300
     17 O3'        -1.9820   -1.5180   -3.7680 os        1 CC7     -0.528200
     18 C3'        -1.0940   -0.9110   -2.8750 c3        1 CC7      0.082100
     19 C2'         0.3020   -1.5360   -2.7790 c3        1 CC7      0.145100
     20 O2'         0.7820   -2.1090   -3.9710 oh        1 CC7     -0.594800
     21 HN4         3.0650    0.0240    3.3540 hn        1 CC7      0.480467
     22 HN4A        4.0850    1.1540    2.6450 hn        1 CC7      0.480467
     23 H5          4.9040    0.5270    0.1140 ha        1 CC7      0.187000
     24 H6          3.7220    0.3060   -2.0850 h4        1 CC7      0.205000
     25 H1'         2.0050   -0.2070   -3.3190 h2        1 CC7      0.114700
     26 H4'        -0.5220    0.5430   -4.4630 h1        1 CC7      0.094700
     27 H5'        -2.3330    1.3610   -2.0300 h1        1 CC7      0.085200
     28 H5'A       -1.9300    2.4100   -3.4910 h1        1 CC7      0.085200
     29 HO2P       -4.6600   -1.2660   -1.9760 ho        1 CC7      0.502000
     30 H3'        -1.5560   -0.9000   -1.8410 h1        1 CC7      0.117700
     31 H2'         0.3660   -2.2920   -1.9540 h1        1 CC7      0.090700
     32 HO2'        0.0150   -2.4290   -4.4740 ho        1 CC7      0.456000
     33 H43         4.4950   -0.4740    2.6280 hn        1 CC7      0.480467
@<TRIPOS>BOND
     1    1    2 2   
     2    2    3 1   
     3    2    8 1   
     4    3    4 2   
     5    4    5 1   
     6    4    6 1   
     7    5   21 1   
     8    5   22 1   
     9    5   33 1   
    10    6    7 2   
    11    6   23 1   
    12    7    8 1   
    13    7   24 1   
    14    8    9 1   
    15    9   10 1   
    16    9   19 1   
    17    9   25 1   
    18   10   11 1   
    19   11   12 1   
    20   11   18 1   
    21   11   26 1   
    22   12   13 1   
    23   12   27 1   
    24   12   28 1   
    25   13   14 1   
    26   14   15 1   
    27   14   16 2   
    28   14   17 1   
    29   15   29 1   
    30   17   18 1   
    31   18   19 1   
    32   18   30 1   
    33   19   20 1   
    34   19   31 1   
    35   20   32 1   
@<TRIPOS>SUBSTRUCTURE
     1 CC7         1 TEMP              0 ****  ****    0 ROOT
