@<TRIPOS>MOLECULE
CC7
   32    34     1     0     0
SMALL
bcc


@<TRIPOS>ATOM
      1 O2          1.2600    1.0580    1.1680 o         1 CC7     -0.633500
      2 C2          2.3160    0.6130    0.6740 c         1 CC7      0.847900
      3 N3          3.5470    1.2460    0.8730 nc        1 CC7     -0.724100
      4 C4          4.6530    0.7190    0.3170 cd        1 CC7      0.762500
      5 N4          5.8760    1.3030    0.5430 nh        1 CC7     -0.921800
      6 C5          4.5990   -0.4870   -0.5130 cd        1 CC7     -0.418600
      7 C6          3.3830   -1.0820   -0.7010 cc        1 CC7      0.072600
      8 N1          2.2330   -0.6090   -0.1040 n         1 CC7     -0.386000
      9 C1'         0.9730   -1.2370   -0.4380 c3        1 CC7      0.291500
     10 O4'         0.3270   -0.4770   -1.5100 os        1 CC7     -0.407600
     11 C4'        -1.0660   -0.4400   -1.2210 c3        1 CC7      0.049100
     12 C5'        -1.8120    0.7730   -1.7630 c3        1 CC7      0.182400
     13 O5'        -3.1590    0.6390   -1.3500 os        1 CC7     -0.561200
     14 P          -3.5250    0.3980    0.1930 p5        1 CC7      1.622500
     15 O2P        -2.9680    1.7280    0.8660 oh        1 CC7     -0.779400
     16 O1P        -4.9140    0.1390    0.5100 o         1 CC7     -0.773300
     17 O3'        -2.4670   -0.7210    0.7080 os        1 CC7     -0.535200
     18 C3'        -1.1580   -0.3910    0.3230 c3        1 CC7      0.069100
     19 C2'        -0.0570   -1.3670    0.7490 c3        1 CC7      0.144100
     20 O2'        -0.4640   -2.7190    0.7640 oh        1 CC7     -0.603800
     21 HN4         5.9410    2.1580    1.0400 hn        1 CC7      0.443300
     22 HN4A        6.6540    0.9900    0.0210 hn        1 CC7      0.443300
     23 H5          5.5050   -0.8970   -0.9720 ha        1 CC7      0.157000
     24 H6          3.2830   -1.9850   -1.3360 h4        1 CC7      0.160000
     25 H1'         1.1690   -2.2670   -0.8640 h2        1 CC7      0.094700
     26 H4'        -1.5140   -1.3910   -1.6300 h1        1 CC7      0.078700
     27 H5'        -1.3930    1.7350   -1.3640 h1        1 CC7      0.081200
     28 H5'A       -1.8270    0.7910   -2.8840 h1        1 CC7      0.081200
     29 HO2P       -3.5630    2.2160    1.4310 ho        1 CC7      0.493000
     30 H3'        -0.9040    0.6370    0.7210 h1        1 CC7      0.129700
     31 H2'         0.3850   -1.0920    1.7420 h1        1 CC7      0.099700
     32 HO2'       -1.3620   -2.7390    1.1250 ho        1 CC7      0.437000
@<TRIPOS>BOND
     1    1    2 2   
     2    2    3 1   
     3    2    8 1   
     4    3    4 2   
     5    4    5 1   
     6    4    6 1   
     7    5   21 1   
     8    5   22 1   
     9    6    7 2   
    10    6   23 1   
    11    7    8 1   
    12    7   24 1   
    13    8    9 1   
    14    9   10 1   
    15    9   19 1   
    16    9   25 1   
    17   10   11 1   
    18   11   12 1   
    19   11   18 1   
    20   11   26 1   
    21   12   13 1   
    22   12   27 1   
    23   12   28 1   
    24   13   14 1   
    25   14   15 1   
    26   14   16 2   
    27   14   17 1   
    28   15   29 1   
    29   17   18 1   
    30   18   19 1   
    31   18   30 1   
    32   19   20 1   
    33   19   31 1   
    34   20   32 1   
@<TRIPOS>SUBSTRUCTURE
     1 CC7         1 TEMP              0 ****  ****    0 ROOT
