@<TRIPOS>MOLECULE
CC7
   33    35     1     0     0
SMALL
bcc


@<TRIPOS>ATOM
      1 O2         -0.0860   -0.7620   -0.0390 o         1 CC7     -0.513500
      2 C2          1.1090   -0.4480    0.0060 c         1 CC7      0.834900
      3 N3          1.7720   -0.3080    1.2640 nc        1 CC7     -0.619100
      4 C4          3.0480    0.0170    1.2590 cd        1 CC7      0.610500
      5 N4          3.7190    0.1650    2.5790 n4        1 CC7     -0.803600
      6 C5          3.8420    0.2440    0.0860 cd        1 CC7     -0.440600
      7 C6          3.1790    0.1180   -1.1270 cc        1 CC7      0.137600
      8 N1          1.8640   -0.2400   -1.2070 n         1 CC7     -0.336000
      9 C1'         1.2080   -0.2700   -2.5170 c3        1 CC7      0.266500
     10 O4'         0.3830    0.9170   -2.6400 os        1 CC7     -0.395600
     11 C4'        -0.7890    0.5280   -3.3620 c3        1 CC7      0.041100
     12 C5'        -2.0420    1.3620   -3.1060 c3        1 CC7      0.193400
     13 O5'        -3.0700    0.7790   -3.8770 os        1 CC7     -0.555200
     14 P          -3.4430   -0.7790   -3.7550 p5        1 CC7      1.629500
     15 O2P        -3.8140   -0.8880   -2.2130 oh        1 CC7     -0.788400
     16 O1P        -4.4310   -1.3220   -4.6560 o         1 CC7     -0.747300
     17 O3'        -1.9820   -1.5120   -3.7740 os        1 CC7     -0.528200
     18 C3'        -1.0940   -0.9100   -2.8780 c3        1 CC7      0.082100
     19 C2'         0.3020   -1.5370   -2.7860 c3        1 CC7      0.145100
     20 O2'         0.7810   -2.1030   -3.9810 oh        1 CC7     -0.594800
     21 HN4         4.4950   -0.5050    2.6270 hn        1 CC7      0.480467
     22 HN4A        3.0650   -0.0120    3.3560 hn        1 CC7      0.480467
     23 H5          4.9040    0.5090    0.1190 ha        1 CC7      0.187000
     24 H6          3.7220    0.3000   -2.0810 h4        1 CC7      0.205000
     25 H1'         2.0060   -0.2060   -3.3190 h2        1 CC7      0.114700
     26 H4'        -0.5210    0.5520   -4.4580 h1        1 CC7      0.094700
     27 H5'        -1.9280    2.4150   -3.4770 h1        1 CC7      0.085200
     28 H5'A       -2.3310    1.3590   -2.0220 h1        1 CC7      0.085200
     29 HO2P       -4.6610   -1.2680   -1.9820 ho        1 CC7      0.502000
     30 H3'        -1.5570   -0.9040   -1.8450 h1        1 CC7      0.117700
     31 H2'         0.3650   -2.2970   -1.9640 h1        1 CC7      0.090700
     32 HO2'        0.0140   -2.4200   -4.4850 ho        1 CC7      0.456000
     33 H43         4.0850    1.1220    2.6530 hn        1 CC7      0.480467
@<TRIPOS>BOND
     1    1    2 2   
     2    2    3 1   
     3    2    8 1   
     4    3    4 2   
     5    4    5 1   
     6    4    6 1   
     7    5   21 1   
     8    5   22 1   
     9    5   33 1   
    10    6    7 2   
    11    6   23 1   
    12    7    8 1   
    13    7   24 1   
    14    8    9 1   
    15    9   10 1   
    16    9   19 1   
    17    9   25 1   
    18   10   11 1   
    19   11   12 1   
    20   11   18 1   
    21   11   26 1   
    22   12   13 1   
    23   12   27 1   
    24   12   28 1   
    25   13   14 1   
    26   14   15 1   
    27   14   16 2   
    28   14   17 1   
    29   15   29 1   
    30   17   18 1   
    31   18   19 1   
    32   18   30 1   
    33   19   20 1   
    34   19   31 1   
    35   20   32 1   
@<TRIPOS>SUBSTRUCTURE
     1 CC7         1 TEMP              0 ****  ****    0 ROOT
