@<TRIPOS>MOLECULE
CC7
   32    31     1     0     0
SMALL
bcc


@<TRIPOS>ATOM
      1 O2         -1.0300    1.2880    1.6490 o         1 CC7     -0.358000
      2 C2          0.1850    1.2880    1.6490 c1        1 CC7      0.366000
      3 N3          0.9150    1.2880    2.9150 n1        1 CC7     -0.297000
      4 C4          2.3250    1.4370    2.9200 c1        1 CC7      0.236000
      5 N4          3.0330    1.4490    4.1500 n2        1 CC7     -0.360000
      6 C5          3.0610    1.4880    1.6480 c2        1 CC7     -0.332000
      7 C6          2.3280    1.3940    0.3760 c1        1 CC7      0.070000
      8 N1          0.9150    1.2590    0.3830 n2        1 CC7     -0.279000
      9 C1'         0.3290    1.1720   -0.6290 c3        1 CC7      0.143000
     10 O4'        -1.2510    1.2250   -0.3720 os        1 CC7     -0.263000
     11 C4'        -1.7000    0.2310   -1.0840 c3        1 CC7     -0.062000
     12 C5'        -3.0870   -0.2910   -0.7560 c3        1 CC7      0.032000
     13 O5'        -3.5110   -1.3240   -1.6420 os        1 CC7     -0.723000
     14 P          -2.4970   -2.5390   -1.8020 p5        1 CC7      2.594000
     15 O2P        -2.5200   -3.4740   -0.5270 oh        1 CC7     -0.812000
     16 O1P        -2.9430   -3.4790   -2.8550 o         1 CC7     -1.044000
     17 O3'        -0.9260   -1.9440   -2.1440 os        1 CC7     -0.697000
     18 C3'        -0.4410   -0.9560   -1.1550 c3        1 CC7     -0.042000
     19 C2'         0.6050   -0.3590   -1.3560 c3        1 CC7      0.033000
     20 O2'         0.8430   -0.2140   -2.7740 oh        1 CC7     -0.331000
     21 HN4         3.9440    1.4930    4.1510 hn        1 CC7      0.238500
     22 HN4A        2.5760    1.4280    4.9390 hn        1 CC7      0.238500
     23 H5          4.0320    1.5860    1.6470 ha        1 CC7      0.157000
     24 H6          2.8140    1.4020   -0.4700 ha        1 CC7      0.160000
     25 H1'         0.5960    1.8870   -1.2380 h2        1 CC7      0.134000
     26 H4'        -1.7750    0.5810   -1.9920 h1        1 CC7      0.118000
     27 H5'        -3.0850   -0.6400    0.1560 h1        1 CC7      0.120500
     28 H5'A       -3.7230    0.4480   -0.8080 h1        1 CC7      0.120500
     29 HO2P       -2.6040   -4.3200   -0.7820 ho        1 CC7      0.292000
     30 H3'        -0.3810   -1.3960   -0.2860 h1        1 CC7      0.169000
     31 H2'         1.3520   -0.8170   -0.9240 h1        1 CC7      0.139000
     32 HO2'        1.6200   -0.5890   -2.9840 ho        1 CC7      0.236000
@<TRIPOS>BOND
     1    1    2 1   
     2    2    8 1   
     3    3    4 1   
     4    4    6 1   
     5    5   21 1   
     6    5   22 1   
     7    6    7 1   
     8    6   23 1   
     9    7   24 1   
    10    8    9 1   
    11    9   10 1   
    12    9   19 1   
    13    9   25 1   
    14   10   11 1   
    15   11   12 1   
    16   11   18 1   
    17   11   26 1   
    18   12   13 1   
    19   12   27 1   
    20   12   28 1   
    21   13   14 1   
    22   14   15 1   
    23   14   16 1   
    24   14   17 1   
    25   15   29 1   
    26   17   18 1   
    27   18   19 1   
    28   18   30 1   
    29   19   20 1   
    30   19   31 1   
    31   20   32 1   
@<TRIPOS>SUBSTRUCTURE
     1 CC7         1 TEMP              0 ****  ****    0 ROOT
