@<TRIPOS>MOLECULE
CC7
   33    35     1     0     0
SMALL
bcc


@<TRIPOS>ATOM
      1 O2         -0.0930   -0.7570   -0.0420 o         1 CC7     -0.513500
      2 C2          1.1020   -0.4440    0.0090 c         1 CC7      0.834900
      3 N3          1.7600   -0.3060    1.2690 nc        1 CC7     -0.619100
      4 C4          3.0370    0.0170    1.2700 cd        1 CC7      0.610500
      5 N4          3.7030    0.1630    2.5920 nz        1 CC7     -0.803600
      6 C5          3.8360    0.2440    0.1000 cd        1 CC7     -0.440600
      7 C6          3.1780    0.1200   -1.1160 cc        1 CC7      0.137600
      8 N1          1.8620   -0.2360   -1.2020 n         1 CC7     -0.336000
      9 C1'         1.2120   -0.2630   -2.5140 c3        1 CC7      0.266500
     10 O4'         0.3890    0.9250   -2.6400 os        1 CC7     -0.395600
     11 C4'        -0.7810    0.5380   -3.3660 c3        1 CC7      0.041100
     12 C5'        -2.0340    1.3730   -3.1140 c3        1 CC7      0.193400
     13 O5'        -3.0600    0.7920   -3.8900 os        1 CC7     -0.555200
     14 P          -3.4360   -0.7650   -3.7710 p5        1 CC7      1.629500
     15 O2P        -3.8130   -0.8760   -2.2300 oh        1 CC7     -0.788400
     16 O1P        -4.4210   -1.3060   -4.6760 o         1 CC7     -0.747300
     17 O3'        -1.9760   -1.5000   -3.7850 os        1 CC7     -0.528200
     18 C3'        -1.0900   -0.9000   -2.8850 c3        1 CC7      0.082100
     19 C2'         0.3050   -1.5290   -2.7880 c3        1 CC7      0.145100
     20 O2'         0.7880   -2.0940   -3.9820 oh        1 CC7     -0.594800
     21 HN4         4.4770   -0.5090    2.6440 hn        1 CC7      0.480467
     22 HN4A        4.0700    1.1190    2.6680 hn        1 CC7      0.480467
     23 H5          4.8980    0.5080    0.1370 ha        1 CC7      0.187000
     24 H6          3.7250    0.3030   -2.0680 h4        1 CC7      0.205000
     25 H1'         2.0120   -0.2000   -3.3120 h2        1 CC7      0.114700
     26 H4'        -0.5090    0.5630   -4.4610 h1        1 CC7      0.094700
     27 H5'        -1.9180    2.4260   -3.4830 h1        1 CC7      0.085200
     28 H5'A       -2.3280    1.3690   -2.0310 h1        1 CC7      0.085200
     29 HO2P       -4.6610   -1.2540   -2.0030 ho        1 CC7      0.502000
     30 H3'        -1.5570   -0.8940   -1.8530 h1        1 CC7      0.117700
     31 H2'         0.3640   -2.2900   -1.9670 h1        1 CC7      0.090700
     32 HO2'        0.0230   -2.4100   -4.4890 ho        1 CC7      0.456000
     33 H43         3.0450   -0.0130    3.3670 hn        1 CC7      0.480467
@<TRIPOS>BOND
     1    1    2 2   
     2    2    3 1   
     3    2    8 1   
     4    3    4 2   
     5    4    5 1   
     6    4    6 1   
     7    5   21 1   
     8    5   22 1   
     9    5   33 1   
    10    6    7 2   
    11    6   23 1   
    12    7    8 1   
    13    7   24 1   
    14    8    9 1   
    15    9   10 1   
    16    9   19 1   
    17    9   25 1   
    18   10   11 1   
    19   11   12 1   
    20   11   18 1   
    21   11   26 1   
    22   12   13 1   
    23   12   27 1   
    24   12   28 1   
    25   13   14 1   
    26   14   15 1   
    27   14   16 2   
    28   14   17 1   
    29   15   29 1   
    30   17   18 1   
    31   18   19 1   
    32   18   30 1   
    33   19   20 1   
    34   19   31 1   
    35   20   32 1   
@<TRIPOS>SUBSTRUCTURE
     1 CC7         1 TEMP              0 ****  ****    0 ROOT
