@<TRIPOS>MOLECULE
CC8
   14    13     1     0     0
SMALL
bcc


@<TRIPOS>ATOM
      1 O1         -0.0180    0.3190    0.0270 o         1 CC8     -0.840300
      2 C4          1.2220    0.0780    0.0070 c         1 CC8      0.919600
      3 C2          1.9780   -0.0510    1.3640 c3        1 CC8     -0.191700
      4 C1          1.0020   -0.0610    2.5080 c3        1 CC8      0.073700
      5 S           1.8490    0.3630    4.0320 sh        1 CC8     -0.481900
      6 C3          2.8550   -1.2800    1.3520 c3        1 CC8     -0.068100
      7 OXT         1.9050   -0.0450   -1.0470 o         1 CC8     -0.840300
      8 H2          2.6300    0.8640    1.4400 hc        1 CC8      0.050700
      9 H11C        0.1910    0.6830    2.3100 h1        1 CC8      0.066200
     10 H12C        0.5360   -1.0670    2.6240 h1        1 CC8      0.066200
     11 H31C        3.5080   -1.3150    2.2570 hc        1 CC8      0.022033
     12 H32C        3.4930   -1.2650    0.4340 hc        1 CC8      0.022033
     13 H33C        2.2320   -2.2070    1.3290 hc        1 CC8      0.022033
     14 H           0.7960    0.5840    4.7950 hs        1 CC8      0.179800
@<TRIPOS>BOND
     1    1    2 1   
     2    2    3 1   
     3    2    7 1   
     4    3    4 1   
     5    3    6 1   
     6    3    8 1   
     7    4    5 1   
     8    4    9 1   
     9    4   10 1   
    10    5   14 1   
    11    6   11 1   
    12    6   12 1   
    13    6   13 1   
@<TRIPOS>SUBSTRUCTURE
     1 CC8         1 TEMP              0 ****  ****    0 ROOT
