@<TRIPOS>MOLECULE
CC8
   14    13     1     0     0
SMALL
bcc


@<TRIPOS>ATOM
      1 O1         -1.6830   -1.4830   -0.0860 o         1 CC8     -0.840300
      2 C4         -1.5630   -0.2510    0.1670 c         1 CC8      0.919600
      3 C2         -0.1320    0.3650    0.2040 c3        1 CC8     -0.191700
      4 C1          0.8810   -0.6320   -0.2900 c3        1 CC8      0.073700
      5 S           2.5190   -0.1630    0.2740 sh        1 CC8     -0.481900
      6 C3         -0.1020    1.6490   -0.5900 c3        1 CC8     -0.068100
      7 OXT        -2.5290    0.5210    0.4170 o         1 CC8     -0.840300
      8 H2          0.0730    0.5990    1.2860 hc        1 CC8      0.050700
      9 H11C        0.6250   -1.6460    0.1040 h1        1 CC8      0.066200
     10 H12C        0.8840   -0.6760   -1.4030 h1        1 CC8      0.066200
     11 H31C       -0.9310    2.3130   -0.2430 hc        1 CC8      0.022033
     12 H32C        0.8740    2.1770   -0.4610 hc        1 CC8      0.022033
     13 H33C       -0.2510    1.4420   -1.6770 hc        1 CC8      0.022033
     14 H           3.1560   -1.2840    0.0010 hs        1 CC8      0.179800
@<TRIPOS>BOND
     1    1    2 1   
     2    2    3 1   
     3    2    7 1   
     4    3    4 1   
     5    3    6 1   
     6    3    8 1   
     7    4    5 1   
     8    4    9 1   
     9    4   10 1   
    10    5   14 1   
    11    6   11 1   
    12    6   12 1   
    13    6   13 1   
@<TRIPOS>SUBSTRUCTURE
     1 CC8         1 TEMP              0 ****  ****    0 ROOT
