@<TRIPOS>MOLECULE
CC8
   14    13     1     0     0
SMALL
bcc


@<TRIPOS>ATOM
      1 O1         -0.0200    0.3100    0.0260 o         1 CC8     -0.840300
      2 C4          1.2220    0.0800    0.0070 c         1 CC8      0.919600
      3 C2          1.9770   -0.0470    1.3650 c3        1 CC8     -0.191700
      4 C1          0.9980   -0.0700    2.5080 c3        1 CC8      0.073700
      5 S           1.8390    0.3550    4.0350 sh        1 CC8     -0.481900
      6 C3          2.8630   -1.2700    1.3500 c3        1 CC8     -0.068100
      7 OXT         1.9090   -0.0330   -1.0460 o         1 CC8     -0.840300
      8 H2          2.6210    0.8710    1.4460 hc        1 CC8      0.050700
      9 H11C        0.1820    0.6680    2.3110 h1        1 CC8      0.066200
     10 H12C        0.5400   -1.0790    2.6190 h1        1 CC8      0.066200
     11 H31C        3.5150   -1.3030    2.2560 hc        1 CC8      0.022033
     12 H32C        3.5030   -1.2460    0.4340 hc        1 CC8      0.022033
     13 H33C        2.2480   -2.2010    1.3230 hc        1 CC8      0.022033
     14 H           0.7830    0.5650    4.7960 hs        1 CC8      0.179800
@<TRIPOS>BOND
     1    1    2 1   
     2    2    3 1   
     3    2    7 1   
     4    3    4 1   
     5    3    6 1   
     6    3    8 1   
     7    4    5 1   
     8    4    9 1   
     9    4   10 1   
    10    5   14 1   
    11    6   11 1   
    12    6   12 1   
    13    6   13 1   
@<TRIPOS>SUBSTRUCTURE
     1 CC8         1 TEMP              0 ****  ****    0 ROOT
