@<TRIPOS>MOLECULE
CC8
   14    12     1     0     0
SMALL
bcc


@<TRIPOS>ATOM
      1 O1         -1.5770   -0.0700   -1.4850 o         1 CC8     -0.580500
      2 C4         -0.3250   -0.2000   -1.4750 c1        1 CC8      0.332000
      3 C2          0.4140   -0.3050   -0.1590 c2        1 CC8     -0.191000
      4 C1          0.0710    0.8870    0.7080 c3        1 CC8     -0.176000
      5 S           0.0350    2.3520   -0.2900 sh        1 CC8     -0.192000
      6 C3          0.0060   -1.5780    0.5490 c3        1 CC8     -0.184000
      7 OXT         0.3120   -0.2440   -2.5600 o         1 CC8     -0.580500
      8 H2          1.3760   -0.3200   -0.3270 ha        1 CC8      0.088000
      9 H11C        0.7470    0.9850    1.4080 h1        1 CC8      0.088000
     10 H12C       -0.8060    0.7500    1.1180 h1        1 CC8      0.088000
     11 H31C        0.6250   -1.7540    1.2880 hc        1 CC8      0.059000
     12 H32C        0.0310   -2.3260   -0.0840 hc        1 CC8      0.059000
     13 H33C       -0.9030   -1.4780    0.9010 hc        1 CC8      0.059000
     14 H          -0.0060    3.3010    0.4080 hs        1 CC8      0.130000
@<TRIPOS>BOND
     1    1    2 1   
     2    2    7 1   
     3    3    4 1   
     4    3    6 1   
     5    3    8 1   
     6    4    5 1   
     7    4    9 1   
     8    4   10 1   
     9    5   14 1   
    10    6   11 1   
    11    6   12 1   
    12    6   13 1   
@<TRIPOS>SUBSTRUCTURE
     1 CC8         1 TEMP              0 ****  ****    0 ROOT
