@<TRIPOS>MOLECULE
CCA
   44    44     1     0     0
SMALL
bcc


@<TRIPOS>ATOM
      1 C1         -1.9340   -2.1850   -2.5540 c3        1 CCA     -0.068000
      2 O5         -0.8790   -1.2680   -2.7370 os        1 CCA     -0.233000
      3 C6         -0.7820   -0.3020   -1.7200 c2        1 CCA      0.313000
      4 O7         -1.7490   -0.0450   -1.0320 o         1 CCA     -0.390000
      5 C8          0.5250    0.4370   -1.4980 c3        1 CCA     -0.160000
      6 C10         0.3360    1.8600   -1.9050 c3        1 CCA     -0.047000
      7 N12        -0.0480    2.7070   -0.9270 n4        1 CCA     -0.030000
      8 C14        -0.2590    4.0780   -1.5320 c3        1 CCA     -0.185000
      9 C18         1.7330    2.4120   -2.1900 c3        1 CCA     -0.182000
     10 C21         2.1100    3.1090   -0.7400 c3        1 CCA     -0.183000
     11 C24         0.8510    2.8130    0.0740 c3        1 CCA     -0.056000
     12 C26         1.1330    1.5490    0.8420 c3        1 CCA     -0.194000
     13 C29         0.9670    0.2300    0.0190 c3        1 CCA      0.047000
     14 O1          0.0260   -0.5530    0.6410 os        1 CCA     -0.282000
     15 C2          0.5220   -1.2700    1.7440 c2        1 CCA      0.368000
     16 O3          1.5770   -0.9500    2.2530 o         1 CCA     -0.347000
     17 C4         -0.2470   -2.4590    2.2800 c2        1 CCA     -0.133000
     18 C5         -1.3290   -2.2610    3.1240 c2        1 CCA     -0.069000
     19 C7         -1.9840   -3.3490    3.6780 c1        1 CCA     -0.144000
     20 C9         -1.5570   -4.6360    3.3900 c1        1 CCA     -0.107000
     21 C11        -0.4760   -4.8350    2.5470 c1        1 CCA     -0.107000
     22 C13         0.1800   -3.7470    1.9920 c1        1 CCA     -0.062000
     23 H2         -1.6590   -2.8770   -1.9140 h1        1 CCA      0.109333
     24 H3         -2.7210   -1.7130   -2.2070 h1        1 CCA      0.109333
     25 H4         -2.1560   -2.6030   -3.4140 h1        1 CCA      0.109333
     26 H9          1.2060    0.0410   -2.0740 hc        1 CCA      0.188000
     27 H11        -0.2410    1.9360   -2.6910 hx        1 CCA      0.160000
     28 H13        -0.8420    2.4140   -0.5800 hn        1 CCA      0.286000
     29 H15         0.4200    4.6940   -1.1880 hx        1 CCA      0.140000
     30 H16        -1.1510    4.4070   -1.2930 hx        1 CCA      0.140000
     31 H17        -0.1830    4.0200   -2.5080 hx        1 CCA      0.140000
     32 H19         1.7070    3.0810   -2.9030 hc        1 CCA      0.134500
     33 H20         2.3580    1.6910   -2.4050 hc        1 CCA      0.134500
     34 H22         2.8940    2.6820   -0.3390 hc        1 CCA      0.132000
     35 H23         2.2450    4.0720   -0.8380 hc        1 CCA      0.132000
     36 H25         0.6340    3.5560    0.6720 hx        1 CCA      0.157000
     37 H27         2.0520    1.5900    1.1760 hc        1 CCA      0.141000
     38 H28         0.5270    1.5120    1.6090 hc        1 CCA      0.141000
     39 H30         1.8210   -0.2470    0.0280 h1        1 CCA      0.137000
     40 H6         -1.6290   -1.3550    3.3270 ha        1 CCA      0.146000
     41 H8         -2.7460   -3.2090    4.2730 ha        1 CCA      0.149000
     42 H10        -2.0190   -5.4020    3.7800 ha        1 CCA      0.152500
     43 H12        -0.1750   -5.7410    2.3430 ha        1 CCA      0.152500
     44 H14         0.9420   -3.8870    1.3980 ha        1 CCA      0.161000
@<TRIPOS>BOND
     1    1    2 1   
     2    1   23 1   
     3    1   24 1   
     4    1   25 1   
     5    2    3 1   
     6    3    4 1   
     7    3    5 1   
     8    5    6 1   
     9    5   13 1   
    10    5   26 1   
    11    6    7 1   
    12    6    9 1   
    13    6   27 1   
    14    7    8 1   
    15    7   11 1   
    16    7   28 1   
    17    8   29 1   
    18    8   30 1   
    19    8   31 1   
    20    9   10 1   
    21    9   32 1   
    22    9   33 1   
    23   10   11 1   
    24   10   34 1   
    25   10   35 1   
    26   11   12 1   
    27   11   36 1   
    28   12   13 1   
    29   12   37 1   
    30   12   38 1   
    31   13   14 1   
    32   13   39 1   
    33   14   15 1   
    34   15   16 1   
    35   15   17 1   
    36   17   18 1   
    37   17   22 1   
    38   18   19 1   
    39   18   40 1   
    40   19   41 1   
    41   20   21 1   
    42   20   42 1   
    43   21   43 1   
    44   22   44 1   
@<TRIPOS>SUBSTRUCTURE
     1 CCA         1 TEMP              0 ****  ****    0 ROOT
