@<TRIPOS>MOLECULE
CCA
   44    46     1     0     0
SMALL
bcc


@<TRIPOS>ATOM
      1 C1          0.3220   -1.3870    0.8580 c3        1 CCA      0.119700
      2 O5          1.7370   -1.1480    0.7930 os        1 CCA     -0.393900
      3 C6          2.1750    0.0590    1.2140 c         1 CCA      0.647100
      4 O7          1.3590    0.9220    1.5680 o         1 CCA     -0.577000
      5 C8          3.6760    0.2080    1.1750 c3        1 CCA     -0.144700
      6 C10         4.0710    1.6080    0.6660 c3        1 CCA      0.147500
      7 N12         3.6140    2.6490    1.6790 n4        1 CCA     -0.708400
      8 C14         3.6060    4.0190    1.1370 c3        1 CCA      0.091100
      9 C18         5.6110    1.7390    0.6370 c3        1 CCA     -0.102400
     10 C21         5.9930    2.2860    2.0150 c3        1 CCA     -0.105400
     11 C24         4.6560    2.4380    2.7740 c3        1 CCA      0.144500
     12 C26         4.3010    1.1440    3.5060 c3        1 CCA     -0.141400
     13 C29         4.3090   -0.0600    2.5590 c3        1 CCA      0.161100
     14 O1          3.5520   -1.1250    3.1370 os        1 CCA     -0.448900
     15 C2          4.1940   -1.9140    4.0820 c         1 CCA      0.669700
     16 O3          5.3190   -1.5460    4.4240 o         1 CCA     -0.537000
     17 C4          3.4030   -3.0600    4.5290 ca        1 CCA     -0.153600
     18 C5          3.8980   -3.8330    5.5900 ca        1 CCA     -0.064500
     19 C7          3.1720   -4.9340    6.0370 ca        1 CCA     -0.141500
     20 C9          1.9600   -5.2680    5.4310 ca        1 CCA     -0.074000
     21 C11         1.4700   -4.5000    4.3720 ca        1 CCA     -0.141500
     22 C13         2.1870   -3.3950    3.9180 ca        1 CCA     -0.064500
     23 H2         -0.2210   -0.6230    0.2520 h1        1 CCA      0.069700
     24 H3         -0.0120   -1.3530    1.9230 h1        1 CCA      0.069700
     25 H4          0.2200   -2.4130    0.4220 h1        1 CCA      0.069700
     26 H9          4.0840   -0.5560    0.4510 hc        1 CCA      0.135700
     27 H11         3.5970    1.8200   -0.3300 hx        1 CCA      0.120700
     28 H13         2.6680    2.4140    2.0290 hn        1 CCA      0.489800
     29 H15         2.8530    4.0830    0.3060 hx        1 CCA      0.101033
     30 H16         4.6240    4.2820    0.7430 hx        1 CCA      0.101033
     31 H17         3.3230    4.7360    1.9540 hx        1 CCA      0.101033
     32 H19         6.0850    0.7460    0.4390 hc        1 CCA      0.092700
     33 H20         5.9280    2.4370   -0.1790 hc        1 CCA      0.092700
     34 H22         6.6710    1.5880    2.5660 hc        1 CCA      0.095200
     35 H23         6.5130    3.2720    1.9290 hc        1 CCA      0.095200
     36 H25         4.6520    3.3170    3.4720 hx        1 CCA      0.117700
     37 H27         3.2990    1.2280    4.0080 hc        1 CCA      0.108200
     38 H28         5.0620    0.9610    4.3150 hc        1 CCA      0.108200
     39 H30         5.3750   -0.3960    2.4010 h1        1 CCA      0.094700
     40 H6          4.8590   -3.5630    6.0600 ha        1 CCA      0.153000
     41 H8          3.5580   -5.5430    6.8700 ha        1 CCA      0.150500
     42 H10         1.3890   -6.1400    5.7860 ha        1 CCA      0.151000
     43 H12         0.5150   -4.7680    3.8950 ha        1 CCA      0.150500
     44 H14         1.8070   -2.7880    3.0800 ha        1 CCA      0.153000
@<TRIPOS>BOND
     1    1    2 1   
     2    1   23 1   
     3    1   24 1   
     4    1   25 1   
     5    2    3 1   
     6    3    4 2   
     7    3    5 1   
     8    5    6 1   
     9    5   13 1   
    10    5   26 1   
    11    6    7 1   
    12    6    9 1   
    13    6   27 1   
    14    7    8 1   
    15    7   11 1   
    16    7   28 1   
    17    8   29 1   
    18    8   30 1   
    19    8   31 1   
    20    9   10 1   
    21    9   32 1   
    22    9   33 1   
    23   10   11 1   
    24   10   34 1   
    25   10   35 1   
    26   11   12 1   
    27   11   36 1   
    28   12   13 1   
    29   12   37 1   
    30   12   38 1   
    31   13   14 1   
    32   13   39 1   
    33   14   15 1   
    34   15   16 2   
    35   15   17 1   
    36   17   18 ar  
    37   17   22 ar  
    38   18   19 ar  
    39   18   40 1   
    40   19   20 ar  
    41   19   41 1   
    42   20   21 ar  
    43   20   42 1   
    44   21   22 ar  
    45   21   43 1   
    46   22   44 1   
@<TRIPOS>SUBSTRUCTURE
     1 CCA         1 TEMP              0 ****  ****    0 ROOT
