@<TRIPOS>MOLECULE
CCA
   44    46     1     0     0
SMALL
bcc


@<TRIPOS>ATOM
      1 C1          0.3320   -1.4140    0.8560 c3        1 CCA      0.119700
      2 O5          1.7460   -1.1690    0.7940 os        1 CCA     -0.393900
      3 C6          2.1770    0.0430    1.2080 c         1 CCA      0.647100
      4 O7          1.3570    0.9040    1.5540 o         1 CCA     -0.577000
      5 C8          3.6780    0.1990    1.1720 c3        1 CCA     -0.144700
      6 C10         4.0680    1.5970    0.6540 c3        1 CCA      0.147500
      7 N12         3.6040    2.6430    1.6590 n4        1 CCA     -0.708400
      8 C14         3.5910    4.0080    1.1060 c3        1 CCA      0.091100
      9 C18         5.6080    1.7350    0.6280 c3        1 CCA     -0.102400
     10 C21         5.9830    2.2930    2.0030 c3        1 CCA     -0.105400
     11 C24         4.6440    2.4440    2.7580 c3        1 CCA      0.144500
     12 C26         4.2920    1.1540    3.4980 c3        1 CCA     -0.141400
     13 C29         4.3080   -0.0570    2.5590 c3        1 CCA      0.161100
     14 O1          3.5550   -1.1210    3.1430 os        1 CCA     -0.448900
     15 C2          4.1970   -1.9010    4.0950 c         1 CCA      0.669700
     16 O3          5.3200   -1.5250    4.4380 o         1 CCA     -0.537000
     17 C4          3.4100   -3.0460    4.5490 ca        1 CCA     -0.153600
     18 C5          3.9070   -3.8100    5.6170 ca        1 CCA     -0.064500
     19 C7          3.1840   -4.9110    6.0700 ca        1 CCA     -0.141500
     20 C9          1.9740   -5.2530    5.4640 ca        1 CCA     -0.074000
     21 C11         1.4820   -4.4940    4.4000 ca        1 CCA     -0.141500
     22 C13         2.1960   -3.3900    3.9390 ca        1 CCA     -0.064500
     23 H2          0.2350   -2.4420    0.4270 h1        1 CCA      0.069700
     24 H3         -0.2120   -0.6560    0.2440 h1        1 CCA      0.069700
     25 H4         -0.0050   -1.3730    1.9200 h1        1 CCA      0.069700
     26 H9          4.0910   -0.5690    0.4540 hc        1 CCA      0.135700
     27 H11         3.5960    1.8000   -0.3450 hx        1 CCA      0.120700
     28 H13         2.6580    2.4060    2.0070 hn        1 CCA      0.489800
     29 H15         3.3030    4.7300    1.9170 hx        1 CCA      0.101033
     30 H16         2.8390    4.0640    0.2730 hx        1 CCA      0.101033
     31 H17         4.6090    4.2740    0.7130 hx        1 CCA      0.101033
     32 H19         6.0860    0.7420    0.4380 hc        1 CCA      0.092700
     33 H20         5.9230    2.4280   -0.1920 hc        1 CCA      0.092700
     34 H22         6.4990    3.2810    1.9120 hc        1 CCA      0.095200
     35 H23         6.6630    1.6010    2.5610 hc        1 CCA      0.095200
     36 H25         4.6340    3.3290    3.4490 hx        1 CCA      0.117700
     37 H27         5.0520    0.9810    4.3100 hc        1 CCA      0.108200
     38 H28         3.2890    1.2380    3.9960 hc        1 CCA      0.108200
     39 H30         5.3770   -0.3890    2.4060 h1        1 CCA      0.094700
     40 H6          4.8650   -3.5330    6.0850 ha        1 CCA      0.153000
     41 H8          3.5710   -5.5120    6.9070 ha        1 CCA      0.150500
     42 H10         1.4060   -6.1250    5.8250 ha        1 CCA      0.151000
     43 H12         0.5290   -4.7690    3.9230 ha        1 CCA      0.150500
     44 H14         1.8150   -2.7900    3.0960 ha        1 CCA      0.153000
@<TRIPOS>BOND
     1    1    2 1   
     2    1   23 1   
     3    1   24 1   
     4    1   25 1   
     5    2    3 1   
     6    3    4 2   
     7    3    5 1   
     8    5    6 1   
     9    5   13 1   
    10    5   26 1   
    11    6    7 1   
    12    6    9 1   
    13    6   27 1   
    14    7    8 1   
    15    7   11 1   
    16    7   28 1   
    17    8   29 1   
    18    8   30 1   
    19    8   31 1   
    20    9   10 1   
    21    9   32 1   
    22    9   33 1   
    23   10   11 1   
    24   10   34 1   
    25   10   35 1   
    26   11   12 1   
    27   11   36 1   
    28   12   13 1   
    29   12   37 1   
    30   12   38 1   
    31   13   14 1   
    32   13   39 1   
    33   14   15 1   
    34   15   16 2   
    35   15   17 1   
    36   17   18 ar  
    37   17   22 ar  
    38   18   19 ar  
    39   18   40 1   
    40   19   20 ar  
    41   19   41 1   
    42   20   21 ar  
    43   20   42 1   
    44   21   22 ar  
    45   21   43 1   
    46   22   44 1   
@<TRIPOS>SUBSTRUCTURE
     1 CCA         1 TEMP              0 ****  ****    0 ROOT
