@<TRIPOS>MOLECULE
CCA
   44    46     1     0     0
SMALL
bcc


@<TRIPOS>ATOM
      1 C1          0.3280   -1.4190    0.8670 c3        1 CCA      0.119700
      2 O5          1.7420   -1.1750    0.8010 os        1 CCA     -0.393900
      3 C6          2.1750    0.0380    1.2090 c         1 CCA      0.647100
      4 O7          1.3560    0.9020    1.5520 o         1 CCA     -0.577000
      5 C8          3.6760    0.1920    1.1700 c3        1 CCA     -0.144700
      6 C10         4.0660    1.5870    0.6440 c3        1 CCA      0.147500
      7 N12         3.6050    2.6390    1.6450 nx        1 CCA     -0.708400
      8 C14         3.5930    4.0020    1.0860 c3        1 CCA      0.091100
      9 C18         5.6060    1.7240    0.6150 c3        1 CCA     -0.102400
     10 C21         5.9840    2.2880    1.9870 c3        1 CCA     -0.105400
     11 C24         4.6460    2.4430    2.7430 c3        1 CCA      0.144500
     12 C26         4.2950    1.1570    3.4900 c3        1 CCA     -0.141400
     13 C29         4.3080   -0.0580    2.5570 c3        1 CCA      0.161100
     14 O1          3.5550   -1.1180    3.1470 os        1 CCA     -0.448900
     15 C2          4.1980   -1.8940    4.1020 c         1 CCA      0.669700
     16 O3          5.3210   -1.5180    4.4410 o         1 CCA     -0.537000
     17 C4          3.4110   -3.0370    4.5620 ca        1 CCA     -0.153600
     18 C5          3.9080   -3.7960    5.6320 ca        1 CCA     -0.064500
     19 C7          3.1850   -4.8950    6.0910 ca        1 CCA     -0.141500
     20 C9          1.9740   -5.2390    5.4880 ca        1 CCA     -0.074000
     21 C11         1.4820   -4.4840    4.4210 ca        1 CCA     -0.141500
     22 C13         2.1960   -3.3830    3.9550 ca        1 CCA     -0.064500
     23 H2         -0.2170   -0.6630    0.2520 h1        1 CCA      0.069700
     24 H3         -0.0070   -1.3730    1.9310 h1        1 CCA      0.069700
     25 H4          0.2300   -2.4490    0.4430 h1        1 CCA      0.069700
     26 H9          4.0870   -0.5790    0.4550 hc        1 CCA      0.135700
     27 H11         3.5930    1.7860   -0.3550 hx        1 CCA      0.120700
     28 H13         2.6590    2.4040    1.9960 hn        1 CCA      0.489800
     29 H15         2.8400    4.0540    0.2540 hx        1 CCA      0.101033
     30 H16         4.6100    4.2640    0.6910 hx        1 CCA      0.101033
     31 H17         3.3060    4.7270    1.8950 hx        1 CCA      0.101033
     32 H19         5.9210    2.4120   -0.2080 hc        1 CCA      0.092700
     33 H20         6.0840    0.7300    0.4300 hc        1 CCA      0.092700
     34 H22         6.6640    1.5980    2.5470 hc        1 CCA      0.095200
     35 H23         6.5010    3.2750    1.8910 hc        1 CCA      0.095200
     36 H25         4.6390    3.3310    3.4310 hx        1 CCA      0.117700
     37 H27         5.0560    0.9870    4.3010 hc        1 CCA      0.108200
     38 H28         3.2930    1.2440    3.9900 hc        1 CCA      0.108200
     39 H30         5.3760   -0.3920    2.4040 h1        1 CCA      0.094700
     40 H6          4.8680   -3.5180    6.0990 ha        1 CCA      0.153000
     41 H8          3.5730   -5.4920    6.9310 ha        1 CCA      0.150500
     42 H10         1.4060   -6.1090    5.8540 ha        1 CCA      0.151000
     43 H12         0.5280   -4.7610    3.9470 ha        1 CCA      0.150500
     44 H14         1.8140   -2.7870    3.1100 ha        1 CCA      0.153000
@<TRIPOS>BOND
     1    1    2 1   
     2    1   23 1   
     3    1   24 1   
     4    1   25 1   
     5    2    3 1   
     6    3    4 2   
     7    3    5 1   
     8    5    6 1   
     9    5   13 1   
    10    5   26 1   
    11    6    7 1   
    12    6    9 1   
    13    6   27 1   
    14    7    8 1   
    15    7   11 1   
    16    7   28 1   
    17    8   29 1   
    18    8   30 1   
    19    8   31 1   
    20    9   10 1   
    21    9   32 1   
    22    9   33 1   
    23   10   11 1   
    24   10   34 1   
    25   10   35 1   
    26   11   12 1   
    27   11   36 1   
    28   12   13 1   
    29   12   37 1   
    30   12   38 1   
    31   13   14 1   
    32   13   39 1   
    33   14   15 1   
    34   15   16 2   
    35   15   17 1   
    36   17   18 ar  
    37   17   22 ar  
    38   18   19 ar  
    39   18   40 1   
    40   19   20 ar  
    41   19   41 1   
    42   20   21 ar  
    43   20   42 1   
    44   21   22 ar  
    45   21   43 1   
    46   22   44 1   
@<TRIPOS>SUBSTRUCTURE
     1 CCA         1 TEMP              0 ****  ****    0 ROOT
