@<TRIPOS>MOLECULE
CCA
   44    46     1     0     0
SMALL
bcc


@<TRIPOS>ATOM
      1 C1         -0.3630    3.6780    0.3290 c3        1 CCA      0.119700
      2 O5         -0.6570    2.3990    0.9140 os        1 CCA     -0.393900
      3 C6         -1.4300    1.5580    0.1930 c         1 CCA      0.647100
      4 O7         -1.9050    1.9310   -0.8890 o         1 CCA     -0.577000
      5 C8         -1.6390    0.2140    0.8460 c3        1 CCA     -0.144700
      6 C10        -3.0960   -0.2560    0.6720 c3        1 CCA      0.147500
      7 N12        -3.3600   -0.5090   -0.8070 n4        1 CCA     -0.708400
      8 C14        -4.7940   -0.6030   -1.1300 c3        1 CCA      0.091100
      9 C18        -3.2870   -1.6340    1.3460 c3        1 CCA     -0.102400
     10 C21        -2.9720   -2.6610    0.2540 c3        1 CCA     -0.105400
     11 C24        -2.6100   -1.8250   -0.9940 c3        1 CCA      0.144500
     12 C26        -1.1150   -1.5060   -1.0150 c3        1 CCA     -0.141400
     13 C29        -0.6610   -0.8450    0.2900 c3        1 CCA      0.161100
     14 O1          0.5750   -0.1630    0.0730 os        1 CCA     -0.448900
     15 C2          1.7320   -0.9290    0.1050 c         1 CCA      0.669700
     16 O3          1.5750   -2.1470    0.1950 o         1 CCA     -0.537000
     17 C4          2.9620   -0.1440    0.0070 ca        1 CCA     -0.153600
     18 C5          4.1780   -0.8320   -0.1220 ca        1 CCA     -0.064500
     19 C7          5.3690   -0.1150   -0.2120 ca        1 CCA     -0.141500
     20 C9          5.3510    1.2800   -0.1730 ca        1 CCA     -0.074000
     21 C11         4.1400    1.9640   -0.0420 ca        1 CCA     -0.141500
     22 C13         2.9440    1.2570    0.0490 ca        1 CCA     -0.064500
     23 H2          0.2260    3.5310   -0.6080 h1        1 CCA      0.069700
     24 H3         -1.3120    4.2240    0.1140 h1        1 CCA      0.069700
     25 H4          0.2390    4.1860    1.1240 h1        1 CCA      0.069700
     26 H9         -1.4380    0.3290    1.9520 hc        1 CCA      0.135700
     27 H11        -3.8150    0.5180    1.0540 hx        1 CCA      0.120700
     28 H13        -2.9280    0.2380   -1.3780 hn        1 CCA      0.489800
     29 H15        -5.2860    0.3860   -0.9210 hx        1 CCA      0.101033
     30 H16        -4.9090   -0.8540   -2.2190 hx        1 CCA      0.101033
     31 H17        -5.2770   -1.4030   -0.5080 hx        1 CCA      0.101033
     32 H19        -4.3360   -1.7450    1.7180 hc        1 CCA      0.092700
     33 H20        -2.6010   -1.7380    2.2230 hc        1 CCA      0.092700
     34 H22        -3.8540   -3.3160    0.0490 hc        1 CCA      0.095200
     35 H23        -2.1140   -3.3200    0.5380 hc        1 CCA      0.095200
     36 H25        -2.9380   -2.3130   -1.9500 hx        1 CCA      0.117700
     37 H27        -0.8580   -0.8470   -1.8870 hc        1 CCA      0.108200
     38 H28        -0.5390   -2.4650   -1.1430 hc        1 CCA      0.108200
     39 H30        -0.5200   -1.6430    1.0770 h1        1 CCA      0.094700
     40 H6          4.1810   -1.9340   -0.1480 ha        1 CCA      0.153000
     41 H8          6.3250   -0.6520   -0.3130 ha        1 CCA      0.150500
     42 H10         6.2950    1.8440   -0.2430 ha        1 CCA      0.151000
     43 H12         4.1310    3.0640   -0.0080 ha        1 CCA      0.150500
     44 H14         1.9850    1.7910    0.1570 ha        1 CCA      0.153000
@<TRIPOS>BOND
     1    1    2 1   
     2    1   23 1   
     3    1   24 1   
     4    1   25 1   
     5    2    3 1   
     6    3    4 2   
     7    3    5 1   
     8    5    6 1   
     9    5   13 1   
    10    5   26 1   
    11    6    7 1   
    12    6    9 1   
    13    6   27 1   
    14    7    8 1   
    15    7   11 1   
    16    7   28 1   
    17    8   29 1   
    18    8   30 1   
    19    8   31 1   
    20    9   10 1   
    21    9   32 1   
    22    9   33 1   
    23   10   11 1   
    24   10   34 1   
    25   10   35 1   
    26   11   12 1   
    27   11   36 1   
    28   12   13 1   
    29   12   37 1   
    30   12   38 1   
    31   13   14 1   
    32   13   39 1   
    33   14   15 1   
    34   15   16 2   
    35   15   17 1   
    36   17   18 ar  
    37   17   22 ar  
    38   18   19 ar  
    39   18   40 1   
    40   19   20 ar  
    41   19   41 1   
    42   20   21 ar  
    43   20   42 1   
    44   21   22 ar  
    45   21   43 1   
    46   22   44 1   
@<TRIPOS>SUBSTRUCTURE
     1 CCA         1 TEMP              0 ****  ****    0 ROOT
