@<TRIPOS>MOLECULE
CCB
   30    31     1     0     0
SMALL
bcc


@<TRIPOS>ATOM
      1 N1          0.0540   -0.2520    0.4530 n4        1 CCB     -0.596200
      2 C2         -0.4550    1.1550    0.6580 c         1 CCB      0.544900
      3 O3         -1.5650    1.4660    0.2750 o         1 CCB     -0.390100
      4 C5          1.5310   -0.2370    0.1200 c3        1 CCB      0.124500
      5 C6         -0.7750   -1.0460   -0.4980 cy        1 CCB      0.068500
      6 C7          2.4160   -0.1610    1.3800 c3        1 CCB     -0.106900
      7 C8          2.9140    1.2700    1.4940 c3        1 CCB     -0.096900
      8 C9          2.7270    1.9270    0.1340 c3        1 CCB     -0.096900
      9 C10         1.9640    0.9540   -0.7550 c3        1 CCB     -0.106900
     10 C20        -0.5560   -2.5920   -0.4750 cy        1 CCB     -0.093400
     11 C21        -0.2560   -2.5660   -1.9860 cy        1 CCB     -0.087400
     12 C22        -0.4230   -1.0340   -2.0160 cy        1 CCB     -0.093400
     13 H2          0.2980    1.7920    1.1830 hx        1 CCB      0.127200
     14 H5          1.7240   -1.2090   -0.4250 hx        1 CCB      0.113700
     15 H6         -1.8490   -0.7650   -0.3160 hx        1 CCB      0.125700
     16 H71         1.8970   -0.4900    2.3150 hc        1 CCB      0.080450
     17 H72         3.2820   -0.8590    1.2250 hc        1 CCB      0.080450
     18 H81         2.3460    1.8260    2.2830 hc        1 CCB      0.072450
     19 H82         3.9910    1.2850    1.8000 hc        1 CCB      0.072450
     20 H91         2.1730    2.8950    0.2330 hc        1 CCB      0.072450
     21 H92         3.7190    2.1700   -0.3270 hc        1 CCB      0.072450
     22 H101        2.6370    0.5590   -1.5620 hc        1 CCB      0.080450
     23 H102        1.1070    1.4580   -1.2680 hc        1 CCB      0.080450
     24 H201        0.2900   -2.9480    0.1520 hc        1 CCB      0.082700
     25 H202       -1.4810   -3.1440   -0.1980 hc        1 CCB      0.082700
     26 H211        0.7650   -2.9150   -2.2510 hc        1 CCB      0.083700
     27 H212       -1.0040   -3.1120   -2.6020 hc        1 CCB      0.083700
     28 H221       -1.2730   -0.6740   -2.6380 hc        1 CCB      0.082700
     29 H222        0.4990   -0.4810   -2.2960 hc        1 CCB      0.082700
     30 H11        -0.0400   -0.7270    1.3650 hn        1 CCB      0.454800
@<TRIPOS>BOND
     1    1    2 1   
     2    1    4 1   
     3    1    5 1   
     4    1   30 1   
     5    2    3 2   
     6    2   13 1   
     7    4    6 1   
     8    4    9 1   
     9    4   14 1   
    10    5   10 1   
    11    5   12 1   
    12    5   15 1   
    13    6    7 1   
    14    6   16 1   
    15    6   17 1   
    16    7    8 1   
    17    7   18 1   
    18    7   19 1   
    19    8    9 1   
    20    8   20 1   
    21    8   21 1   
    22    9   22 1   
    23    9   23 1   
    24   10   11 1   
    25   10   24 1   
    26   10   25 1   
    27   11   12 1   
    28   11   26 1   
    29   11   27 1   
    30   12   28 1   
    31   12   29 1   
@<TRIPOS>SUBSTRUCTURE
     1 CCB         1 TEMP              0 ****  ****    0 ROOT
