@<TRIPOS>MOLECULE
CCB
   29    30     1     0     0
SMALL
bcc


@<TRIPOS>ATOM
      1 N1         -0.4130   -0.0270   -0.1000 n         1 CCB     -0.469800
      2 C2         -1.1220    1.0500    0.4920 c         1 CCB      0.659900
      3 O3         -0.5140    1.9730    1.0000 o         1 CCB     -0.602100
      4 C5          1.0420   -0.0270   -0.1000 c3        1 CCB      0.112700
      5 C6         -1.0950   -1.0620   -0.6690 cy        1 CCB      0.092700
      6 C7          1.6080   -0.0270    1.4490 c3        1 CCB     -0.096400
      7 C8          2.8360    0.4790    1.3960 c3        1 CCB     -0.076400
      8 C9          2.8360    1.4090    0.1400 c3        1 CCB     -0.076400
      9 C10         1.4880    1.0630   -0.6500 c3        1 CCB     -0.096400
     10 C20        -2.0980   -0.6070   -1.6870 cy        1 CCB     -0.112400
     11 C21        -3.2070   -1.1170   -0.8220 cy        1 CCB     -0.096400
     12 C22        -2.2030   -1.5720    0.1960 cy        1 CCB     -0.112400
     13 H2         -2.0980    1.0540    0.4840 h5        1 CCB      0.027200
     14 H5          1.3780   -0.8070   -0.5800 h1        1 CCB      0.047700
     15 H6         -0.5180   -1.7760   -1.0020 h1        1 CCB      0.069700
     16 H71         1.6350   -0.9390    1.7970 hc        1 CCB      0.056200
     17 H72         1.0400    0.5310    2.0140 hc        1 CCB      0.056200
     18 H81         3.4930   -0.2360    1.2890 hc        1 CCB      0.041700
     19 H82         3.0250    0.9960    2.2020 hc        1 CCB      0.041700
     20 H91         2.8360    2.3460    0.4140 hc        1 CCB      0.041700
     21 H92         3.6130    1.2200   -0.4190 hc        1 CCB      0.041700
     22 H101        1.6790    0.9120   -1.5960 hc        1 CCB      0.056200
     23 H102        0.8390    1.7850   -0.5460 hc        1 CCB      0.056200
     24 H201       -2.1160    0.3630   -1.7920 hc        1 CCB      0.057700
     25 H202       -2.0250   -1.0920   -2.5320 hc        1 CCB      0.057700
     26 H211       -3.6940   -1.8580   -1.2290 hc        1 CCB      0.052700
     27 H212       -3.7850   -0.4040   -0.4900 hc        1 CCB      0.052700
     28 H221       -2.1850   -2.5420    0.3010 hc        1 CCB      0.057700
     29 H222       -2.2750   -1.0870    1.0410 hc        1 CCB      0.057700
@<TRIPOS>BOND
     1    1    2 1   
     2    1    4 1   
     3    1    5 1   
     4    2    3 2   
     5    2   13 1   
     6    4    6 1   
     7    4    9 1   
     8    4   14 1   
     9    5   10 1   
    10    5   12 1   
    11    5   15 1   
    12    6    7 1   
    13    6   16 1   
    14    6   17 1   
    15    7    8 1   
    16    7   18 1   
    17    7   19 1   
    18    8    9 1   
    19    8   20 1   
    20    8   21 1   
    21    9   22 1   
    22    9   23 1   
    23   10   11 1   
    24   10   24 1   
    25   10   25 1   
    26   11   12 1   
    27   11   26 1   
    28   11   27 1   
    29   12   28 1   
    30   12   29 1   
@<TRIPOS>SUBSTRUCTURE
     1 CCB         1 TEMP              0 ****  ****    0 ROOT
