@<TRIPOS>MOLECULE
CCB
   30    31     1     0     0
SMALL
bcc


@<TRIPOS>ATOM
      1 N1          0.0040    0.3240   -0.3740 nx        1 CCB     -0.596200
      2 C2         -0.4490    0.9470    0.9250 c         1 CCB      0.544900
      3 O3         -1.5050    0.6160    1.4270 o         1 CCB     -0.390100
      4 C5          1.5030    0.1110   -0.3640 c3        1 CCB      0.124500
      5 C6         -0.7780   -0.8870   -0.7520 cy        1 CCB      0.068500
      6 C7          2.0700   -0.2940    1.0100 c3        1 CCB     -0.106900
      7 C8          2.8010    0.9120    1.5820 c3        1 CCB     -0.096900
      8 C9          2.8370    1.9900    0.5080 c3        1 CCB     -0.096900
      9 C10         2.2790    1.3800   -0.7680 c3        1 CCB     -0.106900
     10 C20        -0.2970   -2.2900   -0.2760 cy        1 CCB     -0.093400
     11 C21        -0.2110   -2.7550   -1.7430 cy        1 CCB     -0.087400
     12 C22        -0.6410   -1.3590   -2.2340 cy        1 CCB     -0.093400
     13 H2          0.2870    1.6990    1.2990 hx        1 CCB      0.127200
     14 H5          1.6930   -0.7100   -1.1190 hx        1 CCB      0.113700
     15 H6         -1.8490   -0.6930   -0.4650 hx        1 CCB      0.125700
     16 H71         1.2860   -0.6680    1.7160 hc        1 CCB      0.080450
     17 H72         2.7890   -1.1410    0.8470 hc        1 CCB      0.080450
     18 H81         2.2900    1.2880    2.5050 hc        1 CCB      0.072450
     19 H82         3.8410    0.6220    1.8840 hc        1 CCB      0.072450
     20 H91         2.2320    2.8800    0.8190 hc        1 CCB      0.072450
     21 H92         3.8830    2.3530    0.3410 hc        1 CCB      0.072450
     22 H101        1.6660    2.1190   -1.3410 hc        1 CCB      0.080450
     23 H102        3.1190    1.0610   -1.4420 hc        1 CCB      0.080450
     24 H201        0.6720   -2.3120    0.2660 hc        1 CCB      0.082700
     25 H202       -1.0710   -2.8130    0.3290 hc        1 CCB      0.082700
     26 H211       -0.9300   -3.5630   -2.0020 hc        1 CCB      0.083700
     27 H212        0.8100   -3.0530   -2.0650 hc        1 CCB      0.083700
     28 H221       -1.6130   -1.3390   -2.7750 hc        1 CCB      0.082700
     29 H222        0.1290   -0.8310   -2.8370 hc        1 CCB      0.082700
     30 H11        -0.1920    1.0210   -1.1100 hn        1 CCB      0.454800
@<TRIPOS>BOND
     1    1    2 1   
     2    1    4 1   
     3    1    5 1   
     4    1   30 1   
     5    2    3 2   
     6    2   13 1   
     7    4    6 1   
     8    4    9 1   
     9    4   14 1   
    10    5   10 1   
    11    5   12 1   
    12    5   15 1   
    13    6    7 1   
    14    6   16 1   
    15    6   17 1   
    16    7    8 1   
    17    7   18 1   
    18    7   19 1   
    19    8    9 1   
    20    8   20 1   
    21    8   21 1   
    22    9   22 1   
    23    9   23 1   
    24   10   11 1   
    25   10   24 1   
    26   10   25 1   
    27   11   12 1   
    28   11   26 1   
    29   11   27 1   
    30   12   28 1   
    31   12   29 1   
@<TRIPOS>SUBSTRUCTURE
     1 CCB         1 TEMP              0 ****  ****    0 ROOT
