@<TRIPOS>MOLECULE
CCB
   30    31     1     0     0
SMALL
bcc


@<TRIPOS>ATOM
      1 N1          0.0040    0.3260   -0.3690 n4        1 CCB     -0.596200
      2 C2         -0.4480    0.9380    0.9340 c         1 CCB      0.544900
      3 O3         -1.5050    0.6050    1.4320 o         1 CCB     -0.390100
      4 C5          1.5030    0.1120   -0.3620 c3        1 CCB      0.124500
      5 C6         -0.7790   -0.8810   -0.7590 cy        1 CCB      0.068500
      6 C7          2.0690   -0.3060    1.0090 c3        1 CCB     -0.106900
      7 C8          2.8020    0.8950    1.5910 c3        1 CCB     -0.096900
      8 C9          2.8390    1.9820    0.5270 c3        1 CCB     -0.096900
      9 C10         2.2800    1.3830   -0.7540 c3        1 CCB     -0.106900
     10 C20        -0.2990   -2.2880   -0.2940 cy        1 CCB     -0.093400
     11 C21        -0.2130   -2.7410   -1.7650 cy        1 CCB     -0.087400
     12 C22        -0.6410   -1.3400   -2.2440 cy        1 CCB     -0.093400
     13 H2          0.2890    1.6860    1.3150 hx        1 CCB      0.127200
     14 H5          1.6930   -0.7030   -1.1230 hx        1 CCB      0.113700
     15 H6         -1.8500   -0.6880   -0.4700 hx        1 CCB      0.125700
     16 H71         2.7880   -1.1520    0.8390 hc        1 CCB      0.080450
     17 H72         1.2850   -0.6840    1.7120 hc        1 CCB      0.080450
     18 H81         3.8410    0.6020    1.8910 hc        1 CCB      0.072450
     19 H82         2.2920    1.2630    2.5180 hc        1 CCB      0.072450
     20 H91         3.8850    2.3460    0.3630 hc        1 CCB      0.072450
     21 H92         2.2350    2.8700    0.8460 hc        1 CCB      0.072450
     22 H101        3.1200    1.0700   -1.4310 hc        1 CCB      0.080450
     23 H102        1.6680    2.1280   -1.3210 hc        1 CCB      0.080450
     24 H201        0.6700   -2.3160    0.2480 hc        1 CCB      0.082700
     25 H202       -1.0740   -2.8160    0.3060 hc        1 CCB      0.082700
     26 H211        0.8080   -3.0370   -2.0890 hc        1 CCB      0.083700
     27 H212       -0.9320   -3.5460   -2.0310 hc        1 CCB      0.083700
     28 H221        0.1290   -0.8080   -2.8420 hc        1 CCB      0.082700
     29 H222       -1.6130   -1.3150   -2.7850 hc        1 CCB      0.082700
     30 H11        -0.1910    1.0300   -1.1000 hn        1 CCB      0.454800
@<TRIPOS>BOND
     1    1    2 1   
     2    1    4 1   
     3    1    5 1   
     4    1   30 1   
     5    2    3 2   
     6    2   13 1   
     7    4    6 1   
     8    4    9 1   
     9    4   14 1   
    10    5   10 1   
    11    5   12 1   
    12    5   15 1   
    13    6    7 1   
    14    6   16 1   
    15    6   17 1   
    16    7    8 1   
    17    7   18 1   
    18    7   19 1   
    19    8    9 1   
    20    8   20 1   
    21    8   21 1   
    22    9   22 1   
    23    9   23 1   
    24   10   11 1   
    25   10   24 1   
    26   10   25 1   
    27   11   12 1   
    28   11   26 1   
    29   11   27 1   
    30   12   28 1   
    31   12   29 1   
@<TRIPOS>SUBSTRUCTURE
     1 CCB         1 TEMP              0 ****  ****    0 ROOT
