@<TRIPOS>MOLECULE
CCB
   29    30     1     0     0
SMALL
bcc


@<TRIPOS>ATOM
      1 N1         -0.7000    0.0950    0.3660 n         1 CCB     -0.466800
      2 C2         -2.0350    0.2320    0.0300 c         1 CCB      0.660900
      3 O3         -2.9430    0.3390    0.8710 o         1 CCB     -0.605100
      4 C5          0.3010   -0.0240   -0.6730 c3        1 CCB      0.100700
      5 C6         -0.2840    0.0690    1.7390 cy        1 CCB      0.084700
      6 C7          0.3970    1.1870   -1.6290 c3        1 CCB     -0.096400
      7 C8          0.9260    0.6460   -2.9480 c3        1 CCB     -0.080400
      8 C9          0.7650   -0.8690   -2.9280 c3        1 CCB     -0.080400
      9 C10         0.1390   -1.2530   -1.5970 c3        1 CCB     -0.096400
     10 C20         0.8450    1.0590    2.1840 cy        1 CCB     -0.108400
     11 C21         1.6930   -0.1270    2.6770 cy        1 CCB     -0.095400
     12 C22         0.6150   -1.1220    2.2120 cy        1 CCB     -0.108400
     13 H2         -2.2310    0.2380   -1.0680 h5        1 CCB      0.032200
     14 H5          1.3040   -0.1230   -0.1570 h1        1 CCB      0.066700
     15 H6         -1.1980    0.1750    2.3850 h1        1 CCB      0.097700
     16 H71        -0.6020    1.6680   -1.7800 hc        1 CCB      0.049200
     17 H72         1.0790    1.9610   -1.2000 hc        1 CCB      0.049200
     18 H81         2.0030    0.9190   -3.0770 hc        1 CCB      0.044700
     19 H82         0.3660    1.0930   -3.8070 hc        1 CCB      0.044700
     20 H91         1.7610   -1.3650   -3.0480 hc        1 CCB      0.044700
     21 H92         0.1220   -1.2120   -3.7770 hc        1 CCB      0.044700
     22 H101        0.6460   -2.1410   -1.1470 hc        1 CCB      0.049200
     23 H102       -0.9390   -1.5180   -1.7380 hc        1 CCB      0.049200
     24 H201        1.3120    1.6390    1.3600 hc        1 CCB      0.055200
     25 H202        0.5150    1.7520    2.9850 hc        1 CCB      0.055200
     26 H211        1.8690   -0.1320    3.7740 hc        1 CCB      0.050200
     27 H212        2.6640   -0.2370    2.1480 hc        1 CCB      0.050200
     28 H221        0.1480   -1.7100    3.0310 hc        1 CCB      0.055200
     29 H222        0.9470   -1.8080    1.4050 hc        1 CCB      0.055200
@<TRIPOS>BOND
     1    1    2 1   
     2    1    4 1   
     3    1    5 1   
     4    2    3 2   
     5    2   13 1   
     6    4    6 1   
     7    4    9 1   
     8    4   14 1   
     9    5   10 1   
    10    5   12 1   
    11    5   15 1   
    12    6    7 1   
    13    6   16 1   
    14    6   17 1   
    15    7    8 1   
    16    7   18 1   
    17    7   19 1   
    18    8    9 1   
    19    8   20 1   
    20    8   21 1   
    21    9   22 1   
    22    9   23 1   
    23   10   11 1   
    24   10   24 1   
    25   10   25 1   
    26   11   12 1   
    27   11   26 1   
    28   11   27 1   
    29   12   28 1   
    30   12   29 1   
@<TRIPOS>SUBSTRUCTURE
     1 CCB         1 TEMP              0 ****  ****    0 ROOT
