@<TRIPOS>MOLECULE
CCC
   35    37     1     0     0
SMALL
bcc


@<TRIPOS>ATOM
      1 PC         -3.9090    0.5840    0.6430 p5        1 CCC      1.583500
      2 O1C        -5.0590   -0.3020    0.7670 o         1 CCC     -0.803300
      3 O2C        -4.4880    2.0790    0.6810 oh        1 CCC     -0.759400
      4 P           1.7900   -1.4870   -3.0870 p5        1 CCC      1.306900
      5 OP1         2.3050   -0.1830   -3.6270 o         1 CCC     -0.919833
      6 OP2         2.7570   -2.6230   -2.9660 o         1 CCC     -0.919833
      7 OP3         0.3550   -1.7940   -3.4160 o         1 CCC     -0.919833
      8 O5'         1.5430   -1.0310   -1.3880 os        1 CCC     -0.548200
      9 C5'         0.6540   -0.0110   -1.2600 c3        1 CCC      0.232400
     10 C4'        -0.7220   -0.5000   -0.7330 c3        1 CCC      0.059100
     11 O4'        -0.6140   -1.3540    0.4300 os        1 CCC     -0.391600
     12 C3'        -1.5560    0.7110   -0.2810 c3        1 CCC      0.108100
     13 O3'        -2.9300    0.5840   -0.6200 os        1 CCC     -0.535200
     14 C2'        -1.4600    0.7120    1.2760 c3        1 CCC      0.104100
     15 O2'        -2.7730    0.5900    1.7860 os        1 CCC     -0.534200
     16 C1'        -0.6570   -0.5880    1.6250 c3        1 CCC      0.291500
     17 N1          0.6820   -0.3420    2.1690 n         1 CCC     -0.385000
     18 C2          0.8190    0.3600    3.4180 c         1 CCC      0.817900
     19 O2         -0.2220    0.7720    3.9850 o         1 CCC     -0.668500
     20 N3          2.0850    0.5860    3.9750 nc        1 CCC     -0.757100
     21 C4          3.1620    0.0820    3.3410 cd        1 CCC      0.715500
     22 N4          4.4330    0.2260    3.9190 nh        1 CCC     -0.896800
     23 C5          3.0550   -0.6540    2.1030 cd        1 CCC     -0.455600
     24 C6          1.8030   -0.8340    1.5510 cc        1 CCC      0.103600
     25 HOC2       -5.4350    2.1270    0.7740 ho        1 CCC      0.462000
     26 H5'         0.4670    0.5010   -2.2480 h1        1 CCC     -0.003300
     27 H5''        1.0390    0.7490   -0.5100 h1        1 CCC     -0.003300
     28 H4'        -1.2070   -1.1490   -1.5160 h1        1 CCC      0.165700
     29 H3'        -1.1780    1.6580   -0.7520 h1        1 CCC      0.101700
     30 H2'        -0.9960    1.6320    1.7150 h1        1 CCC      0.106700
     31 H1'        -1.2220   -1.2010    2.3880 h2        1 CCC      0.094700
     32 H41         4.5230    0.9350    4.6110 hn        1 CCC      0.396800
     33 H42         5.1730    0.2060    3.2550 hn        1 CCC      0.396800
     34 H5          3.9340   -1.0530    1.5850 ha        1 CCC      0.168000
     35 H6          1.6740   -1.3730    0.5640 h4        1 CCC      0.285000
@<TRIPOS>BOND
     1    1    2 2   
     2    1    3 1   
     3    1   13 1   
     4    1   15 1   
     5    3   25 1   
     6    4    5 1   
     7    4    6 1   
     8    4    7 1   
     9    4    8 1   
    10    8    9 1   
    11    9   10 1   
    12    9   26 1   
    13    9   27 1   
    14   10   11 1   
    15   10   12 1   
    16   10   28 1   
    17   11   16 1   
    18   12   13 1   
    19   12   14 1   
    20   12   29 1   
    21   14   15 1   
    22   14   16 1   
    23   14   30 1   
    24   16   17 1   
    25   16   31 1   
    26   17   18 1   
    27   17   24 1   
    28   18   19 2   
    29   18   20 1   
    30   20   21 2   
    31   21   22 1   
    32   21   23 1   
    33   22   32 1   
    34   22   33 1   
    35   23   24 2   
    36   23   34 1   
    37   24   35 1   
@<TRIPOS>SUBSTRUCTURE
     1 CCC         1 TEMP              0 ****  ****    0 ROOT
