@<TRIPOS>MOLECULE
CCC
   35    34     1     0     0
SMALL
bcc


@<TRIPOS>ATOM
      1 PC         -1.6830    0.7010   -3.4310 p3        1 CCC      2.496000
      2 O1C        -2.3140   -0.6320   -3.5700 o         1 CCC     -1.119000
      3 O2C        -2.3920    1.3980   -4.6600 o         1 CCC     -0.776000
      4 P           4.1550   -0.7170   -0.4630 p3        1 CCC      2.547000
      5 OP1         4.2370   -0.2720    0.9770 o         1 CCC     -1.176000
      6 OP2         5.3840   -0.2510   -1.2040 os        1 CCC     -0.855000
      7 OP3         4.0730   -2.2230   -0.5200 o         1 CCC     -1.176000
      8 O5'         2.8680   -0.0940   -1.1340 os        1 CCC     -0.754000
      9 C5'         1.6150   -0.3570   -0.5520 c3        1 CCC      0.042000
     10 C4'         0.5660   -0.4620   -1.6390 c3        1 CCC      0.038000
     11 O4'        -0.7640   -1.1890   -1.0610 os        1 CCC     -0.320000
     12 C3'         0.2030    0.7080   -2.0140 c3        1 CCC     -0.411000
     13 O3'        -0.2780    0.6960   -3.4860 os        1 CCC     -0.673000
     14 C2'        -1.0280    1.0560   -1.1310 c3        1 CCC      0.035000
     15 O2'        -1.9480    1.4630   -1.9290 os        1 CCC     -0.712000
     16 C1'        -1.4340   -0.2680   -0.4390 c3        1 CCC      0.107000
     17 N1         -1.0690   -0.2380    0.9530 n         1 CCC     -0.242000
     18 C2         -0.7470   -1.4810    1.6470 c2        1 CCC      0.343000
     19 O2         -0.5170   -2.4900    1.0100 o         1 CCC     -0.388000
     20 N3         -0.7330   -1.5200    3.1070 n2        1 CCC     -0.330000
     21 C4         -0.8310   -0.3160    3.8480 c1        1 CCC      0.180000
     22 N4         -0.7880   -0.3490    5.2570 n2        1 CCC     -0.332000
     23 C5         -1.0660    0.9560    3.1490 c2        1 CCC     -0.383000
     24 C6         -1.1690    0.9760    1.6830 c2        1 CCC      0.100000
     25 HOC2       -1.9990    1.1410   -5.4130 ho        1 CCC      0.241000
     26 H5'         1.6560   -1.2000   -0.0550 h1        1 CCC      0.065000
     27 H5''        1.3790    0.3720    0.0600 h1        1 CCC      0.065000
     28 H4'         0.9190   -0.9630   -2.3980 h1        1 CCC      0.068000
     29 H3'         0.9220    1.3580   -1.8840 h1        1 CCC      0.288000
     30 H2'        -0.8040    1.7420   -0.4730 h1        1 CCC      0.115000
     31 H1'        -2.3910   -0.4220   -0.5360 h2        1 CCC      0.140000
     32 H41        -0.6660   -1.1430    5.6920 hn        1 CCC      0.184000
     33 H42        -0.8530    0.4260    5.7340 hn        1 CCC      0.184000
     34 H5         -1.1340    1.7880    3.6550 ha        1 CCC      0.159000
     35 H6         -1.3730    1.8080    1.2200 h4        1 CCC      0.250000
@<TRIPOS>BOND
     1    1    2 1   
     2    1   13 1   
     3    1   15 1   
     4    3   25 1   
     5    4    5 1   
     6    4    7 1   
     7    4    8 1   
     8    8    9 1   
     9    9   10 1   
    10    9   26 1   
    11    9   27 1   
    12   10   11 1   
    13   10   12 1   
    14   10   28 1   
    15   11   16 1   
    16   12   13 1   
    17   12   14 1   
    18   12   29 1   
    19   14   15 1   
    20   14   16 1   
    21   14   30 1   
    22   16   17 1   
    23   16   31 1   
    24   17   18 1   
    25   17   24 1   
    26   18   19 1   
    27   18   20 1   
    28   20   21 1   
    29   21   23 1   
    30   22   32 1   
    31   22   33 1   
    32   23   24 1   
    33   23   34 1   
    34   24   35 1   
@<TRIPOS>SUBSTRUCTURE
     1 CCC         1 TEMP              0 ****  ****    0 ROOT
