@<TRIPOS>MOLECULE
CCD
   30    29     1     0     0
SMALL
bcc


@<TRIPOS>ATOM
      1 O7          0.1150   -0.1850   -0.2480 oh        1 CCD     -0.621800
      2 C5          1.5080   -0.0790    0.0260 c3        1 CCD      0.145100
      3 C6          1.7850    0.0560    1.5110 c3        1 CCD     -0.136100
      4 C4          2.0050    1.1530   -0.7310 c3        1 CCD     -0.078400
      5 C3          1.7110    1.0150   -2.2130 c3        1 CCD     -0.103400
      6 C2          2.0540    2.3190   -2.9180 c3        1 CCD      0.114800
      7 N1          1.6260    2.3950   -4.3650 n4        1 CCD     -0.603800
      8 C9          0.1380    2.4480   -4.4640 c3        1 CCD      0.088767
      9 C10         2.1970    3.6420   -4.9610 c3        1 CCD      0.088767
     10 C8          2.1340    1.2150   -5.1220 c3        1 CCD      0.088767
     11 HO7        -0.2710   -0.7560    0.4270 ho        1 CCD      0.423000
     12 HXT         2.0170   -1.0010   -0.3780 h1        1 CCD      0.043700
     13 H61         1.2300    0.9280    1.9340 hc        1 CCD      0.056367
     14 H62         1.4570   -0.8670    2.0480 hc        1 CCD      0.056367
     15 H63         2.8770    0.2010    1.6880 hc        1 CCD      0.056367
     16 H41         3.1060    1.2630   -0.5570 hc        1 CCD      0.061200
     17 H42         1.4910    2.0610   -0.3200 hc        1 CCD      0.061200
     18 H31         2.3170    0.1700   -2.6350 hc        1 CCD      0.075200
     19 H32         0.6250    0.7550   -2.3360 hc        1 CCD      0.075200
     20 H21         3.1710    2.4730   -2.8940 hx        1 CCD      0.097200
     21 H22         1.5590    3.1810   -2.3850 hx        1 CCD      0.097200
     22 H91        -0.1590    2.5350   -5.5430 hx        1 CCD      0.101811
     23 H92        -0.3040    1.5120   -4.0300 hx        1 CCD      0.101811
     24 H93        -0.2420    3.3380   -3.8960 hx        1 CCD      0.101811
     25 H101        3.3170    3.5890   -4.9370 hx        1 CCD      0.101811
     26 H102        1.8480    4.5300   -4.3690 hx        1 CCD      0.101811
     27 H103        1.8490    3.7400   -6.0240 hx        1 CCD      0.101811
     28 H81         1.9110    1.3490   -6.2150 hx        1 CCD      0.101811
     29 H82         3.2420    1.1250   -4.9710 hx        1 CCD      0.101811
     30 H83         1.6260    0.2850   -4.7500 hx        1 CCD      0.101811
@<TRIPOS>BOND
     1    1    2 1   
     2    1   11 1   
     3    2    3 1   
     4    2    4 1   
     5    2   12 1   
     6    3   13 1   
     7    3   14 1   
     8    3   15 1   
     9    4    5 1   
    10    4   16 1   
    11    4   17 1   
    12    5    6 1   
    13    5   18 1   
    14    5   19 1   
    15    6    7 1   
    16    6   20 1   
    17    6   21 1   
    18    7    8 1   
    19    7    9 1   
    20    7   10 1   
    21    8   22 1   
    22    8   23 1   
    23    8   24 1   
    24    9   25 1   
    25    9   26 1   
    26    9   27 1   
    27   10   28 1   
    28   10   29 1   
    29   10   30 1   
@<TRIPOS>SUBSTRUCTURE
     1 CCD         1 TEMP              0 ****  ****    0 ROOT
