@<TRIPOS>MOLECULE
CCD
   30    29     1     0     0
SMALL
bcc


@<TRIPOS>ATOM
      1 O7          2.7420    1.3070   -0.0190 oh        1 CCD     -0.604800
      2 C5          2.7480   -0.0740    0.3070 c3        1 CCD      0.141100
      3 C6          3.9980   -0.7780   -0.1790 c3        1 CCD     -0.134100
      4 C4          1.4940   -0.7430   -0.2640 c3        1 CCD     -0.111400
      5 C3          0.2540   -0.0880    0.3140 c3        1 CCD     -0.104400
      6 C2         -0.9820   -0.6230   -0.3940 c3        1 CCD      0.115800
      7 N1         -2.2830    0.0320    0.0030 n4        1 CCD     -0.603800
      8 C9         -2.3000    1.4600   -0.4290 c3        1 CCD      0.088433
      9 C10        -3.4010   -0.6940   -0.6740 c3        1 CCD      0.088433
     10 C8         -2.4760   -0.0420    1.4810 c3        1 CCD      0.088433
     11 HO7         3.1550    1.4100   -0.8850 ho        1 CCD      0.411000
     12 HXT         2.7030   -0.0890    1.4350 h1        1 CCD      0.077700
     13 H61         4.9030   -0.2430    0.2000 hc        1 CCD      0.057033
     14 H62         4.0190   -1.8290    0.1960 hc        1 CCD      0.057033
     15 H63         4.0350   -0.7950   -1.2950 hc        1 CCD      0.057033
     16 H41         1.4990   -0.6430   -1.3800 hc        1 CCD      0.057700
     17 H42         1.5130   -1.8340   -0.0130 hc        1 CCD      0.057700
     18 H31         0.2010   -0.3040    1.4140 hc        1 CCD      0.074700
     19 H32         0.3510    1.0240    0.1860 hc        1 CCD      0.074700
     20 H21        -0.8710   -0.4820   -1.5080 hx        1 CCD      0.096700
     21 H22        -1.0860   -1.7250   -0.1780 hx        1 CCD      0.096700
     22 H91        -2.1410    1.5150   -1.5390 hx        1 CCD      0.102033
     23 H92        -3.2930    1.9150   -0.1680 hx        1 CCD      0.102033
     24 H93        -1.4830    2.0240    0.0950 hx        1 CCD      0.102033
     25 H101       -3.4210   -1.7600   -0.3220 hx        1 CCD      0.102033
     26 H102       -4.3760   -0.1980   -0.4190 hx        1 CCD      0.102033
     27 H103       -3.2450   -0.6660   -1.7850 hx        1 CCD      0.102033
     28 H81        -1.7040    0.5930    1.9920 hx        1 CCD      0.102033
     29 H82        -3.5010    0.3360    1.7410 hx        1 CCD      0.102033
     30 H83        -2.3700   -1.1080    1.8160 hx        1 CCD      0.102033
@<TRIPOS>BOND
     1    1    2 1   
     2    1   11 1   
     3    2    3 1   
     4    2    4 1   
     5    2   12 1   
     6    3   13 1   
     7    3   14 1   
     8    3   15 1   
     9    4    5 1   
    10    4   16 1   
    11    4   17 1   
    12    5    6 1   
    13    5   18 1   
    14    5   19 1   
    15    6    7 1   
    16    6   20 1   
    17    6   21 1   
    18    7    8 1   
    19    7    9 1   
    20    7   10 1   
    21    8   22 1   
    22    8   23 1   
    23    8   24 1   
    24    9   25 1   
    25    9   26 1   
    26    9   27 1   
    27   10   28 1   
    28   10   29 1   
    29   10   30 1   
@<TRIPOS>SUBSTRUCTURE
     1 CCD         1 TEMP              0 ****  ****    0 ROOT
