@<TRIPOS>MOLECULE
CCD
   30    29     1     0     0
SMALL
bcc


@<TRIPOS>ATOM
      1 O7          0.1190   -0.1860   -0.2470 oh        1 CCD     -0.621800
      2 C5          1.5110   -0.0720    0.0310 c3        1 CCD      0.145100
      3 C6          1.7820    0.0690    1.5160 c3        1 CCD     -0.136100
      4 C4          2.0030    1.1600   -0.7290 c3        1 CCD     -0.078400
      5 C3          1.7130    1.0160   -2.2110 c3        1 CCD     -0.103400
      6 C2          2.0530    2.3190   -2.9200 c3        1 CCD      0.114800
      7 N1          1.6260    2.3890   -4.3680 n4        1 CCD     -0.603800
      8 C9          0.1370    2.4410   -4.4680 c3        1 CCD      0.088767
      9 C10         2.1960    3.6350   -4.9670 c3        1 CCD      0.088767
     10 C8          2.1350    1.2070   -5.1200 c3        1 CCD      0.088767
     11 HO7        -0.2650   -0.7580    0.4290 ho        1 CCD      0.423000
     12 HXT         2.0260   -0.9930   -0.3690 h1        1 CCD      0.043700
     13 H61         2.8730    0.2210    1.6950 hc        1 CCD      0.056367
     14 H62         1.2220    0.9390    1.9350 hc        1 CCD      0.056367
     15 H63         1.4590   -0.8540    2.0550 hc        1 CCD      0.056367
     16 H41         3.1030    1.2760   -0.5540 hc        1 CCD      0.061200
     17 H42         1.4830    2.0670   -0.3220 hc        1 CCD      0.061200
     18 H31         2.3220    0.1720   -2.6300 hc        1 CCD      0.075200
     19 H32         0.6280    0.7520   -2.3360 hc        1 CCD      0.075200
     20 H21         3.1690    2.4760   -2.8950 hx        1 CCD      0.096700
     21 H22         1.5550    3.1810   -2.3900 hx        1 CCD      0.096700
     22 H91        -0.1580    2.5220   -5.5480 hx        1 CCD      0.101811
     23 H92        -0.2440    3.3330   -3.9040 hx        1 CCD      0.101811
     24 H93        -0.3040    1.5060   -4.0300 hx        1 CCD      0.101811
     25 H101        1.8480    3.7290   -6.0310 hx        1 CCD      0.101811
     26 H102        3.3160    3.5830   -4.9430 hx        1 CCD      0.101811
     27 H103        1.8460    4.5240   -4.3790 hx        1 CCD      0.101811
     28 H81         3.2430    1.1190   -4.9670 hx        1 CCD      0.101811
     29 H82         1.9130    1.3380   -6.2130 hx        1 CCD      0.101811
     30 H83         1.6280    0.2780   -4.7450 hx        1 CCD      0.101811
@<TRIPOS>BOND
     1    1    2 1   
     2    1   11 1   
     3    2    3 1   
     4    2    4 1   
     5    2   12 1   
     6    3   13 1   
     7    3   14 1   
     8    3   15 1   
     9    4    5 1   
    10    4   16 1   
    11    4   17 1   
    12    5    6 1   
    13    5   18 1   
    14    5   19 1   
    15    6    7 1   
    16    6   20 1   
    17    6   21 1   
    18    7    8 1   
    19    7    9 1   
    20    7   10 1   
    21    8   22 1   
    22    8   23 1   
    23    8   24 1   
    24    9   25 1   
    25    9   26 1   
    26    9   27 1   
    27   10   28 1   
    28   10   29 1   
    29   10   30 1   
@<TRIPOS>SUBSTRUCTURE
     1 CCD         1 TEMP              0 ****  ****    0 ROOT
