@<TRIPOS>MOLECULE
CCD
   30    29     1     0     0
SMALL
bcc


@<TRIPOS>ATOM
      1 O7          0.1140   -0.1850   -0.2490 oh        1 CCD     -0.621800
      2 C5          1.5080   -0.0830    0.0240 c3        1 CCD      0.145100
      3 C6          1.7870    0.0490    1.5080 c3        1 CCD     -0.136100
      4 C4          2.0070    1.1490   -0.7320 c3        1 CCD     -0.078400
      5 C3          1.7100    1.0140   -2.2130 c3        1 CCD     -0.103400
      6 C2          2.0550    2.3180   -2.9180 c3        1 CCD      0.114800
      7 N1          1.6250    2.3980   -4.3640 n4        1 CCD     -0.603800
      8 C9          0.1370    2.4560   -4.4600 c3        1 CCD      0.088767
      9 C10         2.1990    3.6450   -4.9580 c3        1 CCD      0.088767
     10 C8          2.1280    1.2180   -5.1240 c3        1 CCD      0.088767
     11 HO7        -0.2710   -0.7570    0.4260 ho        1 CCD      0.423000
     12 HXT         2.0140   -1.0060   -0.3830 h1        1 CCD      0.043700
     13 H61         2.8800    0.1910    1.6830 hc        1 CCD      0.056367
     14 H62         1.2360    0.9210    1.9340 hc        1 CCD      0.056367
     15 H63         1.4580   -0.8750    2.0440 hc        1 CCD      0.056367
     16 H41         3.1080    1.2560   -0.5600 hc        1 CCD      0.061200
     17 H42         1.4960    2.0580   -0.3180 hc        1 CCD      0.061200
     18 H31         2.3120    0.1690   -2.6390 hc        1 CCD      0.075200
     19 H32         0.6230    0.7580   -2.3350 hc        1 CCD      0.075200
     20 H21         3.1730    2.4690   -2.8940 hx        1 CCD      0.097200
     21 H22         1.5630    3.1810   -2.3820 hx        1 CCD      0.097200
     22 H91        -0.1610    2.5450   -5.5380 hx        1 CCD      0.101811
     23 H92        -0.2390    3.3460   -3.8890 hx        1 CCD      0.101811
     24 H93        -0.3070    1.5200   -4.0270 hx        1 CCD      0.101811
     25 H101        1.8500    3.7450   -6.0200 hx        1 CCD      0.101811
     26 H102        3.3190    3.5880   -4.9360 hx        1 CCD      0.101811
     27 H103        1.8530    4.5330   -4.3640 hx        1 CCD      0.101811
     28 H81         3.2360    1.1250   -4.9740 hx        1 CCD      0.101811
     29 H82         1.9040    1.3550   -6.2150 hx        1 CCD      0.101811
     30 H83         1.6190    0.2890   -4.7520 hx        1 CCD      0.101811
@<TRIPOS>BOND
     1    1    2 1   
     2    1   11 1   
     3    2    3 1   
     4    2    4 1   
     5    2   12 1   
     6    3   13 1   
     7    3   14 1   
     8    3   15 1   
     9    4    5 1   
    10    4   16 1   
    11    4   17 1   
    12    5    6 1   
    13    5   18 1   
    14    5   19 1   
    15    6    7 1   
    16    6   20 1   
    17    6   21 1   
    18    7    8 1   
    19    7    9 1   
    20    7   10 1   
    21    8   22 1   
    22    8   23 1   
    23    8   24 1   
    24    9   25 1   
    25    9   26 1   
    26    9   27 1   
    27   10   28 1   
    28   10   29 1   
    29   10   30 1   
@<TRIPOS>SUBSTRUCTURE
     1 CCD         1 TEMP              0 ****  ****    0 ROOT
