@<TRIPOS>MOLECULE
CCD
   30    29     1     0     0
SMALL
bcc


@<TRIPOS>ATOM
      1 O7         -1.9460   -1.3100    2.5110 oh        1 CCD     -0.621800
      2 C5         -0.5500   -1.3100    2.5110 c3        1 CCD      0.145100
      3 C6         -0.0420   -1.3100    3.9400 c3        1 CCD     -0.136100
      4 C4         -0.0420   -0.0640    1.7910 c3        1 CCD     -0.078400
      5 C3         -0.1730   -0.2630    0.2600 c3        1 CCD     -0.103400
      6 C2          0.5880    0.8690   -0.4740 c3        1 CCD      0.114800
      7 N1          0.3350    0.7740   -1.9140 n4        1 CCD     -0.603800
      8 C9          1.1520    1.7450   -2.6130 c3        1 CCD      0.088767
      9 C10         0.6660   -0.5560   -2.3760 c3        1 CCD      0.088767
     10 C8         -1.0620    1.0410   -2.1780 c3        1 CCD      0.088767
     11 HO7        -2.2420   -2.1460    2.5590 ho        1 CCD      0.423000
     12 HXT        -0.2250   -2.1070    2.0510 h1        1 CCD      0.043700
     13 H61        -0.3760   -2.1020    4.4040 hc        1 CCD      0.056367
     14 H62        -0.3570   -0.5080    4.3980 hc        1 CCD      0.056367
     15 H63         0.9340   -1.3220    3.9390 hc        1 CCD      0.056367
     16 H41         0.8950    0.0860    2.0210 hc        1 CCD      0.061200
     17 H42        -0.5720    0.7090    2.0660 hc        1 CCD      0.061200
     18 H31         0.2080   -1.1270    0.0110 hc        1 CCD      0.075200
     19 H32        -1.1160   -0.2390    0.0090 hc        1 CCD      0.075200
     20 H21         0.2790    1.7350   -0.1460 hx        1 CCD      0.096700
     21 H22         1.5450    0.7800   -0.3060 hx        1 CCD      0.096700
     22 H91         0.9750    1.6890   -3.5710 hx        1 CCD      0.101811
     23 H92         2.0960    1.5570   -2.4450 hx        1 CCD      0.101811
     24 H93         0.9370    2.6420   -2.2940 hx        1 CCD      0.101811
     25 H101        1.5120   -0.8380   -1.9790 hx        1 CCD      0.101811
     26 H102       -0.0400   -1.1770   -2.1130 hx        1 CCD      0.101811
     27 H103        0.7490   -0.5520   -3.3490 hx        1 CCD      0.101811
     28 H81        -1.3660    1.7770   -1.6120 hx        1 CCD      0.101811
     29 H82        -1.1760    1.2850   -3.1160 hx        1 CCD      0.101811
     30 H83        -1.5890    0.2430   -1.9830 hx        1 CCD      0.101811
@<TRIPOS>BOND
     1    1    2 1   
     2    1   11 1   
     3    2    3 1   
     4    2    4 1   
     5    2   12 1   
     6    3   13 1   
     7    3   14 1   
     8    3   15 1   
     9    4    5 1   
    10    4   16 1   
    11    4   17 1   
    12    5    6 1   
    13    5   18 1   
    14    5   19 1   
    15    6    7 1   
    16    6   20 1   
    17    6   21 1   
    18    7    8 1   
    19    7    9 1   
    20    7   10 1   
    21    8   22 1   
    22    8   23 1   
    23    8   24 1   
    24    9   25 1   
    25    9   26 1   
    26    9   27 1   
    27   10   28 1   
    28   10   29 1   
    29   10   30 1   
@<TRIPOS>SUBSTRUCTURE
     1 CCD         1 TEMP              0 ****  ****    0 ROOT
