@<TRIPOS>MOLECULE
CCE
   26    25     1     0     0
SMALL
bcc


@<TRIPOS>ATOM
      1 N1         -0.1630    0.1010   -0.0560 n4        1 CCE     -0.605800
      2 C2          1.2560   -0.1500    0.3730 c3        1 CCE      0.097800
      3 C3          1.5480   -0.0610    1.8690 c3        1 CCE      0.130400
      4 O4          1.6890   -1.4450    2.3250 os        1 CCE     -0.421900
      5 C5          2.3040   -1.5760    3.5320 c         1 CCE      0.611100
      6 O7          2.6360   -0.6480    4.2480 o         1 CCE     -0.357000
      7 C8         -0.5890    1.4880    0.3090 c3        1 CCE      0.084767
      8 C9         -1.0880   -0.8910    0.5640 c3        1 CCE      0.084767
      9 C10        -0.2270   -0.0400   -1.5510 c3        1 CCE      0.084767
     10 N6          2.5290   -2.9990    3.9000 n4        1 CCE     -0.707400
     11 H2C1        1.5500   -1.1760   -0.0030 hx        1 CCE      0.131200
     12 H2C2        1.9010    0.6180   -0.1510 hx        1 CCE      0.131200
     13 H3C1        0.7430    0.4130    2.4890 h1        1 CCE      0.116700
     14 H3C2        2.5230    0.4750    2.0380 h1        1 CCE      0.116700
     15 H8C1        0.1370    2.2300   -0.1210 hx        1 CCE      0.111033
     16 H8C2       -1.6120    1.6830   -0.1160 hx        1 CCE      0.111033
     17 H8C3       -0.6310    1.5960    1.4250 hx        1 CCE      0.111033
     18 H9C1       -2.1440   -0.6620    0.2500 hx        1 CCE      0.111033
     19 H9C2       -1.0100   -0.8300    1.6810 hx        1 CCE      0.111033
     20 H9C3       -0.8150   -1.9240    0.2180 hx        1 CCE      0.111033
     21 H101        0.1000   -1.0730   -1.8460 hx        1 CCE      0.111033
     22 H102        0.4430    0.7250   -2.0290 hx        1 CCE      0.111033
     23 H103       -1.2860    0.1280   -1.8880 hx        1 CCE      0.111033
     24 H6N1        3.1480   -3.4500    3.2100 hn        1 CCE      0.502133
     25 H6N2        1.6340   -3.5070    3.9270 hn        1 CCE      0.502133
     26 H63         2.9740   -3.0320    4.8350 hn        1 CCE      0.502133
@<TRIPOS>BOND
     1    1    2 1   
     2    1    7 1   
     3    1    8 1   
     4    1    9 1   
     5    2    3 1   
     6    2   11 1   
     7    2   12 1   
     8    3    4 1   
     9    3   13 1   
    10    3   14 1   
    11    4    5 1   
    12    5    6 2   
    13    5   10 1   
    14    7   15 1   
    15    7   16 1   
    16    7   17 1   
    17    8   18 1   
    18    8   19 1   
    19    8   20 1   
    20    9   21 1   
    21    9   22 1   
    22    9   23 1   
    23   10   24 1   
    24   10   25 1   
    25   10   26 1   
@<TRIPOS>SUBSTRUCTURE
     1 CCE         1 TEMP              0 ****  ****    0 ROOT
