@<TRIPOS>MOLECULE
CCE
   26    25     1     0     0
SMALL
bcc


@<TRIPOS>ATOM
      1 N1         -0.1640    0.1180   -0.0440 n4        1 CCE     -0.605800
      2 C2          1.2560   -0.1710    0.3560 c3        1 CCE      0.097800
      3 C3          1.5830   -0.0800    1.8450 c3        1 CCE      0.129400
      4 O4          1.6770   -1.4640    2.3130 os        1 CCE     -0.422900
      5 C5          2.3170   -1.6090    3.5050 c         1 CCE      0.611100
      6 O7          2.7070   -0.6890    4.2020 o         1 CCE     -0.357000
      7 C8         -0.5420    1.5190    0.3200 c3        1 CCE      0.084767
      8 C9         -1.1030   -0.8430    0.6040 c3        1 CCE      0.084767
      9 C10        -0.2640   -0.0320   -1.5360 c3        1 CCE      0.084767
     10 N6          2.4900   -3.0370    3.8840 nz        1 CCE     -0.707400
     11 H2C1        1.5130   -1.2070   -0.0190 hx        1 CCE      0.131200
     12 H2C2        1.9120    0.5750   -0.1870 hx        1 CCE      0.131200
     13 H3C1        0.8120    0.4320    2.4770 h1        1 CCE      0.116700
     14 H3C2        2.5830    0.4170    1.9880 h1        1 CCE      0.116700
     15 H8C1        0.1970    2.2370   -0.1300 hx        1 CCE      0.111033
     16 H8C2       -1.5670    1.7410   -0.0870 hx        1 CCE      0.111033
     17 H8C3       -0.5590    1.6360    1.4350 hx        1 CCE      0.111033
     18 H9C1       -2.1590   -0.5830    0.3130 hx        1 CCE      0.111033
     19 H9C2       -0.9970   -0.7770    1.7180 hx        1 CCE      0.111033
     20 H9C3       -0.8690   -1.8850    0.2580 hx        1 CCE      0.111033
     21 H101        0.0280   -1.0750   -1.8300 hx        1 CCE      0.111033
     22 H102        0.4160    0.7110   -2.0340 hx        1 CCE      0.111033
     23 H103       -1.3250    0.1630   -1.8510 hx        1 CCE      0.111033
     24 H6N1        3.0680   -3.5220    3.1820 hn        1 CCE      0.502133
     25 H6N2        1.5750   -3.5050    3.9430 hn        1 CCE      0.502133
     26 H63         2.9600   -3.0790    4.8060 hn        1 CCE      0.502133
@<TRIPOS>BOND
     1    1    2 1   
     2    1    7 1   
     3    1    8 1   
     4    1    9 1   
     5    2    3 1   
     6    2   11 1   
     7    2   12 1   
     8    3    4 1   
     9    3   13 1   
    10    3   14 1   
    11    4    5 1   
    12    5    6 2   
    13    5   10 1   
    14    7   15 1   
    15    7   16 1   
    16    7   17 1   
    17    8   18 1   
    18    8   19 1   
    19    8   20 1   
    20    9   21 1   
    21    9   22 1   
    22    9   23 1   
    23   10   24 1   
    24   10   25 1   
    25   10   26 1   
@<TRIPOS>SUBSTRUCTURE
     1 CCE         1 TEMP              0 ****  ****    0 ROOT
