@<TRIPOS>MOLECULE
CCE
   25    24     1     0     0
SMALL
bcc


@<TRIPOS>ATOM
      1 N1         -1.2280    0.0730   -0.8520 n4        1 CCE     -0.596800
      2 C2          0.2140    0.0170   -0.8350 c3        1 CCE      0.082800
      3 C3          0.7060   -0.0010    0.6080 c3        1 CCE      0.145400
      4 O4          2.1480   -0.0200    0.6240 os        1 CCE     -0.428900
      5 C5          2.7050   -0.0770    1.9310 c         1 CCE      0.748100
      6 O7          1.9750    0.0010    2.9100 o         1 CCE     -0.640000
      7 C8         -1.6810    1.2830   -0.1600 c3        1 CCE      0.089767
      8 C9         -1.7660   -1.1000   -0.1740 c3        1 CCE      0.089767
      9 C10        -1.7050    0.0930   -2.2610 c3        1 CCE      0.089767
     10 N6          4.1150   -0.3210    2.1030 n         1 CCE     -0.615000
     11 H2C1        0.5140   -0.7920   -1.2890 hx        1 CCE      0.109200
     12 H2C2        0.5750    0.8000   -1.2900 hx        1 CCE      0.109200
     13 H3C1        0.3850    0.7990    1.0730 h1        1 CCE      0.090200
     14 H3C2        0.3610   -0.8060    1.0620 h1        1 CCE      0.090200
     15 H8C1       -1.0900    2.0420   -0.3930 hx        1 CCE      0.103478
     16 H8C2       -2.6040    1.4900   -0.4310 hx        1 CCE      0.103478
     17 H8C3       -1.6520    1.1310    0.8120 hx        1 CCE      0.103478
     18 H9C1       -1.2070   -1.8970   -0.3920 hx        1 CCE      0.103478
     19 H9C2       -1.7550   -0.9490    0.8000 hx        1 CCE      0.103478
     20 H9C3       -2.6840   -1.2540   -0.4690 hx        1 CCE      0.103478
     21 H101       -2.7060    0.1870   -2.2760 hx        1 CCE      0.103478
     22 H102       -1.4480   -0.7480   -2.7050 hx        1 CCE      0.103478
     23 H103       -1.2920    0.8610   -2.7410 hx        1 CCE      0.103478
     24 H6N1        4.6450   -0.4360    1.3820 hn        1 CCE      0.353000
     25 H6N2        4.4770   -0.3750    2.9620 hn        1 CCE      0.353000
@<TRIPOS>BOND
     1    1    2 1   
     2    1    7 1   
     3    1    8 1   
     4    1    9 1   
     5    2    3 1   
     6    2   11 1   
     7    2   12 1   
     8    3    4 1   
     9    3   13 1   
    10    3   14 1   
    11    4    5 1   
    12    5    6 2   
    13    5   10 1   
    14    7   15 1   
    15    7   16 1   
    16    7   17 1   
    17    8   18 1   
    18    8   19 1   
    19    8   20 1   
    20    9   21 1   
    21    9   22 1   
    22    9   23 1   
    23   10   24 1   
    24   10   25 1   
@<TRIPOS>SUBSTRUCTURE
     1 CCE         1 TEMP              0 ****  ****    0 ROOT
