@<TRIPOS>MOLECULE
CCE
   26    25     1     0     0
SMALL
bcc


@<TRIPOS>ATOM
      1 N1         -0.1700    0.1130   -0.0420 n4        1 CCE     -0.605800
      2 C2          1.2520   -0.1840    0.3460 c3        1 CCE      0.097800
      3 C3          1.5960   -0.0800    1.8290 c3        1 CCE      0.129400
      4 O4          1.6820   -1.4600    2.3120 os        1 CCE     -0.422900
      5 C5          2.3340   -1.5980    3.4980 c         1 CCE      0.611100
      6 O7          2.7400   -0.6740    4.1810 o         1 CCE     -0.357000
      7 C8         -0.5330    1.5200    0.3110 c3        1 CCE      0.084767
      8 C9         -1.1100   -0.8330    0.6270 c3        1 CCE      0.084767
      9 C10        -0.2890   -0.0520   -1.5300 c3        1 CCE      0.084767
     10 N6          2.4970   -3.0240    3.8910 n4        1 CCE     -0.707400
     11 H2C1        1.9070    0.5520   -0.2120 hx        1 CCE      0.131200
     12 H2C2        1.4960   -1.2260   -0.0210 hx        1 CCE      0.131200
     13 H3C1        0.8370    0.4470    2.4640 h1        1 CCE      0.116700
     14 H3C2        2.6020    0.4090    1.9560 h1        1 CCE      0.116700
     15 H8C1       -1.5610    1.7470   -0.0870 hx        1 CCE      0.111033
     16 H8C2       -0.5370    1.6490    1.4250 hx        1 CCE      0.111033
     17 H8C3        0.2060    2.2270   -0.1540 hx        1 CCE      0.111033
     18 H9C1       -0.9900   -0.7570    1.7390 hx        1 CCE      0.111033
     19 H9C2       -2.1670   -0.5690    0.3460 hx        1 CCE      0.111033
     20 H9C3       -0.8880   -1.8810    0.2890 hx        1 CCE      0.111033
     21 H101       -1.3520    0.1480   -1.8360 hx        1 CCE      0.111033
     22 H102        0.3910    0.6800   -2.0440 hx        1 CCE      0.111033
     23 H103       -0.0090   -1.1000   -1.8170 hx        1 CCE      0.111033
     24 H6N1        2.9770   -3.0600    4.8070 hn        1 CCE      0.502133
     25 H6N2        3.0620   -3.5220    3.1880 hn        1 CCE      0.502133
     26 H63         1.5770   -3.4810    3.9660 hn        1 CCE      0.502133
@<TRIPOS>BOND
     1    1    2 1   
     2    1    7 1   
     3    1    8 1   
     4    1    9 1   
     5    2    3 1   
     6    2   11 1   
     7    2   12 1   
     8    3    4 1   
     9    3   13 1   
    10    3   14 1   
    11    4    5 1   
    12    5    6 2   
    13    5   10 1   
    14    7   15 1   
    15    7   16 1   
    16    7   17 1   
    17    8   18 1   
    18    8   19 1   
    19    8   20 1   
    20    9   21 1   
    21    9   22 1   
    22    9   23 1   
    23   10   24 1   
    24   10   25 1   
    25   10   26 1   
@<TRIPOS>SUBSTRUCTURE
     1 CCE         1 TEMP              0 ****  ****    0 ROOT
