@<TRIPOS>MOLECULE
CCE
   25    24     1     0     0
SMALL
bcc


@<TRIPOS>ATOM
      1 N1         -1.8300    0.1400   -0.1150 n4        1 CCE     -0.595800
      2 C2         -1.1230   -0.5600    1.0160 c3        1 CCE      0.088800
      3 C3          0.2830   -1.1010    0.7530 c3        1 CCE      0.132400
      4 O4          1.2520   -0.0710    0.9160 os        1 CCE     -0.454900
      5 C5          1.9680    0.2890   -0.2300 c         1 CCE      0.747100
      6 O7          1.4030    0.0940   -1.3250 o         1 CCE     -0.622000
      7 C8         -1.6970   -0.6200   -1.3930 c3        1 CCE      0.082767
      8 C9         -1.2930    1.5210   -0.2970 c3        1 CCE      0.082767
      9 C10        -3.2820    0.2370    0.2400 c3        1 CCE      0.082767
     10 N6          3.1670    0.8630    0.0260 n         1 CCE     -0.615000
     11 H2C1       -1.0760    0.1660    1.8800 hx        1 CCE      0.107700
     12 H2C2       -1.7650   -1.4420    1.3110 hx        1 CCE      0.107700
     13 H3C1        0.5120   -1.8300    1.5850 h1        1 CCE      0.102200
     14 H3C2        0.3760   -1.6160   -0.2380 h1        1 CCE      0.102200
     15 H8C1       -0.6410   -0.5340   -1.7790 hx        1 CCE      0.104922
     16 H8C2       -1.9550   -1.6960   -1.2130 hx        1 CCE      0.104922
     17 H8C3       -2.3990   -0.1850   -2.1530 hx        1 CCE      0.104922
     18 H9C1       -1.8320    2.0160   -1.1490 hx        1 CCE      0.104922
     19 H9C2       -1.4490    2.1100    0.6450 hx        1 CCE      0.104922
     20 H9C3       -0.1960    1.4620   -0.5340 hx        1 CCE      0.104922
     21 H101       -3.7260   -0.7920    0.2860 hx        1 CCE      0.104922
     22 H102       -3.3890    0.7420    1.2360 hx        1 CCE      0.104922
     23 H103       -3.8150    0.8380   -0.5440 hx        1 CCE      0.104922
     24 H6N1        3.5060    0.9340    0.9540 hn        1 CCE      0.353500
     25 H6N2        3.7260    1.1580   -0.7390 hn        1 CCE      0.353500
@<TRIPOS>BOND
     1    1    2 1   
     2    1    7 1   
     3    1    8 1   
     4    1    9 1   
     5    2    3 1   
     6    2   11 1   
     7    2   12 1   
     8    3    4 1   
     9    3   13 1   
    10    3   14 1   
    11    4    5 1   
    12    5    6 2   
    13    5   10 1   
    14    7   15 1   
    15    7   16 1   
    16    7   17 1   
    17    8   18 1   
    18    8   19 1   
    19    8   20 1   
    20    9   21 1   
    21    9   22 1   
    22    9   23 1   
    23   10   24 1   
    24   10   25 1   
@<TRIPOS>SUBSTRUCTURE
     1 CCE         1 TEMP              0 ****  ****    0 ROOT
