@<TRIPOS>MOLECULE
CCK
   48    51     1     0     0
SMALL
bcc


@<TRIPOS>ATOM
      1 N1          0.7640    1.5990   -0.6540 nb        1 CCK     -0.593000
      2 C2          2.0400    1.2370   -0.4940 ca        1 CCK      0.266900
      3 C3          2.5680    0.8880    0.8070 ca        1 CCK      0.475500
      4 N4          1.7750    0.9230    1.9140 nb        1 CCK     -0.715000
      5 C5          0.4720    1.3030    1.7330 ca        1 CCK      0.434500
      6 C6         -0.0290    1.6360    0.4320 ca        1 CCK      0.233900
      7 N13         3.9220    0.5160    0.9500 na        1 CCK      0.031100
      8 N15        -0.3710    1.3530    2.8600 na        1 CCK     -0.105900
      9 C17         4.6150    0.1750    2.1480 ca        1 CCK      0.029800
     10 C18         5.9410   -0.2160    1.7320 ca        1 CCK     -0.273900
     11 C19         5.9250   -0.0850    0.2810 cc        1 CCK      0.401800
     12 N20         4.7300    0.3370   -0.1420 nd        1 CCK     -0.523100
     13 C26        -0.0920    0.8220    4.1270 cc        1 CCK     -0.088300
     14 C27        -1.1680    1.1150    4.9720 cd        1 CCK     -0.178300
     15 C28        -2.1340    1.8600    4.1990 cd        1 CCK     -0.161000
     16 C29        -1.6220    1.9970    2.9120 cc        1 CCK     -0.150300
     17 C35         6.8830   -0.5910    2.6810 ca        1 CCK     -0.024000
     18 C36         6.5290   -0.5870    4.0180 ca        1 CCK     -0.219000
     19 C37         5.2160   -0.2140    4.4470 ca        1 CCK      0.202600
     20 C38         4.2520    0.1890    3.4930 ca        1 CCK     -0.200000
     21 N44         4.9010   -0.3450    5.7990 nh        1 CCK     -0.735600
     22 C46         3.7410    0.3190    6.3700 c3        1 CCK      0.204500
     23 C48         3.5060   -0.1280    7.8150 c3        1 CCK     -0.119100
     24 C51         3.7930    1.8470    6.3380 c3        1 CCK     -0.119100
     25 C57        -1.3200    0.7130    6.3760 c3        1 CCK     -0.041100
     26 C59        -0.5950    1.6430    7.3060 c         1 CCK      0.644100
     27 O61         0.6070    1.6900    7.5860 o         1 CCK     -0.568000
     28 O63        -1.4050    2.5320    7.9460 oh        1 CCK     -0.604100
     29 H2          2.6650    1.2170   -1.4040 h4        1 CCK      0.064100
     30 H6         -1.0770    1.9280    0.2610 h4        1 CCK      0.042100
     31 H19         6.7470   -0.2900   -0.4090 h4        1 CCK      0.057800
     32 H26         0.8360    0.2830    4.3350 h4        1 CCK      0.191000
     33 H28        -3.0830    2.2410    4.5650 ha        1 CCK      0.163000
     34 H29        -2.0420    2.5020    2.0430 h4        1 CCK      0.174000
     35 H35         7.8970   -0.8840    2.3720 ha        1 CCK      0.138000
     36 H36         7.2760   -0.8880    4.7680 ha        1 CCK      0.135000
     37 H38         3.2500    0.5030    3.8120 ha        1 CCK      0.166000
     38 HN44        5.6950   -0.3530    6.4040 hn        1 CCK      0.403800
     39 H46         2.8430   -0.0130    5.7640 h1        1 CCK      0.060700
     40 H48         2.5550    0.3390    8.1730 hc        1 CCK      0.048033
     41 H48A        4.3400    0.2040    8.4780 hc        1 CCK      0.048033
     42 H48B        3.4130   -1.2380    7.8830 hc        1 CCK      0.048033
     43 H51         4.6250    2.2310    6.9760 hc        1 CCK      0.048033
     44 H51A        2.8260    2.2470    6.7310 hc        1 CCK      0.048033
     45 H51B        3.9400    2.2190    5.2960 hc        1 CCK      0.048033
     46 H57        -0.8960   -0.3160    6.5370 hc        1 CCK      0.083700
     47 H57A       -2.4100    0.6980    6.6530 hc        1 CCK      0.083700
     48 H442       -0.8720    3.1050    8.5220 ho        1 CCK      0.443000
@<TRIPOS>BOND
     1    1    2 ar  
     2    1    6 ar  
     3    2    3 ar  
     4    2   29 1   
     5    3    4 ar  
     6    3    7 1   
     7    4    5 ar  
     8    5    6 ar  
     9    5    8 1   
    10    6   30 1   
    11    7    9 1   
    12    7   12 1   
    13    8   13 1   
    14    8   16 1   
    15    9   10 ar  
    16    9   20 ar  
    17   10   11 1   
    18   10   17 ar  
    19   11   12 2   
    20   11   31 1   
    21   13   14 2   
    22   13   32 1   
    23   14   15 1   
    24   14   25 1   
    25   15   16 2   
    26   15   33 1   
    27   16   34 1   
    28   17   18 ar  
    29   17   35 1   
    30   18   19 ar  
    31   18   36 1   
    32   19   20 ar  
    33   19   21 1   
    34   20   37 1   
    35   21   22 1   
    36   21   38 1   
    37   22   23 1   
    38   22   24 1   
    39   22   39 1   
    40   23   40 1   
    41   23   41 1   
    42   23   42 1   
    43   24   43 1   
    44   24   44 1   
    45   24   45 1   
    46   25   26 1   
    47   25   46 1   
    48   25   47 1   
    49   26   27 2   
    50   26   28 1   
    51   28   48 1   
@<TRIPOS>SUBSTRUCTURE
     1 CCK         1 TEMP              0 ****  ****    0 ROOT
