@<TRIPOS>MOLECULE
CCK
   47    36     1     0     0
SMALL
bcc


@<TRIPOS>ATOM
      1 N1         -1.8830    1.7480    1.1240 n1        1 CCK     -0.083000
      2 C2         -0.5680    1.5950    0.9150 c1        1 CCK     -0.168000
      3 C3          0.0370    0.3760    1.1740 c1        1 CCK      0.093000
      4 N4         -0.6940   -0.6510    1.6350 n1        1 CCK     -0.169000
      5 C5         -2.0090   -0.4970    1.8450 c1        1 CCK      0.134000
      6 C6         -2.6140    0.7210    1.5860 c1        1 CCK     -0.144000
      7 N13         1.3320    0.1980    0.8850 n2        1 CCK     -0.103000
      8 N15        -2.7240   -1.4990    2.3810 n2        1 CCK     -0.118000
      9 C17         1.9590    0.2550   -0.3310 c1        1 CCK      0.033000
     10 C18         2.6080   -0.9250   -0.5250 c1        1 CCK     -0.163000
     11 C19         2.3810   -1.7240    0.5840 c1        1 CCK     -0.135000
     12 N20         1.5980   -1.0310    1.4450 n2        1 CCK     -0.016000
     13 C26        -3.0940   -1.3180    3.6810 c1        1 CCK     -0.121500
     14 C27        -3.6750   -2.4860    4.1240 c1        1 CCK     -0.129500
     15 C28        -3.6600   -3.3760    3.0990 c1        1 CCK     -0.129500
     16 C29        -3.0700   -2.7650    2.0150 c1        1 CCK     -0.121500
     17 C35         3.3120   -1.1540   -1.7230 c1        1 CCK     -0.121500
     18 C36         3.3440   -0.1750   -2.7070 c1        1 CCK     -0.121500
     19 C37         2.6840    1.0260   -2.5100 c1        1 CCK      0.095000
     20 C38         1.9920    1.2510   -1.3320 c1        1 CCK     -0.200000
     21 N44         2.9710    2.2790   -3.1540 n3        1 CCK     -0.289000
     22 C46         2.5590    2.5000   -4.5130 c3        1 CCK      0.001000
     23 C48         2.1450    3.9570   -4.6890 c3        1 CCK     -0.224000
     24 C51         3.7100    2.1860   -5.4470 c3        1 CCK     -0.224000
     25 C57        -4.1910   -2.7480    5.5240 c2        1 CCK     -0.181000
     26 C59        -5.7030   -2.8280    5.4980 c2        1 CCK      0.337000
     27 O61        -6.2700   -3.8640    5.0620 o         1 CCK     -0.582000
     28 O63        -6.3910   -1.8410    5.8650 o         1 CCK     -0.582000
     29 H2         -0.0370    2.3410    0.5800 ha        1 CCK      0.173000
     30 H6         -3.5690    0.8330    1.7380 ha        1 CCK      0.202000
     31 H19         2.6910   -2.6060    0.8730 DU        1 CCK      0.179500
     32 H26        -2.9960   -0.4960    4.1960 DU        1 CCK      0.179500
     33 H28        -4.0070   -4.2870    3.1260 DU        1 CCK      0.179500
     34 H29        -2.9250   -3.1690    1.1390 DU        1 CCK      0.179500
     35 H35         3.7890   -1.9940   -1.8560 ha        1 CCK      0.132500
     36 H36         3.8340   -0.3350   -3.5390 ha        1 CCK      0.132500
     37 H38         1.5650    2.1160   -1.1740 ha        1 CCK      0.149000
     38 HN44        3.4590    2.9150   -2.7170 hn        1 CCK      0.196000
     39 H46         1.8030    1.9190   -4.7220 h1        1 CCK      0.091000
     40 H48         2.0780    4.1650   -5.6470 hc        1 CCK      0.080333
     41 H48A        1.2790    4.1030   -4.2630 hc        1 CCK      0.080333
     42 H48B        2.8160    4.5410   -4.2730 hc        1 CCK      0.080333
     43 H51         3.9270    1.2330   -5.3880 hc        1 CCK      0.080333
     44 H51A        3.4540    2.4060   -6.3670 hc        1 CCK      0.080333
     45 H51B        4.4930    2.7160   -5.1900 hc        1 CCK      0.080333
     46 H57        -3.9140   -2.0200    6.1150 ha        1 CCK      0.079000
     47 H57A       -3.8250   -3.5930    5.8540 ha        1 CCK      0.079000
@<TRIPOS>BOND
     1    1    6 1   
     2    2    3 1   
     3    2   29 1   
     4    4    5 1   
     5    6   30 1   
     6    7    9 1   
     7    7   12 1   
     8    8   13 1   
     9    8   16 1   
    10    9   10 1   
    11   11   12 1   
    12   13   14 1   
    13   14   15 1   
    14   15   16 1   
    15   17   18 1   
    16   17   35 1   
    17   18   36 1   
    18   19   20 1   
    19   19   21 1   
    20   20   37 1   
    21   21   22 1   
    22   21   38 1   
    23   22   23 1   
    24   22   24 1   
    25   22   39 1   
    26   23   40 1   
    27   23   41 1   
    28   23   42 1   
    29   24   43 1   
    30   24   44 1   
    31   24   45 1   
    32   25   26 1   
    33   25   46 1   
    34   25   47 1   
    35   26   27 1   
    36   26   28 1   
@<TRIPOS>SUBSTRUCTURE
     1 CCK         1 TEMP              0 ****  ****    0 ROOT
