@<TRIPOS>MOLECULE
CCK
   47    50     1     0     0
SMALL
bcc


@<TRIPOS>ATOM
      1 N1         -0.0180   -0.4660    0.0850 nb        1 CCK     -0.601000
      2 C2          1.3170   -0.3030    0.0600 ca        1 CCK      0.232900
      3 C3          2.0640   -0.1310    1.2710 ca        1 CCK      0.451500
      4 N4          1.4560   -0.1290    2.4920 nb        1 CCK     -0.736000
      5 C5          0.0950   -0.2850    2.5080 ca        1 CCK      0.468500
      6 C6         -0.6350   -0.4590    1.2690 ca        1 CCK      0.242900
      7 N13         3.4740    0.0620    1.2220 na        1 CCK      0.044100
      8 N15        -0.5740   -0.2780    3.7270 na        1 CCK     -0.133900
      9 C17         4.3270    0.4620    2.2840 ca        1 CCK      0.022800
     10 C18         5.6710    0.4000    1.7530 ca        1 CCK     -0.260900
     11 C19         5.4980   -0.0700    0.3860 cc        1 CCK      0.364800
     12 N20         4.2000   -0.2660    0.1180 nd        1 CCK     -0.507100
     13 C26        -1.9800   -0.2540    3.8970 cc        1 CCK     -0.128300
     14 C27        -2.2610   -0.2240    5.2590 cd        1 CCK     -0.079300
     15 C28        -0.9880   -0.2280    5.9600 cd        1 CCK     -0.189000
     16 C29         0.0220   -0.2550    5.0100 cc        1 CCK     -0.164300
     17 C35         6.7480    0.7720    2.5470 ca        1 CCK     -0.043000
     18 C36         6.5160    1.1960    3.8440 ca        1 CCK     -0.203000
     19 C37         5.1990    1.2530    4.3860 ca        1 CCK      0.168600
     20 C38         4.0900    0.8950    3.5880 ca        1 CCK     -0.186000
     21 N44         4.9820    1.5700    5.7380 nu        1 CCK     -0.720600
     22 C46         5.8600    2.5210    6.4020 c3        1 CCK      0.194500
     23 C48         5.9430    3.8960    5.7360 c3        1 CCK     -0.114600
     24 C51         5.4540    2.7120    7.8650 c3        1 CCK     -0.114600
     25 C57        -3.5890   -0.1800    5.8760 c3        1 CCK     -0.145100
     26 C59        -4.7340   -0.7330    4.9990 c         1 CCK      0.917600
     27 O61        -4.7240   -0.5110    3.7520 o         1 CCK     -0.846800
     28 O63        -5.6550   -1.3580    5.5940 o         1 CCK     -0.846800
     29 H2          1.7940   -0.3150   -0.9330 h4        1 CCK      0.047100
     30 H6         -1.7320   -0.5960    1.2650 h4        1 CCK      0.065100
     31 H19         6.2780   -0.2520   -0.3540 h4        1 CCK      0.048800
     32 H26        -2.7030   -0.2770    3.0710 h4        1 CCK      0.228000
     33 H28        -0.8650   -0.2200    7.0380 ha        1 CCK      0.142000
     34 H29         1.1050   -0.2740    5.1280 h4        1 CCK      0.162000
     35 H35         7.7720    0.7310    2.1480 ha        1 CCK      0.130000
     36 H36         7.3750    1.4850    4.4670 ha        1 CCK      0.131000
     37 H38         3.0690    0.9440    3.9970 ha        1 CCK      0.172000
     38 HN44        4.0160    1.7370    5.9450 hn        1 CCK      0.397800
     39 H46         6.8960    2.0660    6.3910 h1        1 CCK      0.055700
     40 H48         4.9530    4.4120    5.7610 hc        1 CCK      0.042033
     41 H48A        6.2670    3.7970    4.6710 hc        1 CCK      0.042033
     42 H48B        6.6860    4.5270    6.2790 hc        1 CCK      0.042033
     43 H51         4.4510    3.1940    7.9440 hc        1 CCK      0.042033
     44 H51A        6.2060    3.3690    8.3630 hc        1 CCK      0.042033
     45 H51B        5.4230    1.7330    8.4020 hc        1 CCK      0.042033
     46 H57        -3.5750   -0.7480    6.8430 hc        1 CCK      0.038700
     47 H57A       -3.8490    0.8870    6.1130 hc        1 CCK      0.038700
@<TRIPOS>BOND
     1    1    2 ar  
     2    1    6 ar  
     3    2    3 ar  
     4    2   29 1   
     5    3    4 ar  
     6    3    7 1   
     7    4    5 ar  
     8    5    6 ar  
     9    5    8 1   
    10    6   30 1   
    11    7    9 1   
    12    7   12 1   
    13    8   13 1   
    14    8   16 1   
    15    9   10 ar  
    16    9   20 ar  
    17   10   11 1   
    18   10   17 ar  
    19   11   12 2   
    20   11   31 1   
    21   13   14 2   
    22   13   32 1   
    23   14   15 1   
    24   14   25 1   
    25   15   16 2   
    26   15   33 1   
    27   16   34 1   
    28   17   18 ar  
    29   17   35 1   
    30   18   19 ar  
    31   18   36 1   
    32   19   20 ar  
    33   19   21 1   
    34   20   37 1   
    35   21   22 1   
    36   21   38 1   
    37   22   23 1   
    38   22   24 1   
    39   22   39 1   
    40   23   40 1   
    41   23   41 1   
    42   23   42 1   
    43   24   43 1   
    44   24   44 1   
    45   24   45 1   
    46   25   26 1   
    47   25   46 1   
    48   25   47 1   
    49   26   27 1   
    50   26   28 1   
@<TRIPOS>SUBSTRUCTURE
     1 CCK         1 TEMP              0 ****  ****    0 ROOT
