@<TRIPOS>MOLECULE
CCK
   47    50     1     0     0
SMALL
bcc


@<TRIPOS>ATOM
      1 N1          0.0390   -0.7750    0.1230 nb        1 CCK     -0.601000
      2 C2          1.3680   -0.5680    0.0890 ca        1 CCK      0.232900
      3 C3          2.0960   -0.2300    1.2770 ca        1 CCK      0.451500
      4 N4          1.4730   -0.1070    2.4840 nb        1 CCK     -0.736000
      5 C5          0.1190   -0.3180    2.5100 ca        1 CCK      0.468500
      6 C6         -0.5910   -0.6580    1.2950 ca        1 CCK      0.242900
      7 N13         3.5010   -0.0070    1.2220 na        1 CCK      0.044100
      8 N15        -0.5620   -0.2020    3.7170 na        1 CCK     -0.133900
      9 C17         4.3500    0.4420    2.2680 ca        1 CCK      0.022800
     10 C18         5.6730    0.5250    1.6920 ca        1 CCK     -0.260900
     11 C19         5.4950    0.1000    0.3120 cc        1 CCK      0.364800
     12 N20         4.2100   -0.2020    0.0770 nd        1 CCK     -0.507100
     13 C26        -1.9700   -0.2180    3.8750 cc        1 CCK     -0.128300
     14 C27        -2.2660   -0.0530    5.2240 cd        1 CCK     -0.079300
     15 C28        -1.0020    0.0720    5.9290 cd        1 CCK     -0.189000
     16 C29         0.0190   -0.0170    4.9930 cc        1 CCK     -0.164300
     17 C35         6.7430    0.9530    2.4670 ca        1 CCK     -0.043000
     18 C36         6.5250    1.2950    3.7910 ca        1 CCK     -0.203000
     19 C37         5.2290    1.2070    4.3780 ca        1 CCK      0.168600
     20 C38         4.1260    0.7860    3.6020 ca        1 CCK     -0.186000
     21 N44         5.0360    1.4410    5.7510 nh        1 CCK     -0.720600
     22 C46         5.8490    2.4380    6.4290 c3        1 CCK      0.194500
     23 C48         5.7810    3.8430    5.8270 c3        1 CCK     -0.114600
     24 C51         5.4840    2.5260    7.9130 c3        1 CCK     -0.114600
     25 C57        -3.6020    0.0010    5.8240 c3        1 CCK     -0.145100
     26 C59        -4.7090   -0.7040    5.0100 c         1 CCK      0.917600
     27 O61        -4.6980   -0.6250    3.7470 o         1 CCK     -0.846800
     28 O63        -5.6040   -1.3030    5.6680 o         1 CCK     -0.846800
     29 H2          1.8530   -0.6760   -0.8940 h4        1 CCK      0.047100
     30 H6         -1.6810   -0.8370    1.2980 h4        1 CCK      0.065100
     31 H19         6.2610    0.0180   -0.4600 h4        1 CCK      0.048800
     32 H26        -2.6830   -0.3600    3.0520 h4        1 CCK      0.228000
     33 H28        -0.8910    0.2010    7.0010 ha        1 CCK      0.142000
     34 H29         1.1000    0.0220    5.1200 h4        1 CCK      0.162000
     35 H35         7.7510    1.0210    2.0330 ha        1 CCK      0.130000
     36 H36         7.3780    1.6310    4.3970 ha        1 CCK      0.131000
     37 H38         3.1230    0.7240    4.0480 ha        1 CCK      0.172000
     38 HN44        4.0670    1.5110    5.9970 hn        1 CCK      0.397800
     39 H46         6.9210    2.0820    6.3620 h1        1 CCK      0.055700
     40 H48         4.7500    4.2630    5.9100 hc        1 CCK      0.042367
     41 H48A        6.4840    4.5160    6.3730 hc        1 CCK      0.042367
     42 H48B        6.0720    3.8210    4.7480 hc        1 CCK      0.042367
     43 H51         4.4440    2.9100    8.0480 hc        1 CCK      0.042367
     44 H51A        6.1900    3.2280    8.4160 hc        1 CCK      0.042367
     45 H51B        5.5620    1.5260    8.4030 hc        1 CCK      0.042367
     46 H57        -3.5730   -0.4480    6.8510 hc        1 CCK      0.038700
     47 H57A       -3.9140    1.0750    5.9310 hc        1 CCK      0.038700
@<TRIPOS>BOND
     1    1    2 ar  
     2    1    6 ar  
     3    2    3 ar  
     4    2   29 1   
     5    3    4 ar  
     6    3    7 1   
     7    4    5 ar  
     8    5    6 ar  
     9    5    8 1   
    10    6   30 1   
    11    7    9 1   
    12    7   12 1   
    13    8   13 1   
    14    8   16 1   
    15    9   10 ar  
    16    9   20 ar  
    17   10   11 1   
    18   10   17 ar  
    19   11   12 2   
    20   11   31 1   
    21   13   14 2   
    22   13   32 1   
    23   14   15 1   
    24   14   25 1   
    25   15   16 2   
    26   15   33 1   
    27   16   34 1   
    28   17   18 ar  
    29   17   35 1   
    30   18   19 ar  
    31   18   36 1   
    32   19   20 ar  
    33   19   21 1   
    34   20   37 1   
    35   21   22 1   
    36   21   38 1   
    37   22   23 1   
    38   22   24 1   
    39   22   39 1   
    40   23   40 1   
    41   23   41 1   
    42   23   42 1   
    43   24   43 1   
    44   24   44 1   
    45   24   45 1   
    46   25   26 1   
    47   25   46 1   
    48   25   47 1   
    49   26   27 1   
    50   26   28 1   
@<TRIPOS>SUBSTRUCTURE
     1 CCK         1 TEMP              0 ****  ****    0 ROOT
