@<TRIPOS>MOLECULE
CCL
   39    39     1     0     0
SMALL
bcc


@<TRIPOS>ATOM
      1 CAK         5.1590   -0.4770   -1.4120 c3        1 CCL     -0.094400
      2 CAG         6.5670   -0.8920   -1.0130 c3        1 CCL     -0.077400
      3 CAH         6.8620   -0.2840    0.3520 c3        1 CCL     -0.077400
      4 CAL         5.5380    0.1710    0.9420 c3        1 CCL     -0.094400
      5 CAR         4.5450    0.2680   -0.2200 c3        1 CCL      0.158100
      6 OAN         3.3290   -0.4220    0.1080 os        1 CCL     -0.455900
      7 CAP         2.3140    0.3350    0.6720 c         1 CCL      0.721100
      8 OAC         2.4650    1.5640    0.7690 o         1 CCL     -0.589000
      9 NAM         1.2720   -0.4500    1.1380 n         1 CCL     -0.503900
     10 CAI        -0.0390    0.1390    1.3080 c3        1 CCL      0.068000
     11 CAE        -1.0370   -0.1810    0.1970 c3        1 CCL     -0.111400
     12 CAF        -2.4150    0.3300    0.5670 c3        1 CCL     -0.072400
     13 CB         -3.4290   -0.0300   -0.4970 c3        1 CCL     -0.064400
     14 CA         -4.8560    0.3380   -0.0910 c3        1 CCL      0.018500
     15 C          -5.8410   -0.3780   -1.0750 c         1 CCL      0.887600
     16 OXT        -5.6950   -1.6210   -1.2430 o         1 CCL     -0.843800
     17 O          -6.7390    0.3180   -1.6290 o         1 CCL     -0.843800
     18 N          -5.0670    1.7750    0.0360 n3        1 CCL     -0.892800
     19 HAK1        5.1760    0.1940   -2.3060 hc        1 CCL      0.056700
     20 HAK2        4.5360   -1.3710   -1.6700 hc        1 CCL      0.056700
     21 HAG1        6.6390   -2.0080   -0.9630 hc        1 CCL      0.038200
     22 HAG2        7.3130   -0.5450   -1.7710 hc        1 CCL      0.038200
     23 HAH1        7.3620   -1.0280    1.0200 hc        1 CCL      0.038200
     24 HAH2        7.5570    0.5870    0.2430 hc        1 CCL      0.038200
     25 HAL1        5.1650   -0.5680    1.6960 hc        1 CCL      0.056700
     26 HAL2        5.6370    1.1590    1.4540 hc        1 CCL      0.056700
     27 HAR         4.3190    1.3370   -0.4750 h1        1 CCL      0.082700
     28 HNAM        1.2770   -1.3950    0.8160 hn        1 CCL      0.305500
     29 HAI1       -0.4380   -0.2620    2.2850 h1        1 CCL      0.067700
     30 HAI2        0.0680    1.2570    1.4050 h1        1 CCL      0.067700
     31 HAE1       -0.7070    0.2910   -0.7650 hc        1 CCL      0.042200
     32 HAE2       -1.0870   -1.2890    0.0260 hc        1 CCL      0.042200
     33 HAF1       -2.7290   -0.1150    1.5480 hc        1 CCL      0.040200
     34 HAF2       -2.3810    1.4420    0.7030 hc        1 CCL      0.040200
     35 HB1        -3.1590    0.4740   -1.4610 hc        1 CCL      0.047700
     36 HB2        -3.4170   -1.1380   -0.6830 hc        1 CCL      0.047700
     37 HA         -5.0560   -0.1030    0.9290 h1        1 CCL      0.039700
     38 HN1        -4.7470    2.2190   -0.8060 hn        1 CCL      0.330800
     39 HN2        -6.0630    1.9250    0.0690 hn        1 CCL      0.330800
@<TRIPOS>BOND
     1    1    2 1   
     2    1    5 1   
     3    1   19 1   
     4    1   20 1   
     5    2    3 1   
     6    2   21 1   
     7    2   22 1   
     8    3    4 1   
     9    3   23 1   
    10    3   24 1   
    11    4    5 1   
    12    4   25 1   
    13    4   26 1   
    14    5    6 1   
    15    5   27 1   
    16    6    7 1   
    17    7    8 2   
    18    7    9 1   
    19    9   10 1   
    20    9   28 1   
    21   10   11 1   
    22   10   29 1   
    23   10   30 1   
    24   11   12 1   
    25   11   31 1   
    26   11   32 1   
    27   12   13 1   
    28   12   33 1   
    29   12   34 1   
    30   13   14 1   
    31   13   35 1   
    32   13   36 1   
    33   14   15 1   
    34   14   18 1   
    35   14   37 1   
    36   15   16 1   
    37   15   17 1   
    38   18   38 1   
    39   18   39 1   
@<TRIPOS>SUBSTRUCTURE
     1 CCL         1 TEMP              0 ****  ****    0 ROOT
