@<TRIPOS>MOLECULE
CCL
   39    39     1     0     0
SMALL
bcc


@<TRIPOS>ATOM
      1 CAK         0.1840    4.4400   -1.2320 c3        1 CCL     -0.094400
      2 CAG         1.3240    5.4390   -1.7160 c3        1 CCL     -0.076900
      3 CAH         2.3210    5.5800   -0.4840 c3        1 CCL     -0.076900
      4 CAL         1.6720    5.0170    0.5590 c3        1 CCL     -0.094400
      5 CAR         0.6490    3.9060   -0.0820 c3        1 CCL      0.158100
      6 OAN         1.3460    2.6990   -0.3520 os        1 CCL     -0.455900
      7 CAP         0.8710    1.5800    0.3900 c         1 CCL      0.721100
      8 OAC         0.3540    1.7470    1.4770 o         1 CCL     -0.588000
      9 NAM         1.0000    0.2520   -0.1480 n         1 CCL     -0.503900
     10 CAI         0.6510   -0.8940    0.6630 c3        1 CCL      0.068000
     11 CAE         0.0250   -1.9760   -0.2240 c3        1 CCL     -0.111400
     12 CAF        -0.4550   -3.1380    0.6500 c3        1 CCL     -0.072400
     13 CB         -1.4390   -4.0030   -0.1450 c3        1 CCL     -0.064400
     14 CA         -1.8150   -5.2260    0.6710 c3        1 CCL      0.018500
     15 C          -1.9680   -6.4160   -0.2450 c         1 CCL      0.887600
     16 OXT        -2.8700   -6.4200   -1.1250 o         1 CCL     -0.843800
     17 O          -1.2400   -7.4280   -0.0870 o         1 CCL     -0.843800
     18 N          -3.0430   -4.9860    1.3450 n3        1 CCL     -0.892800
     19 HAK1       -0.6510    4.9300   -1.0670 hc        1 CCL      0.056700
     20 HAK2        0.0410    3.7400   -1.8990 hc        1 CCL      0.056700
     21 HAG1        0.9370    6.3110   -1.9400 hc        1 CCL      0.038200
     22 HAG2        1.7920    5.0690   -2.4880 hc        1 CCL      0.038200
     23 HAH1        2.5040    6.5240   -0.3010 hc        1 CCL      0.038200
     24 HAH2        3.1530    5.1000   -0.6640 hc        1 CCL      0.038200
     25 HAL1        1.1650    5.6990    1.0480 hc        1 CCL      0.056700
     26 HAL2        2.3110    4.5810    1.1560 hc        1 CCL      0.056700
     27 HAR        -0.0930    3.7360    0.5350 h1        1 CCL      0.083700
     28 HNAM        1.3020    0.1320   -0.9990 hn        1 CCL      0.305500
     29 HAI1        1.4600   -1.2500    1.0920 h1        1 CCL      0.067700
     30 HAI2        0.0080   -0.6230    1.3520 h1        1 CCL      0.067700
     31 HAE1       -0.7350   -1.5990   -0.7110 hc        1 CCL      0.042200
     32 HAE2        0.6910   -2.3010   -0.8600 hc        1 CCL      0.042200
     33 HAF1        0.3120   -3.6820    0.9200 hc        1 CCL      0.040200
     34 HAF2       -0.9000   -2.7860    1.4460 hc        1 CCL      0.040200
     35 HB1        -1.0200   -4.2870   -0.9830 hc        1 CCL      0.047700
     36 HB2        -2.2420   -3.4840   -0.3430 hc        1 CCL      0.047700
     37 HA         -1.1140   -5.4080    1.3270 h1        1 CCL      0.039700
     38 HN1        -3.6040   -5.7020    1.2210 hn        1 CCL      0.330800
     39 HN2        -2.8830   -4.8750    2.2410 hn        1 CCL      0.330800
@<TRIPOS>BOND
     1    1    2 1   
     2    1    5 1   
     3    1   19 1   
     4    1   20 1   
     5    2    3 1   
     6    2   21 1   
     7    2   22 1   
     8    3    4 1   
     9    3   23 1   
    10    3   24 1   
    11    4    5 1   
    12    4   25 1   
    13    4   26 1   
    14    5    6 1   
    15    5   27 1   
    16    6    7 1   
    17    7    8 2   
    18    7    9 1   
    19    9   10 1   
    20    9   28 1   
    21   10   11 1   
    22   10   29 1   
    23   10   30 1   
    24   11   12 1   
    25   11   31 1   
    26   11   32 1   
    27   12   13 1   
    28   12   33 1   
    29   12   34 1   
    30   13   14 1   
    31   13   35 1   
    32   13   36 1   
    33   14   15 1   
    34   14   18 1   
    35   14   37 1   
    36   15   16 1   
    37   15   17 1   
    38   18   38 1   
    39   18   39 1   
@<TRIPOS>SUBSTRUCTURE
     1 CCL         1 TEMP              0 ****  ****    0 ROOT
