@<TRIPOS>MOLECULE
CCM
   20    20     1     0     0
SMALL
bcc


@<TRIPOS>ATOM
      1 CH2         1.5470   -0.1770   -0.1320 c3        1 CCM     -0.058100
      2 CA          0.0560    0.0400    0.0270 c3        1 CCM     -0.173000
      3 CB1        -0.3330    0.1230    1.5070 c3        1 CCM     -0.064900
      4 CB2        -0.3710    1.3670   -0.6080 c3        1 CCM     -0.064900
      5 CG1        -1.1050    1.4170    1.7270 c3        1 CCM     -0.071900
      6 CG2        -1.3120    2.0620    0.3650 c3        1 CCM     -0.071900
      7 C          -0.6520   -1.1620   -0.6780 c         1 CCM      0.919600
      8 O          -0.9690   -2.1670    0.0190 o         1 CCM     -0.843300
      9 OXT        -0.8490   -1.0850   -1.9240 o         1 CCM     -0.843300
     10 HH21        1.8070   -0.2200   -1.2170 hc        1 CCM      0.016033
     11 HH22        1.8420   -1.1440    0.3440 hc        1 CCM      0.016033
     12 HH23        2.1300    0.6480    0.3460 hc        1 CCM      0.016033
     13 HB11       -0.9580   -0.7680    1.7760 hc        1 CCM      0.041200
     14 HB12        0.5770    0.1030    2.1590 hc        1 CCM      0.041200
     15 HB21        0.5210    2.0150   -0.8010 hc        1 CCM      0.041200
     16 HB22       -0.8710    1.1730   -1.5910 hc        1 CCM      0.041200
     17 HG11       -2.0870    1.2150    2.2230 hc        1 CCM      0.014450
     18 HG12       -0.5320    2.1060    2.3990 hc        1 CCM      0.014450
     19 HG21       -2.3730    1.9270    0.0350 hc        1 CCM      0.014450
     20 HG22       -1.1130    3.1610    0.4060 hc        1 CCM      0.014450
@<TRIPOS>BOND
     1    1    2 1   
     2    1   10 1   
     3    1   11 1   
     4    1   12 1   
     5    2    3 1   
     6    2    4 1   
     7    2    7 1   
     8    3    5 1   
     9    3   13 1   
    10    3   14 1   
    11    4    6 1   
    12    4   15 1   
    13    4   16 1   
    14    5    6 1   
    15    5   17 1   
    16    5   18 1   
    17    6   19 1   
    18    6   20 1   
    19    7    8 1   
    20    7    9 1   
@<TRIPOS>SUBSTRUCTURE
     1 CCM         1 TEMP              0 ****  ****    0 ROOT
