@<TRIPOS>MOLECULE
CCM
   20    20     1     0     0
SMALL
bcc


@<TRIPOS>ATOM
      1 CH2         1.2110    1.4770    0.3960 c3        1 CCM     -0.058100
      2 CA          0.2800    0.3630   -0.0380 c3        1 CCM     -0.173000
      3 CB1        -0.7810    0.8810   -1.0140 c3        1 CCM     -0.064900
      4 CB2         1.0520   -0.7330   -0.7800 c3        1 CCM     -0.064900
      5 CG1        -0.7400    0.0200   -2.2690 c3        1 CCM     -0.071900
      6 CG2         0.2440   -1.1120   -2.0130 c3        1 CCM     -0.071900
      7 C          -0.3750   -0.2080    1.2610 c         1 CCM      0.919600
      8 O          -1.4930    0.2570    1.6250 o         1 CCM     -0.843300
      9 OXT         0.2600   -1.0900    1.9060 o         1 CCM     -0.843300
     10 HH21        0.6310    2.2700    0.9270 hc        1 CCM      0.016033
     11 HH22        1.9830    1.0710    1.0940 hc        1 CCM      0.016033
     12 HH23        1.7270    1.9390   -0.4820 hc        1 CCM      0.016033
     13 HB11       -1.7890    0.8320   -0.5250 hc        1 CCM      0.041200
     14 HB12       -0.5890    1.9520   -1.2780 hc        1 CCM      0.041200
     15 HB21        2.0630   -0.3610   -1.0880 hc        1 CCM      0.041200
     16 HB22        1.2040   -1.6130   -0.1050 hc        1 CCM      0.041200
     17 HG11       -1.7550   -0.3850   -2.5060 hc        1 CCM      0.014450
     18 HG12       -0.4130    0.6260   -3.1510 hc        1 CCM      0.014450
     19 HG21       -0.3090   -2.0670   -1.8300 hc        1 CCM      0.014450
     20 HG22        0.9080   -1.2750   -2.8970 hc        1 CCM      0.014450
@<TRIPOS>BOND
     1    1    2 1   
     2    1   10 1   
     3    1   11 1   
     4    1   12 1   
     5    2    3 1   
     6    2    4 1   
     7    2    7 1   
     8    3    5 1   
     9    3   13 1   
    10    3   14 1   
    11    4    6 1   
    12    4   15 1   
    13    4   16 1   
    14    5    6 1   
    15    5   17 1   
    16    5   18 1   
    17    6   19 1   
    18    6   20 1   
    19    7    8 1   
    20    7    9 1   
@<TRIPOS>SUBSTRUCTURE
     1 CCM         1 TEMP              0 ****  ****    0 ROOT
