@<TRIPOS>MOLECULE
CCM
   20    20     1     0     0
SMALL
bcc


@<TRIPOS>ATOM
      1 CH2         1.5400   -0.2350   -0.0620 c3        1 CCM     -0.058100
      2 CA          0.0510    0.0290    0.0400 c3        1 CCM     -0.173000
      3 CB1        -0.3900    0.1300    1.5040 c3        1 CCM     -0.064900
      4 CB2        -0.3120    1.3650   -0.6140 c3        1 CCM     -0.064900
      5 CG1        -1.1270    1.4490    1.6930 c3        1 CCM     -0.071900
      6 CG2        -1.2650    2.0940    0.3210 c3        1 CCM     -0.071900
      7 C          -0.6670   -1.1540   -0.6870 c         1 CCM      0.919600
      8 O          -1.0420   -2.1450    0.0010 o         1 CCM     -0.843300
      9 OXT        -0.8140   -1.0770   -1.9400 o         1 CCM     -0.843300
     10 HH21        2.1290    0.5750    0.4340 hc        1 CCM      0.016033
     11 HH22        1.7860   -1.2080    0.4260 hc        1 CCM      0.016033
     12 HH23        1.8380   -0.2890   -1.1370 hc        1 CCM      0.016033
     13 HB11        0.4940    0.0830    2.1900 hc        1 CCM      0.041200
     14 HB12       -1.0540   -0.7390    1.7520 hc        1 CCM      0.041200
     15 HB21        0.6070    1.9850   -0.7770 hc        1 CCM      0.041200
     16 HB22       -0.7810    1.1830   -1.6150 hc        1 CCM      0.041200
     17 HG11       -0.5550    2.1220    2.3820 hc        1 CCM      0.014450
     18 HG12       -2.1310    1.2820    2.1550 hc        1 CCM      0.014450
     19 HG21       -2.3170    1.9900   -0.0470 hc        1 CCM      0.014450
     20 HG22       -1.0340    3.1870    0.3650 hc        1 CCM      0.014450
@<TRIPOS>BOND
     1    1    2 1   
     2    1   10 1   
     3    1   11 1   
     4    1   12 1   
     5    2    3 1   
     6    2    4 1   
     7    2    7 1   
     8    3    5 1   
     9    3   13 1   
    10    3   14 1   
    11    4    6 1   
    12    4   15 1   
    13    4   16 1   
    14    5    6 1   
    15    5   17 1   
    16    5   18 1   
    17    6   19 1   
    18    6   20 1   
    19    7    8 1   
    20    7    9 1   
@<TRIPOS>SUBSTRUCTURE
     1 CCM         1 TEMP              0 ****  ****    0 ROOT
