@<TRIPOS>MOLECULE
CCM
   20    20     1     0     0
SMALL
bcc


@<TRIPOS>ATOM
      1 CH2         1.6890   -0.5180   -0.4120 c3        1 CCM     -0.058100
      2 CA          0.1760   -0.5180   -0.4120 c3        1 CCM     -0.173000
      3 CB1        -0.3880   -0.5180    1.1540 c3        1 CCM     -0.064900
      4 CB2        -0.2860    0.6830   -0.8610 c3        1 CCM     -0.064900
      5 CG1        -0.8730    0.9400    1.4490 c3        1 CCM     -0.071900
      6 CG2        -0.6500    1.6220    0.3410 c3        1 CCM     -0.071900
      7 C          -0.1440   -1.8340   -1.3250 c         1 CCM      0.919600
      8 O          -0.2530   -2.9650   -0.7820 o         1 CCM     -0.843300
      9 OXT        -0.2810   -1.7180   -2.5710 o         1 CCM     -0.843300
     10 HH21        2.0150   -0.4430   -1.3290 hc        1 CCM      0.016033
     11 HH22        2.0150   -1.3490   -0.0170 hc        1 CCM      0.016033
     12 HH23        2.0150    0.2400    0.1110 hc        1 CCM      0.016033
     13 HB11        0.3290   -0.7630    1.7690 hc        1 CCM      0.041200
     14 HB12       -1.1330   -1.1420    1.2410 hc        1 CCM      0.041200
     15 HB21       -1.0810    0.5370   -1.4080 hc        1 CCM      0.041200
     16 HB22        0.4030    1.1100   -1.4050 hc        1 CCM      0.041200
     17 HG11       -1.8260    0.9420    1.6600 hc        1 CCM      0.014450
     18 HG12       -0.3620    1.3210    2.1880 hc        1 CCM      0.014450
     19 HG21       -1.4520    2.1310    0.1150 hc        1 CCM      0.014450
     20 HG22        0.0870    2.2430    0.4940 hc        1 CCM      0.014450
@<TRIPOS>BOND
     1    1    2 1   
     2    1   10 1   
     3    1   11 1   
     4    1   12 1   
     5    2    3 1   
     6    2    4 1   
     7    2    7 1   
     8    3    5 1   
     9    3   13 1   
    10    3   14 1   
    11    4    6 1   
    12    4   15 1   
    13    4   16 1   
    14    5    6 1   
    15    5   17 1   
    16    5   18 1   
    17    6   19 1   
    18    6   20 1   
    19    7    8 1   
    20    7    9 1   
@<TRIPOS>SUBSTRUCTURE
     1 CCM         1 TEMP              0 ****  ****    0 ROOT
