@<TRIPOS>MOLECULE
CCN
    6     5     1     0     0
SMALL
bcc


@<TRIPOS>ATOM
      1 N           2.6380    0.0380    0.1250 n1        1 CCN     -0.375800
      2 C1          1.4790   -0.0020    0.0230 c1        1 CCN      0.208700
      3 C2          0.0460   -0.0510   -0.1030 c3        1 CCN     -0.045000
      4 H21        -0.3380   -1.0390    0.2600 hc        1 CCN      0.070700
      5 H22        -0.2510    0.0800   -1.1750 hc        1 CCN      0.070700
      6 H23        -0.4220    0.7650    0.5040 hc        1 CCN      0.070700
@<TRIPOS>BOND
     1    1    2 3   
     2    2    3 1   
     3    3    4 1   
     4    3    5 1   
     5    3    6 1   
@<TRIPOS>SUBSTRUCTURE
     1 CCN         1 TEMP              0 ****  ****    0 ROOT
