@<TRIPOS>MOLECULE
CCN
    6     5     1     0     0
SMALL
bcc


@<TRIPOS>ATOM
      1 N           2.6360    0.0340    0.1470 n1        1 CCN     -0.375800
      2 C1          1.4780   -0.0040    0.0330 c1        1 CCN      0.208700
      3 C2          0.0470   -0.0500   -0.1080 c3        1 CCN     -0.045000
      4 H21        -0.3440   -1.0380    0.2470 hc        1 CCN      0.070700
      5 H22        -0.2390    0.0860   -1.1830 hc        1 CCN      0.070700
      6 H23        -0.4270    0.7640    0.4970 hc        1 CCN      0.070700
@<TRIPOS>BOND
     1    1    2 3   
     2    2    3 1   
     3    3    4 1   
     4    3    5 1   
     5    3    6 1   
@<TRIPOS>SUBSTRUCTURE
     1 CCN         1 TEMP              0 ****  ****    0 ROOT
