@<TRIPOS>MOLECULE
CCN
    6     4     1     0     0
SMALL
bcc


@<TRIPOS>ATOM
      1 N           2.1170    0.0510    0.2140 n1        1 CCN     -0.050000
      2 C1          0.9810    0.0240    0.0990 c1        1 CCN     -0.144000
      3 C2         -0.5300   -0.0130   -0.0540 c2        1 CCN     -0.136000
      4 H21        -0.8790    0.9040   -0.0770 ha        1 CCN      0.110000
      5 H22        -0.7640   -0.4730   -0.8890 ha        1 CCN      0.110000
      6 H23        -0.9240   -0.4940    0.7060 ha        1 CCN      0.110000
@<TRIPOS>BOND
     1    1    2 1   
     2    3    4 1   
     3    3    5 1   
     4    3    6 1   
@<TRIPOS>SUBSTRUCTURE
     1 CCN         1 TEMP              0 ****  ****    0 ROOT
