@<TRIPOS>MOLECULE
CCN
    6     5     1     0     0
SMALL
bcc


@<TRIPOS>ATOM
      1 N          -1.3260   -0.0000   -0.0000 n1        1 CCN     -0.375800
      2 C1         -0.1630   -0.0000    0.0000 c1        1 CCN      0.208700
      3 C2          1.2760    0.0000    0.0000 c3        1 CCN     -0.045000
      4 H21         1.6620   -0.0100    1.0520 hc        1 CCN      0.070700
      5 H22         1.6620   -0.9060   -0.5340 hc        1 CCN      0.070700
      6 H23         1.6620    0.9160   -0.5170 hc        1 CCN      0.070700
@<TRIPOS>BOND
     1    1    2 3   
     2    2    3 1   
     3    3    4 1   
     4    3    5 1   
     5    3    6 1   
@<TRIPOS>SUBSTRUCTURE
     1 CCN         1 TEMP              0 ****  ****    0 ROOT
