@<TRIPOS>MOLECULE
CCN
    6     5     1     0     0
SMALL
bcc


@<TRIPOS>ATOM
      1 N           2.6290    0.0160    0.1520 n1        1 CCN     -0.375800
      2 C1          1.4720   -0.0100    0.0360 c1        1 CCN      0.208700
      3 C2          0.0400   -0.0430   -0.1070 c3        1 CCN     -0.045000
      4 H21        -0.3410   -1.0830    0.0640 hc        1 CCN      0.070700
      5 H22        -0.2510    0.2830   -1.1390 hc        1 CCN      0.070700
      6 H23        -0.4380    0.6440    0.6370 hc        1 CCN      0.070700
@<TRIPOS>BOND
     1    1    2 3   
     2    2    3 1   
     3    3    4 1   
     4    3    5 1   
     5    3    6 1   
@<TRIPOS>SUBSTRUCTURE
     1 CCN         1 TEMP              0 ****  ****    0 ROOT
