@<TRIPOS>MOLECULE
CCO
   23    24     1     0     0
SMALL
bcc


@<TRIPOS>ATOM
      1 C1         -0.7480    0.0000   -2.0710 ca        1 CCO     -0.088500
      2 C2         -1.9550    0.0000   -2.7860 ca        1 CCO     -0.106000
      3 C3         -1.9440    0.0000   -4.1800 ca        1 CCO     -0.139000
      4 C4         -0.7390    0.0010   -4.8790 ca        1 CCO     -0.128000
      5 C5          0.4620    0.0010   -4.1640 ca        1 CCO      0.004400
      6 C6          0.4700    0.0010   -2.7670 ca        1 CCO     -0.086000
      7 CL5         1.9400    0.0020   -5.0130 cl        1 CCO     -0.114400
      8 O1         -1.4600   -0.0010    1.4230 os        1 CCO     -0.162100
      9 C2A        -0.0200    0.0010    1.4510 cc        1 CCO      0.512700
     10 S3          0.8160    0.0010    2.8950 ss        1 CCO      0.009600
     11 N3          0.4220    0.0010    0.1820 nd        1 CCO     -0.746000
     12 C1A        -0.7580    0.0000   -0.6090 cd        1 CCO      0.571500
     13 N2         -1.8700   -0.0010    0.1770 nc        1 CCO     -0.417300
     14 C1B        -0.5100   -0.0000    4.0770 c3        1 CCO     -0.201300
     15 C           0.3600    0.0000    5.3430 c         1 CCO      0.922600
     16 O2         -0.1350   -0.0000    6.4890 o         1 CCO     -0.785300
     17 O3          1.6070    0.0010    5.0520 o         1 CCO     -0.785300
     18 HC2        -2.9170   -0.0000   -2.2510 ha        1 CCO      0.153000
     19 HC3        -2.8940   -0.0000   -4.7330 ha        1 CCO      0.129000
     20 HC4        -0.7340    0.0010   -5.9790 ha        1 CCO      0.136000
     21 HC6         1.4270    0.0010   -2.2180 ha        1 CCO      0.177000
     22 H1B1       -1.1530   -0.9030    4.0180 h1        1 CCO      0.071700
     23 H1B2       -1.1550    0.9010    4.0180 h1        1 CCO      0.071700
@<TRIPOS>BOND
     1    1    2 ar  
     2    1    6 ar  
     3    1   12 1   
     4    2    3 ar  
     5    2   18 1   
     6    3    4 ar  
     7    3   19 1   
     8    4    5 ar  
     9    4   20 1   
    10    5    6 ar  
    11    5    7 1   
    12    6   21 1   
    13    8    9 1   
    14    8   13 1   
    15    9   10 1   
    16    9   11 2   
    17   10   14 1   
    18   11   12 1   
    19   12   13 2   
    20   14   15 1   
    21   14   22 1   
    22   14   23 1   
    23   15   16 1   
    24   15   17 1   
@<TRIPOS>SUBSTRUCTURE
     1 CCO         1 TEMP              0 ****  ****    0 ROOT
