@<TRIPOS>MOLECULE
CCO
   23    24     1     0     0
SMALL
bcc


@<TRIPOS>ATOM
      1 C1         -0.0120    0.0010   -0.0500 ca        1 CCO     -0.088500
      2 C2          1.3900   -0.0000   -0.0050 ca        1 CCO     -0.106000
      3 C3          2.0510   -0.0000    1.2220 ca        1 CCO     -0.139000
      4 C4          1.3320    0.0010    2.4160 ca        1 CCO     -0.128000
      5 C5         -0.0650    0.0010    2.3660 ca        1 CCO      0.004400
      6 C6         -0.7450    0.0010    1.1460 ca        1 CCO     -0.086000
      7 CL5        -0.9530    0.0020    3.8220 cl        1 CCO     -0.114400
      8 O1         -1.0690    0.0000   -3.4570 os        1 CCO     -0.162100
      9 C2A        -2.3440    0.0010   -2.7880 cc        1 CCO      0.512700
     10 S3         -3.7720    0.0010   -3.6520 ss        1 CCO      0.009600
     11 N3         -2.1220    0.0010   -1.4630 nd        1 CCO     -0.746000
     12 C1A        -0.7070    0.0000   -1.3370 cd        1 CCO      0.571500
     13 N2         -0.1090   -0.0000   -2.5610 nc        1 CCO     -0.417300
     14 C1B        -3.1780    0.0000   -5.3260 c3        1 CCO     -0.201300
     15 C          -4.5500    0.0000   -6.0170 c         1 CCO      0.922600
     16 O2         -4.6680    0.0000   -7.2600 o         1 CCO     -0.785300
     17 O3         -5.5040    0.0010   -5.1620 o         1 CCO     -0.785300
     18 HC2         1.9770   -0.0010   -0.9360 ha        1 CCO      0.153000
     19 HC3         3.1510   -0.0010    1.2500 ha        1 CCO      0.129000
     20 HC4         1.8560    0.0010    3.3810 ha        1 CCO      0.136000
     21 HC6        -1.8480    0.0020    1.1250 ha        1 CCO      0.177000
     22 H1B1       -2.5850    0.9020   -5.5840 h1        1 CCO      0.071700
     23 H1B2       -2.5860   -0.9020   -5.5830 h1        1 CCO      0.071700
@<TRIPOS>BOND
     1    1    2 ar  
     2    1    6 ar  
     3    1   12 1   
     4    2    3 ar  
     5    2   18 1   
     6    3    4 ar  
     7    3   19 1   
     8    4    5 ar  
     9    4   20 1   
    10    5    6 ar  
    11    5    7 1   
    12    6   21 1   
    13    8    9 1   
    14    8   13 1   
    15    9   10 1   
    16    9   11 2   
    17   10   14 1   
    18   11   12 1   
    19   12   13 2   
    20   14   15 1   
    21   14   22 1   
    22   14   23 1   
    23   15   16 1   
    24   15   17 1   
@<TRIPOS>SUBSTRUCTURE
     1 CCO         1 TEMP              0 ****  ****    0 ROOT
