@<TRIPOS>MOLECULE
CCP
   17    16     1     0     0
SMALL
bcc


@<TRIPOS>ATOM
      1 P           0.0320   -0.0200   -0.1010 p5        1 CCP      1.218700
      2 O1P         1.5310    0.1580   -0.2390 o         1 CCP     -0.963167
      3 O2P        -0.4770   -0.0140    1.3240 o         1 CCP     -0.963167
      4 O3P        -0.5520   -1.1090   -0.9780 o         1 CCP     -0.963167
      5 C1         -0.6490    1.5070   -0.7990 c3        1 CCP     -0.273600
      6 C2         -0.1530    1.5100   -2.2010 c3        1 CCP     -0.058400
      7 C3         -0.5960    2.7130   -3.0120 c3        1 CCP     -0.076400
      8 C4         -0.0700    2.6720   -4.4250 c3        1 CCP     -0.080100
      9 H11        -1.7540    1.4730   -0.7370 hc        1 CCP      0.008700
     10 H12        -0.2780    2.3710   -0.2130 hc        1 CCP      0.008700
     11 H21         0.9710    1.4580   -2.1650 hc        1 CCP      0.060700
     12 H22        -0.5070    0.5600   -2.6890 hc        1 CCP      0.060700
     13 H31        -0.2430    3.6520   -2.5110 hc        1 CCP      0.004700
     14 H32        -1.7170    2.7550   -3.0340 hc        1 CCP      0.004700
     15 H41        -0.4060    3.5650   -5.0090 hc        1 CCP      0.003700
     16 H42         1.0460    2.6530   -4.4230 hc        1 CCP      0.003700
     17 H43        -0.4320    1.7540   -4.9480 hc        1 CCP      0.003700
@<TRIPOS>BOND
     1    1    2 1   
     2    1    3 1   
     3    1    4 1   
     4    1    5 1   
     5    5    6 1   
     6    5    9 1   
     7    5   10 1   
     8    6    7 1   
     9    6   11 1   
    10    6   12 1   
    11    7    8 1   
    12    7   13 1   
    13    7   14 1   
    14    8   15 1   
    15    8   16 1   
    16    8   17 1   
@<TRIPOS>SUBSTRUCTURE
     1 CCP         1 TEMP              0 ****  ****    0 ROOT
