@<TRIPOS>MOLECULE
CCP
   17    15     1     0     0
SMALL
bcc


@<TRIPOS>ATOM
      1 P           0.2450   -2.6340    0.3460 p4        1 CCP      1.587000
      2 O1P         1.7550   -2.6340    0.3460 o         1 CCP     -0.963000
      3 O2P        -0.2590   -2.6340    1.7700 os        1 CCP     -1.283000
      4 O3P        -0.2590   -3.8670   -0.3660 o         1 CCP     -1.011800
      5 C1         -0.3610   -1.1510   -0.5100 c3        1 CCP     -0.273600
      6 C2          0.1440    0.0840    0.2030 c3        1 CCP     -0.058400
      7 C3         -0.3600    1.3190   -0.5100 c3        1 CCP     -0.076400
      8 C4          0.1440    2.5540    0.2030 c3        1 CCP     -0.080100
      9 H11        -0.0350   -1.1510   -1.4300 hc        1 CCP      0.008700
     10 H12        -1.3370   -1.1520   -0.5100 hc        1 CCP      0.008700
     11 H21        -0.1820    0.0840    1.1240 hc        1 CCP      0.060700
     12 H22         1.1200    0.0840    0.2030 hc        1 CCP      0.060700
     13 H31        -1.3370    1.3190   -0.5100 hc        1 CCP      0.004700
     14 H32        -0.0350    1.3190   -1.4300 hc        1 CCP      0.004700
     15 H41        -0.1820    2.5540    1.1240 hc        1 CCP      0.003700
     16 H42         1.1200    2.5540    0.2030 hc        1 CCP      0.003700
     17 H43        -0.1820    3.3510   -0.2570 hc        1 CCP      0.003700
@<TRIPOS>BOND
     1    1    2 1   
     2    1    4 2   
     3    1    5 1   
     4    5    6 1   
     5    5    9 1   
     6    5   10 1   
     7    6    7 1   
     8    6   11 1   
     9    6   12 1   
    10    7    8 1   
    11    7   13 1   
    12    7   14 1   
    13    8   15 1   
    14    8   16 1   
    15    8   17 1   
@<TRIPOS>SUBSTRUCTURE
     1 CCP         1 TEMP              0 ****  ****    0 ROOT
