@<TRIPOS>MOLECULE
CCP
   17    16     1     0     0
SMALL
bcc


@<TRIPOS>ATOM
      1 P          -0.0910    0.0590   -1.1830 p5        1 CCP      1.218700
      2 O1P        -0.4230    1.5310   -1.0450 o         1 CCP     -0.963167
      3 O2P         0.8550   -0.2740   -2.3160 o         1 CCP     -0.963167
      4 O3P        -1.2860   -0.8660   -1.0620 o         1 CCP     -0.963167
      5 C1          0.8850   -0.3020    0.3010 c3        1 CCP     -0.273600
      6 C2         -0.0380    0.0220    1.4210 c3        1 CCP     -0.058400
      7 C3          0.5590   -0.2030    2.7990 c3        1 CCP     -0.076400
      8 C4         -0.4110    0.1390    3.9020 c3        1 CCP     -0.080100
      9 H11         1.7940    0.3300    0.2990 hc        1 CCP      0.008700
     10 H12         1.1830   -1.3690    0.2870 hc        1 CCP      0.008700
     11 H21        -0.9640   -0.6040    1.2920 hc        1 CCP      0.060700
     12 H22        -0.3520    1.0960    1.3040 hc        1 CCP      0.060700
     13 H31         1.4840    0.4220    2.9110 hc        1 CCP      0.004700
     14 H32         0.8730   -1.2750    2.8990 hc        1 CCP      0.004700
     15 H41         0.0430   -0.0320    4.9090 hc        1 CCP      0.003700
     16 H42        -0.7180    1.2100    3.8320 hc        1 CCP      0.003700
     17 H43        -1.3300   -0.4900    3.8200 hc        1 CCP      0.003700
@<TRIPOS>BOND
     1    1    2 1   
     2    1    3 1   
     3    1    4 1   
     4    1    5 1   
     5    5    6 1   
     6    5    9 1   
     7    5   10 1   
     8    6    7 1   
     9    6   11 1   
    10    6   12 1   
    11    7    8 1   
    12    7   13 1   
    13    7   14 1   
    14    8   15 1   
    15    8   16 1   
    16    8   17 1   
@<TRIPOS>SUBSTRUCTURE
     1 CCP         1 TEMP              0 ****  ****    0 ROOT
