@<TRIPOS>MOLECULE
CCP
   17    16     1     0     0
SMALL
bcc


@<TRIPOS>ATOM
      1 P           0.0310   -0.0180   -0.0980 p5        1 CCP      1.218700
      2 O1P         1.5290    0.1600   -0.2360 o         1 CCP     -0.963167
      3 O2P        -0.4790   -0.0090    1.3270 o         1 CCP     -0.963167
      4 O3P        -0.5540   -1.1070   -0.9740 o         1 CCP     -0.963167
      5 C1         -0.6490    1.5090   -0.7990 c3        1 CCP     -0.273600
      6 C2         -0.1530    1.5090   -2.2010 c3        1 CCP     -0.058400
      7 C3         -0.5950    2.7120   -3.0140 c3        1 CCP     -0.076400
      8 C4         -0.0690    2.6690   -4.4260 c3        1 CCP     -0.080100
      9 H11        -1.7550    1.4750   -0.7370 hc        1 CCP      0.008700
     10 H12        -0.2780    2.3730   -0.2140 hc        1 CCP      0.008700
     11 H21         0.9710    1.4580   -2.1640 hc        1 CCP      0.060700
     12 H22        -0.5070    0.5590   -2.6880 hc        1 CCP      0.060700
     13 H31        -0.2420    3.6510   -2.5130 hc        1 CCP      0.004700
     14 H32        -1.7160    2.7550   -3.0360 hc        1 CCP      0.004700
     15 H41        -0.4030    3.5610   -5.0120 hc        1 CCP      0.003700
     16 H42         1.0480    2.6490   -4.4240 hc        1 CCP      0.003700
     17 H43        -0.4300    1.7510   -4.9490 hc        1 CCP      0.003700
@<TRIPOS>BOND
     1    1    2 1   
     2    1    3 1   
     3    1    4 1   
     4    1    5 1   
     5    5    6 1   
     6    5    9 1   
     7    5   10 1   
     8    6    7 1   
     9    6   11 1   
    10    6   12 1   
    11    7    8 1   
    12    7   13 1   
    13    7   14 1   
    14    8   15 1   
    15    8   16 1   
    16    8   17 1   
@<TRIPOS>SUBSTRUCTURE
     1 CCP         1 TEMP              0 ****  ****    0 ROOT
