@<TRIPOS>MOLECULE
CCR
   80    73     1     0     0
SMALL
bcc


@<TRIPOS>ATOM
      1 S20         3.6340    0.3450    1.8530 ss        1 CCR      2.855000
      2 O21         3.5110    1.0440    3.1160 o         1 CCR     -0.962000
      3 O22         4.0640   -0.9640    2.2970 o         1 CCR     -0.962000
      4 C11         4.9130    1.1400    0.7630 c1        1 CCR     -0.828000
      5 C12         4.8040    2.4770    0.4300 c2        1 CCR      0.093000
      6 C13         5.7750    3.0800   -0.3900 c1        1 CCR     -0.138000
      7 C14         6.8470    2.3280   -0.8660 c1        1 CCR      0.134000
      8 C15         6.9560    0.9810   -0.5290 c1        1 CCR     -0.255000
      9 C16         5.9920    0.3850    0.2830 c1        1 CCR      0.086000
     10 C17         3.6590    3.3210    1.0170 c3        1 CCR     -0.254000
     11 C18         5.6080    4.5390   -0.8310 c3        1 CCR     -0.167000
     12 C10         6.1570   -1.0540    0.7150 c3        1 CCR     -0.208000
     13 O11         7.7380    2.8920   -1.8170 os        1 CCR     -0.212000
     14 C19         9.0210    3.2210   -1.2860 c3        1 CCR     -0.075000
     15 N23         2.1350    0.2640    1.0440 n2        1 CCR     -0.881000
     16 C30         0.9800   -0.3010    1.7140 c3        1 CCR      0.061000
     17 C35         0.0530   -0.9550    0.6770 c1        1 CCR      0.282000
     18 O36         0.5280   -1.4760   -0.3240 o         1 CCR     -0.374000
     19 C31         0.2360    0.7850    2.4400 c3        1 CCR     -0.239000
     20 C32         1.1450    1.4030    3.5000 c2        1 CCR      0.338000
     21 O33         1.3930    0.7740    4.5550 o         1 CCR     -0.580500
     22 O34         1.5630    2.5930    3.3590 o         1 CCR     -0.580500
     23 N40        -1.4100   -1.0650    0.9500 n2        1 CCR     -0.371000
     24 C41        -2.3050   -1.4470   -0.0980 c3        1 CCR      0.018000
     25 C42        -1.5650   -2.3280   -1.1050 c2        1 CCR      0.302000
     26 O43        -0.5210   -2.8510   -0.7940 o         1 CCR     -0.395000
     27 C44        -3.4810   -2.2210    0.4900 c3        1 CCR     -0.141000
     28 C51        -4.5480   -1.2160    1.0290 c1        1 CCR     -0.080000
     29 C52        -5.0810   -1.3860    2.3050 c1        1 CCR     -0.124000
     30 C56        -5.0270   -0.2200    0.2150 c1        1 CCR     -0.133000
     31 C53        -6.0990   -0.5460    2.7520 c1        1 CCR     -0.124000
     32 C55        -6.0500    0.6240    0.6660 c1        1 CCR     -0.099000
     33 C54        -6.5790    0.4540    1.9340 c1        1 CCR     -0.102000
     34 C57        -7.7280    1.3760    2.4270 c2        1 CCR      0.128000
     35 N59        -8.9560    0.9890    2.3260 n1        1 CCR     -0.342000
     36 N58        -7.4290    2.6420    2.9880 n3        1 CCR     -0.325000
     37 N60        -2.0640   -2.4570   -2.4720 n         1 CCR     -0.314000
     38 C61        -1.3550   -3.2020   -3.5080 c3        1 CCR     -0.032500
     39 C62        -2.2450   -4.2240   -4.1970 c3        1 CCR     -0.176500
     40 C63        -3.5110   -3.6290   -4.6810 c3        1 CCR     -0.156000
     41 C64        -4.2220   -2.8660   -3.6030 c3        1 CCR     -0.176500
     42 C65        -3.3170   -1.8580   -2.9240 c3        1 CCR     -0.032500
     43 H151        7.7120    0.4510   -0.8650 ha        1 CCR      0.133000
     44 H171        2.8140    2.8110    0.9660 hc        1 CCR      0.129333
     45 H172        3.8570    3.5340    1.9560 hc        1 CCR      0.129333
     46 H173        3.5700    4.1490    0.5070 hc        1 CCR      0.129333
     47 H181        6.2280    4.7310   -1.5830 hc        1 CCR      0.086000
     48 H182        4.6850    4.6880   -1.1240 hc        1 CCR      0.086000
     49 H183        5.8120    5.1330   -0.0800 hc        1 CCR      0.086000
     50 H101        5.3290   -1.5390    0.5500 hc        1 CCR      0.103000
     51 H102        6.3670   -1.0860    1.6720 hc        1 CCR      0.103000
     52 H103        6.8910   -1.4710    0.2030 hc        1 CCR      0.103000
     53 H191        9.3650    2.4690   -0.7810 h1        1 CCR      0.080667
     54 H192        8.9400    4.0000   -0.6990 h1        1 CCR      0.080667
     55 H193        9.6420    3.4320   -2.0290 h1        1 CCR      0.080667
     56 H231        2.0710    0.5330    0.1700 hn        1 CCR      0.286000
     57 H301        1.2740   -0.9740    2.3550 h1        1 CCR      0.100000
     58 H311       -0.5520    0.4070    2.8690 hc        1 CCR      0.097000
     59 H312       -0.0400    1.4810    1.7980 hc        1 CCR      0.097000
     60 H401       -1.7220   -0.9870    1.8110 hn        1 CCR      0.253000
     61 H411       -2.6380   -0.6430   -0.5510 h1        1 CCR      0.128000
     62 H441       -3.8800   -2.7760   -0.2010 hc        1 CCR      0.108000
     63 H442       -3.1630   -2.7920    1.2280 hc        1 CCR      0.108000
     64 H521       -4.7890   -2.1220    2.8530 ha        1 CCR      0.146500
     65 H561       -4.6760   -0.1200   -0.6860 ha        1 CCR      0.127000
     66 H531       -6.4720   -0.6670    3.6390 ha        1 CCR      0.146500
     67 H551       -6.3480    1.3550    0.1160 ha        1 CCR      0.143000
     68 H591       -9.1470    0.1820    1.9680 DU        1 CCR      0.129000
     69 H581       -8.0760    3.2940    3.0210 hn        1 CCR      0.221500
     70 H582       -6.6180    2.7870    3.3760 hn        1 CCR      0.221500
     71 H611       -1.0160   -2.5670   -4.1820 h1        1 CCR      0.104000
     72 H612       -0.5960   -3.6660   -3.1000 h1        1 CCR      0.104000
     73 H621       -2.4530   -4.9370   -3.5680 hc        1 CCR      0.084000
     74 H622       -1.7580   -4.6060   -4.9640 hc        1 CCR      0.084000
     75 H631       -3.3130   -3.0220   -5.4240 hc        1 CCR      0.074500
     76 H632       -4.0910   -4.3400   -4.9990 hc        1 CCR      0.074500
     77 H641       -4.9800   -2.3960   -3.9960 hc        1 CCR      0.084000
     78 H642       -4.5510   -3.4940   -2.9370 hc        1 CCR      0.084000
     79 H651       -3.1140   -1.1410   -3.5540 h1        1 CCR      0.104000
     80 H652       -3.7820   -1.4820   -2.1570 h1        1 CCR      0.104000
@<TRIPOS>BOND
     1    1    2 1   
     2    1    3 1   
     3    4    5 1   
     4    4    9 1   
     5    5    6 1   
     6    5   10 1   
     7    6   11 1   
     8    7    8 1   
     9    7   13 1   
    10    8   43 1   
    11    9   12 1   
    12   10   44 1   
    13   10   45 1   
    14   10   46 1   
    15   11   47 1   
    16   11   48 1   
    17   11   49 1   
    18   12   50 1   
    19   12   51 1   
    20   12   52 1   
    21   13   14 1   
    22   14   53 1   
    23   14   54 1   
    24   14   55 1   
    25   15   16 1   
    26   15   56 1   
    27   16   17 1   
    28   16   19 1   
    29   16   57 1   
    30   17   18 1   
    31   19   20 1   
    32   19   58 1   
    33   19   59 1   
    34   20   21 1   
    35   20   22 1   
    36   23   24 1   
    37   23   60 1   
    38   24   25 1   
    39   24   27 1   
    40   24   61 1   
    41   25   26 1   
    42   25   37 1   
    43   27   28 1   
    44   27   62 1   
    45   27   63 1   
    46   28   30 1   
    47   29   31 1   
    48   29   64 1   
    49   30   65 1   
    50   31   66 1   
    51   32   33 1   
    52   32   67 1   
    53   33   34 1   
    54   34   35 1   
    55   34   36 1   
    56   36   69 1   
    57   36   70 1   
    58   37   38 1   
    59   37   42 1   
    60   38   39 1   
    61   38   71 1   
    62   38   72 1   
    63   39   40 1   
    64   39   73 1   
    65   39   74 1   
    66   40   41 1   
    67   40   75 1   
    68   40   76 1   
    69   41   42 1   
    70   41   77 1   
    71   41   78 1   
    72   42   79 1   
    73   42   80 1   
@<TRIPOS>SUBSTRUCTURE
     1 CCR         1 TEMP              0 ****  ****    0 ROOT
