@<TRIPOS>MOLECULE
CCR
   80    82     1     0     0
SMALL
bcc


@<TRIPOS>ATOM
      1 S20        -2.1950    3.1130    0.0530 sy        1 CCR      1.509200
      2 O21        -2.8030    4.1380    0.8250 o         1 CCR     -0.667800
      3 O22        -2.0500    3.4490   -1.3120 o         1 CCR     -0.667800
      4 C11        -3.1330    1.6920    0.1930 ca        1 CCR     -0.396500
      5 C12        -3.9030    1.4290    1.3490 ca        1 CCR      0.074700
      6 C13        -4.7360    0.3060    1.4390 ca        1 CCR     -0.145300
      7 C14        -4.7400   -0.6140    0.3680 ca        1 CCR      0.179100
      8 C15        -3.9580   -0.3960   -0.7640 ca        1 CCR     -0.239000
      9 C16        -3.1590    0.7490   -0.8530 ca        1 CCR      0.093700
     10 C17        -3.8450    2.3560    2.5130 c3        1 CCR     -0.079800
     11 C18        -5.5920    0.0590    2.6240 c3        1 CCR     -0.037800
     12 C10        -2.3540    0.9040   -2.0920 c3        1 CCR     -0.091800
     13 O11        -5.5640   -1.7140    0.5210 os        1 CCR     -0.334900
     14 C19        -5.4370   -2.7340   -0.4640 c3        1 CCR      0.113700
     15 N23        -0.7950    2.7110    0.7310 n3        1 CCR     -0.904100
     16 C30         0.3690    2.1880    0.0600 c3        1 CCR      0.187500
     17 C35         0.5370    0.6760    0.3810 c         1 CCR      0.648100
     18 O36         0.2760    0.2150    1.5140 o         1 CCR     -0.648100
     19 C31         1.6750    2.8890    0.4510 c3        1 CCR     -0.206400
     20 C32         2.7770    2.6680   -0.5960 c         1 CCR      0.923600
     21 O33         2.4870    2.1080   -1.6950 o         1 CCR     -0.855300
     22 O34         3.9410    3.0680   -0.3050 o         1 CCR     -0.855300
     23 N40         0.9550   -0.1300   -0.6580 n         1 CCR     -0.542900
     24 C41         1.1530   -1.5420   -0.4770 c3        1 CCR      0.059700
     25 C42        -0.0660   -2.3530   -1.0010 c         1 CCR      0.646100
     26 O43        -0.6840   -2.0040   -2.0260 o         1 CCR     -0.614100
     27 C44         2.3770   -2.1140   -1.2240 c3        1 CCR     -0.043100
     28 C51         3.6340   -1.4550   -0.7870 ca        1 CCR     -0.099300
     29 C52         4.3530   -1.9350    0.3150 ca        1 CCR     -0.128500
     30 C56         4.0790   -0.3080   -1.4500 ca        1 CCR     -0.128500
     31 C53         5.4610   -1.2380    0.7890 ca        1 CCR     -0.086000
     32 C55         5.1840    0.3970   -0.9750 ca        1 CCR     -0.086000
     33 C54         5.8600   -0.0480    0.1660 ca        1 CCR     -0.141900
     34 C57         6.9520    0.7830    0.7680 ce        1 CCR      0.676800
     35 N59         8.0030    0.1790    1.2570 n2        1 CCR     -0.887100
     36 N58         6.7380    2.1660    0.6920 nh        1 CCR     -0.975800
     37 N60        -0.5010   -3.4730   -0.2910 n         1 CCR     -0.467800
     38 C61        -1.6520   -4.2170   -0.7580 c3        1 CCR      0.088000
     39 C62        -1.3250   -5.6320   -1.2420 c3        1 CCR     -0.103400
     40 C63        -0.5250   -6.3900   -0.2040 c3        1 CCR     -0.075400
     41 C64         0.6950   -5.6010    0.2210 c3        1 CCR     -0.103400
     42 C65         0.3120   -4.1840    0.6660 c3        1 CCR      0.088000
     43 H151       -3.9400   -1.1220   -1.5900 ha        1 CCR      0.144000
     44 H171       -4.4550    3.2720    2.2980 hc        1 CCR      0.059033
     45 H172       -4.2270    1.8810    3.4480 hc        1 CCR      0.059033
     46 H173       -2.7950    2.6830    2.7160 hc        1 CCR      0.059033
     47 H181       -6.1820    0.9750    2.8790 hc        1 CCR      0.041367
     48 H182       -6.3120   -0.7750    2.4360 hc        1 CCR      0.041367
     49 H183       -4.9640   -0.2170    3.5080 hc        1 CCR      0.041367
     50 H101       -1.2990    1.1950   -1.8570 hc        1 CCR      0.072033
     51 H102       -2.3110   -0.0560   -2.6670 hc        1 CCR      0.072033
     52 H103       -2.7950    1.7040   -2.7400 hc        1 CCR      0.072033
     53 H191       -5.7860   -2.3640   -1.4580 h1        1 CCR      0.043367
     54 H192       -4.3810   -3.0970   -0.5290 h1        1 CCR      0.043367
     55 H193       -6.1110   -3.5440   -0.0870 h1        1 CCR      0.043367
     56 H231       -0.6880    2.7020    1.7200 hn        1 CCR      0.451800
     57 H301        0.2360    2.3380   -1.0590 h1        1 CCR      0.117700
     58 H311        1.5100    3.9930    0.5300 hc        1 CCR      0.053700
     59 H312        2.0340    2.5200    1.4440 hc        1 CCR      0.053700
     60 H401        1.3790    0.3120   -1.4540 hn        1 CCR      0.368500
     61 H411        1.2760   -1.7200    0.6360 h1        1 CCR      0.091700
     62 H441        2.2320   -1.9770   -2.3300 hc        1 CCR      0.054200
     63 H442        2.4200   -3.2160   -1.0180 hc        1 CCR      0.054200
     64 H521        4.0250   -2.8520    0.8250 ha        1 CCR      0.141000
     65 H561        3.5170    0.1050   -2.3060 ha        1 CCR      0.141000
     66 H531        6.0100   -1.6130    1.6650 ha        1 CCR      0.156500
     67 H551        5.4520    1.3430   -1.4760 ha        1 CCR      0.156500
     68 H591        8.6900    0.7780    1.6640 hn        1 CCR      0.359400
     69 H581        5.8310    2.4780    0.4010 hn        1 CCR      0.429800
     70 H582        7.1990    2.7390    1.3550 hn        1 CCR      0.429800
     71 H611       -2.3770   -4.2910    0.1050 h1        1 CCR      0.055200
     72 H612       -2.1550   -3.6480   -1.5900 h1        1 CCR      0.055200
     73 H621       -2.2870   -6.1670   -1.4500 hc        1 CCR      0.045450
     74 H622       -0.7490   -5.5800   -2.2010 hc        1 CCR      0.045450
     75 H631       -1.1700   -6.5880    0.6930 hc        1 CCR      0.035700
     76 H632       -0.2090   -7.3820   -0.6170 hc        1 CCR      0.035700
     77 H641        1.2050   -6.1130    1.0760 hc        1 CCR      0.045450
     78 H642        1.4250   -5.5450   -0.6280 hc        1 CCR      0.045450
     79 H651        1.2590   -3.6220    0.8910 h1        1 CCR      0.055200
     80 H652       -0.2800   -4.2590    1.6250 h1        1 CCR      0.055200
@<TRIPOS>BOND
     1    1    2 2   
     2    1    3 2   
     3    1    4 1   
     4    1   15 1   
     5    4    5 ar  
     6    4    9 ar  
     7    5    6 ar  
     8    5   10 1   
     9    6    7 ar  
    10    6   11 1   
    11    7    8 ar  
    12    7   13 1   
    13    8    9 ar  
    14    8   43 1   
    15    9   12 1   
    16   10   44 1   
    17   10   45 1   
    18   10   46 1   
    19   11   47 1   
    20   11   48 1   
    21   11   49 1   
    22   12   50 1   
    23   12   51 1   
    24   12   52 1   
    25   13   14 1   
    26   14   53 1   
    27   14   54 1   
    28   14   55 1   
    29   15   16 1   
    30   15   56 1   
    31   16   17 1   
    32   16   19 1   
    33   16   57 1   
    34   17   18 2   
    35   17   23 1   
    36   19   20 1   
    37   19   58 1   
    38   19   59 1   
    39   20   21 1   
    40   20   22 1   
    41   23   24 1   
    42   23   60 1   
    43   24   25 1   
    44   24   27 1   
    45   24   61 1   
    46   25   26 2   
    47   25   37 1   
    48   27   28 1   
    49   27   62 1   
    50   27   63 1   
    51   28   29 ar  
    52   28   30 ar  
    53   29   31 ar  
    54   29   64 1   
    55   30   32 ar  
    56   30   65 1   
    57   31   33 ar  
    58   31   66 1   
    59   32   33 ar  
    60   32   67 1   
    61   33   34 1   
    62   34   35 2   
    63   34   36 1   
    64   35   68 1   
    65   36   69 1   
    66   36   70 1   
    67   37   38 1   
    68   37   42 1   
    69   38   39 1   
    70   38   71 1   
    71   38   72 1   
    72   39   40 1   
    73   39   73 1   
    74   39   74 1   
    75   40   41 1   
    76   40   75 1   
    77   40   76 1   
    78   41   42 1   
    79   41   77 1   
    80   41   78 1   
    81   42   79 1   
    82   42   80 1   
@<TRIPOS>SUBSTRUCTURE
     1 CCR         1 TEMP              0 ****  ****    0 ROOT
