@<TRIPOS>MOLECULE
CCS
   18    17     1     0     0
SMALL
bcc


@<TRIPOS>ATOM
      1 N           1.7560    0.0620    1.8890 n3        1 CCS     -0.905800
      2 CA          0.3480    0.4140    1.9120 c3        1 CCS      0.050500
      3 CB         -0.4620   -0.0440    0.6990 c3        1 CCS     -0.017300
      4 SG          0.2290    0.5920   -0.8160 ss        1 CCS     -0.359200
      5 CD         -0.6040   -0.4280   -2.0050 c3        1 CCS     -0.103300
      6 CE         -0.2160   -0.0970   -3.4550 c         1 CCS      0.925600
      7 OZ1         0.7550   -0.7180   -3.9760 o         1 CCS     -0.850800
      8 OZ2        -0.9350    0.7240   -4.0960 o         1 CCS     -0.850800
      9 C          -0.3820   -0.1460    3.1800 c         1 CCS      0.914600
     10 O          -0.0980   -1.3150    3.5740 o         1 CCS     -0.853800
     11 OXT        -1.2300    0.6020    3.7440 o         1 CCS     -0.853800
     12 H           2.0640   -0.0260    0.9360 hn        1 CCS      0.338800
     13 H2          1.8750   -0.8290    2.3400 hn        1 CCS      0.338800
     14 HA          0.2980    1.5410    1.9600 h1        1 CCS      0.051700
     15 HB2        -0.4900   -1.1600    0.6570 h1        1 CCS      0.052700
     16 HB3        -1.5090    0.3220    0.8160 h1        1 CCS      0.052700
     17 HD2        -0.3530   -1.4960   -1.8060 h1        1 CCS      0.036200
     18 HD3        -1.7040   -0.2910   -1.8910 h1        1 CCS      0.036200
@<TRIPOS>BOND
     1    1    2 1   
     2    1   12 1   
     3    1   13 1   
     4    2    3 1   
     5    2    9 1   
     6    2   14 1   
     7    3    4 1   
     8    3   15 1   
     9    3   16 1   
    10    4    5 1   
    11    5    6 1   
    12    5   17 1   
    13    5   18 1   
    14    6    7 1   
    15    6    8 1   
    16    9   10 1   
    17    9   11 1   
@<TRIPOS>SUBSTRUCTURE
     1 CCS         1 TEMP              0 ****  ****    0 ROOT
