@<TRIPOS>MOLECULE
CCT
   41    43     1     0     0
SMALL
bcc


@<TRIPOS>ATOM
      1 C1          0.5690   -1.3080    0.0940 ca        1 CCT     -0.088000
      2 C2          1.8970   -0.8590    0.0920 ca        1 CCT     -0.010000
      3 C3          2.3830   -0.1110    1.1750 ca        1 CCT     -0.088000
      4 C4          1.5460    0.1840    2.2460 ca        1 CCT     -0.121000
      5 C5          0.2140   -0.2630    2.2550 ca        1 CCT      0.002000
      6 C6         -0.2650   -1.0120    1.1690 ca        1 CCT     -0.121000
      7 C7         -1.5800    0.5450    5.5710 cc        1 CCT     -0.315700
      8 C8         -2.5950    0.4520    4.5990 cd        1 CCT      0.198600
      9 C9         -2.0300    0.1480    3.3100 cd        1 CCT     -0.190000
     10 C10        -0.6480    0.0440    3.3730 cc        1 CCT     -0.049100
     11 S11        -0.0700    0.3040    4.9170 ss        1 CCT      0.167200
     12 C12         2.7500   -1.1600   -1.0040 cg        1 CCT      0.229800
     13 N13         3.4480   -1.4060   -1.9010 n1        1 CCT     -0.353800
     14 O15        -1.2880    1.7300    7.6600 o         1 CCT     -0.476000
     15 O16        -2.7690    0.1360    7.6480 oh        1 CCT     -0.589100
     16 S18        -5.1790    0.7850    3.7650 sy        1 CCT      1.519200
     17 C19        -5.5610    3.4010    4.4480 ca        1 CCT      0.061700
     18 C20        -5.2300    2.4390    3.4770 ca        1 CCT     -0.402500
     19 C21        -4.9500    2.8770    2.1710 ca        1 CCT     -0.021000
     20 C22        -5.0000    4.2210    1.8270 ca        1 CCT     -0.159000
     21 C23        -5.3320    5.1680    2.7990 ca        1 CCT     -0.053000
     22 C24        -5.6100    4.7580    4.0980 ca        1 CCT     -0.160000
     23 O26        -6.3460    0.3620    4.4280 o         1 CCT     -0.644800
     24 O27        -4.8660    0.1130    2.5660 o         1 CCT     -0.644800
     25 H1          0.1850   -1.8960   -0.7540 ha        1 CCT      0.150500
     26 H3          3.4250    0.2450    1.1750 ha        1 CCT      0.150500
     27 H4          1.9300    0.7790    3.0900 ha        1 CCT      0.148000
     28 H6         -1.3060   -1.3710    1.1680 ha        1 CCT      0.148000
     29 H9         -2.6290    0.0090    2.4020 ha        1 CCT      0.197000
     30 H17        -4.1500    0.7710    5.8190 hn        1 CCT      0.457800
     31 H21        -4.6900    2.1290    1.3980 ha        1 CCT      0.162000
     32 H22        -4.7800    4.5380    0.7970 ha        1 CCT      0.145000
     33 H23        -5.3730    6.2370    2.5360 ha        1 CCT      0.141000
     34 H24        -5.8720    5.5050    4.8640 ha        1 CCT      0.144000
     35 H251       -6.4360    2.0740    5.9180 hc        1 CCT      0.069367
     36 H252       -4.8970    2.9150    6.4260 hc        1 CCT      0.069367
     37 H253       -6.4560    3.8270    6.3570 hc        1 CCT      0.069367
     38 N17        -3.9440    0.6410    4.8490 nh        1 CCT     -0.746500
     39 H172       -2.9980   -0.6620    7.1490 ho        1 CCT      0.434000
     40 C14        -1.8180    0.8580    6.9720 c         1 CCT      0.676700
     41 C25        -5.8540    3.0290    5.8540 c3        1 CCT     -0.107800
@<TRIPOS>BOND
     1    1    2 ar  
     2    1    6 ar  
     3    1   25 1   
     4    2    3 ar  
     5    2   12 1   
     6    3    4 ar  
     7    3   26 1   
     8    4    5 ar  
     9    4   27 1   
    10    5    6 ar  
    11    5   10 1   
    12    6   28 1   
    13    7    8 2   
    14    7   11 1   
    15    7   40 1   
    16    8    9 1   
    17    8   38 1   
    18    9   10 2   
    19    9   29 1   
    20   10   11 1   
    21   12   13 3   
    22   14   40 2   
    23   15   39 1   
    24   15   40 1   
    25   16   18 1   
    26   16   23 2   
    27   16   24 2   
    28   16   38 1   
    29   17   18 ar  
    30   17   22 ar  
    31   17   41 1   
    32   18   19 ar  
    33   19   20 ar  
    34   19   31 1   
    35   20   21 ar  
    36   20   32 1   
    37   21   22 ar  
    38   21   33 1   
    39   22   34 1   
    40   30   38 1   
    41   35   41 1   
    42   36   41 1   
    43   37   41 1   
@<TRIPOS>SUBSTRUCTURE
     1 CCT         1 TEMP              0 ****  ****    0 ROOT
