@<TRIPOS>MOLECULE
CCT
   40    42     1     0     0
SMALL
bcc


@<TRIPOS>ATOM
      1 C1          4.8460   -0.4760   -1.5650 ca        1 CCT     -0.082000
      2 C2          5.6720   -1.3580   -0.8540 ca        1 CCT     -0.064000
      3 C3          5.1220   -2.1550    0.1610 ca        1 CCT     -0.082000
      4 C4          3.7680   -2.0690    0.4560 ca        1 CCT     -0.151000
      5 C5          2.9270   -1.1870   -0.2510 ca        1 CCT      0.078000
      6 C6          3.4920   -0.3920   -1.2650 ca        1 CCT     -0.151000
      7 C7         -0.6870   -1.3350    1.1030 cc        1 CCT     -0.164700
      8 C8         -0.7330   -0.5360   -0.0490 cd        1 CCT      0.097600
      9 C9          0.5660   -0.4110   -0.6490 cd        1 CCT     -0.148000
     10 C10         1.5280   -1.1090    0.0700 cc        1 CCT     -0.160100
     11 S11         0.8480   -1.8830    1.3990 ss        1 CCT      0.120200
     12 C12         7.0560   -1.4450   -1.1580 cg        1 CCT      0.256800
     13 N13         8.1910   -1.5150   -1.4080 n1        1 CCT     -0.408800
     14 O15        -1.6340   -2.3190    3.0480 o         1 CCT     -0.817800
     15 O16        -3.0220   -1.3390    1.6030 o         1 CCT     -0.817800
     16 S18        -2.0270    1.4650   -1.2820 sy        1 CCT      1.494200
     17 C19        -2.9220    2.6380    1.0300 ca        1 CCT      0.077700
     18 C20        -1.9780    2.5940   -0.0090 ca        1 CCT     -0.370500
     19 C21        -0.9380    3.5360   -0.0120 ca        1 CCT     -0.024000
     20 C22        -0.8290    4.5030    0.9790 ca        1 CCT     -0.179000
     21 C23        -1.7710    4.5400    2.0100 ca        1 CCT     -0.075000
     22 C24        -2.8080    3.6160    2.0330 ca        1 CCT     -0.170000
     23 O26        -3.2890    1.5560   -1.9250 o         1 CCT     -0.671800
     24 O27        -0.9260    1.7360   -2.1400 o         1 CCT     -0.671800
     25 H1          5.2720    0.1520   -2.3620 ha        1 CCT      0.134000
     26 H3          5.7640   -2.8490    0.7230 ha        1 CCT      0.134000
     27 H4          3.3420   -2.6990    1.2530 ha        1 CCT      0.147000
     28 H6          2.8530    0.3070   -1.8270 ha        1 CCT      0.147000
     29 H9          0.7460    0.1690   -1.5600 ha        1 CCT      0.171000
     30 H17        -2.7150   -0.4400   -0.1980 hn        1 CCT      0.508800
     31 H21        -0.1900    3.5020   -0.8250 ha        1 CCT      0.155000
     32 H22        -0.0050    5.2290    0.9560 ha        1 CCT      0.126000
     33 H23        -1.6890    5.2970    2.8040 ha        1 CCT      0.120000
     34 H24        -3.5470    3.6370    2.8480 ha        1 CCT      0.133000
     35 H251       -4.4580    1.4350    0.1060 hc        1 CCT      0.083033
     36 H252       -3.6750    0.7020    1.5820 hc        1 CCT      0.083033
     37 H253       -4.8630    2.0630    1.7550 hc        1 CCT      0.083033
     38 C14        -1.8650   -1.6890    1.9820 c         1 CCT      0.941200
     39 N17        -1.8970    0.0340   -0.5670 nh        1 CCT     -0.750500
     40 C25        -4.0360    1.6650    1.1170 c3        1 CCT     -0.130800
@<TRIPOS>BOND
     1    1    2 ar  
     2    1    6 ar  
     3    1   25 1   
     4    2    3 ar  
     5    2   12 1   
     6    3    4 ar  
     7    3   26 1   
     8    4    5 ar  
     9    4   27 1   
    10    5    6 ar  
    11    5   10 1   
    12    6   28 1   
    13    7    8 2   
    14    7   11 1   
    15    7   38 1   
    16    8    9 1   
    17    8   39 1   
    18    9   10 2   
    19    9   29 1   
    20   10   11 1   
    21   12   13 3   
    22   14   38 1   
    23   15   38 1   
    24   16   18 1   
    25   16   23 2   
    26   16   24 2   
    27   16   39 1   
    28   17   18 ar  
    29   17   22 ar  
    30   17   40 1   
    31   18   19 ar  
    32   19   20 ar  
    33   19   31 1   
    34   20   21 ar  
    35   20   32 1   
    36   21   22 ar  
    37   21   33 1   
    38   22   34 1   
    39   30   39 1   
    40   35   40 1   
    41   36   40 1   
    42   37   40 1   
@<TRIPOS>SUBSTRUCTURE
     1 CCT         1 TEMP              0 ****  ****    0 ROOT
