@<TRIPOS>MOLECULE
CCT
   40    31     1     0     0
SMALL
bcc


@<TRIPOS>ATOM
      1 C1          4.7910   -0.3850   -3.8090 c1        1 CCT     -0.066000
      2 C2          4.2890   -1.1740   -4.8330 cg        1 CCT     -0.060000
      3 C3          3.0960   -1.8580   -4.6600 c1        1 CCT     -0.025500
      4 C4          2.4040   -1.7540   -3.4640 c1        1 CCT     -0.026000
      5 C5          2.9060   -0.9660   -2.4390 c1        1 CCT     -0.368500
      6 C6          4.0990   -0.2810   -2.6120 c1        1 CCT     -0.066000
      7 C7          1.5410   -1.2730    1.1450 c1        1 CCT     -0.196900
      8 C8          0.8400   -0.1000    0.6550 cg        1 CCT     -0.066000
      9 C9          1.2760    0.1480   -0.8560 cg        1 CCT     -0.066000
     10 C10         2.2280   -0.8830   -1.2320 c1        1 CCT     -0.196900
     11 S11         2.4340   -1.8110   -0.0040 ss        1 CCT      0.209800
     12 C12         5.0260   -1.2600   -6.1500 cg        1 CCT      0.252800
     13 N13         5.5820   -1.3260   -7.1440 n1        1 CCT     -0.408800
     14 C14         1.4720   -1.8270    2.5500 c1        1 CCT      0.857000
     15 O15         0.7890   -2.8550    2.7870 o         1 CCT     -0.786000
     16 O16         2.1330   -1.2840    3.4740 o         1 CCT     -0.786000
     17 N17        -0.0710    0.6920    1.3960 n2        1 CCT     -0.668000
     18 S18        -1.4090    0.0080    2.0490 s4        1 CCT      1.673400
     19 C19        -4.0150    0.7840    2.3920 c1        1 CCT      0.111900
     20 C20        -2.7160    1.2000    2.1590 c1        1 CCT     -0.368500
     21 C21        -2.4330    2.5520    2.0350 c1        1 CCT     -0.026000
     22 C22        -3.4500    3.4850    2.1440 c1        1 CCT     -0.066000
     23 C23        -4.7510    3.0680    2.3770 c1        1 CCT     -0.066000
     24 C24        -5.0340    1.7180    2.5010 c1        1 CCT     -0.112500
     25 C25        -4.3190   -0.6840    2.5420 c3        1 CCT     -0.165000
     26 O26        -1.1250   -0.5740    3.3320 o         1 CCT     -0.559400
     27 O27        -1.8200   -1.1490    1.3040 o         1 CCT     -0.559400
     28 H1          5.6350    0.0890   -3.9270 ha        1 CCT      0.073500
     29 H3          2.7440   -2.4160   -5.3800 ha        1 CCT      0.076500
     30 H4          1.5710   -2.2470   -3.3370 ha        1 CCT      0.095000
     31 H6          4.5850    0.2990   -1.9930 ha        1 CCT      0.073500
     32 H9          0.9620    0.8710   -1.4300 DU        1 CCT      0.171000
     33 H17         0.0880    1.5830    1.5110 hn        1 CCT      0.548400
     34 H21        -1.5160    2.8460    1.8670 ha        1 CCT      0.095000
     35 H22        -3.2450    4.4380    2.0900 ha        1 CCT      0.073500
     36 H23        -5.4640    3.7270    2.4790 ha        1 CCT      0.073500
     37 H24        -5.9680    1.6090    2.7650 ha        1 CCT      0.075500
     38 H251       -3.8900   -1.0260    3.3530 hc        1 CCT      0.083033
     39 H252       -3.9780   -1.1700    1.7620 hc        1 CCT      0.083033
     40 H253       -5.2880   -0.8110    2.6070 hc        1 CCT      0.083033
@<TRIPOS>BOND
     1    1    6 3   
     2    1   28 1   
     3    2    3 3   
     4    2   12 1   
     5    3   29 1   
     6    4    5 3   
     7    4   30 1   
     8    6   31 1   
     9    7    8 3   
    10    7   11 1   
    11    8    9 1   
    12    9   10 3   
    13   10   11 1   
    14   12   13 3   
    15   14   15 2   
    16   14   16 2   
    17   17   18 2   
    18   17   33 1   
    19   18   26 1   
    20   18   27 1   
    21   19   24 3   
    22   19   25 1   
    23   20   21 3   
    24   21   34 1   
    25   22   23 3   
    26   22   35 1   
    27   23   36 1   
    28   24   37 1   
    29   25   38 1   
    30   25   39 1   
    31   25   40 1   
@<TRIPOS>SUBSTRUCTURE
     1 CCT         1 TEMP              0 ****  ****    0 ROOT
