@<TRIPOS>MOLECULE
CCT
   40    42     1     0     0
SMALL
bcc


@<TRIPOS>ATOM
      1 C1          0.1970   -1.4220    0.0310 ca        1 CCT     -0.082000
      2 C2          1.5890   -1.2540    0.0650 ca        1 CCT     -0.064000
      3 C3          2.1820   -0.6150    1.1640 ca        1 CCT     -0.082000
      4 C4          1.3930   -0.1540    2.2090 ca        1 CCT     -0.151000
      5 C5         -0.0060   -0.3170    2.1880 ca        1 CCT      0.078000
      6 C6         -0.5890   -0.9580    1.0790 ca        1 CCT     -0.151000
      7 C7         -1.6310    1.2600    5.3170 cc        1 CCT     -0.164700
      8 C8         -2.6550    0.5750    4.6470 cd        1 CCT      0.097600
      9 C9         -2.1650   -0.0630    3.4580 cd        1 CCT     -0.148000
     10 C10        -0.8070    0.1690    3.2780 cc        1 CCT     -0.160100
     11 S11        -0.1840    1.1090    4.5250 ss        1 CCT      0.120200
     12 C12         2.3930   -1.7270   -1.0050 cg        1 CCT      0.256800
     13 N13         3.0520   -2.1140   -1.8830 n1        1 CCT     -0.408800
     14 O15        -0.7880    2.6940    7.0140 o         1 CCT     -0.817800
     15 O16        -2.8930    1.9830    7.2110 o         1 CCT     -0.817800
     16 S18        -5.2980    0.4790    4.1900 sy        1 CCT      1.494200
     17 C19        -5.7140    3.1580    4.6010 ca        1 CCT      0.077700
     18 C20        -5.5100    2.0960    3.7050 ca        1 CCT     -0.370500
     19 C21        -5.4870    2.3740    2.3290 ca        1 CCT     -0.024000
     20 C22        -5.6660    3.6620    1.8430 ca        1 CCT     -0.179000
     21 C23        -5.8670    4.7130    2.7410 ca        1 CCT     -0.075000
     22 C24        -5.8920    4.4610    4.1070 ca        1 CCT     -0.170000
     23 O26        -6.4080    0.0910    4.9840 o         1 CCT     -0.671800
     24 O27        -5.1320   -0.3050    3.0140 o         1 CCT     -0.671800
     25 H1         -0.2740   -1.9220   -0.8290 ha        1 CCT      0.134000
     26 H3          3.2740   -0.4800    1.1970 ha        1 CCT      0.134000
     27 H4          1.8660    0.3450    3.0710 ha        1 CCT      0.147000
     28 H6         -1.6810   -1.0910    1.0410 ha        1 CCT      0.147000
     29 H9         -2.8040   -0.6520    2.7920 ha        1 CCT      0.171000
     30 H17        -4.0230    0.7160    6.0850 hn        1 CCT      0.508800
     31 H21        -5.3210    1.5420    1.6200 ha        1 CCT      0.155000
     32 H22        -5.6430    3.8550    0.7620 ha        1 CCT      0.126000
     33 H23        -6.0020    5.7390    2.3660 ha        1 CCT      0.120000
     34 H24        -6.0430    5.2890    4.8160 ha        1 CCT      0.133000
     35 H251       -4.6720    2.9140    6.4650 hc        1 CCT      0.083033
     36 H252       -6.2450    1.9980    6.3420 hc        1 CCT      0.083033
     37 H253       -6.2560    3.7920    6.5830 hc        1 CCT      0.083033
     38 C14        -1.7800    2.0350    6.6060 c         1 CCT      0.941200
     39 N17        -3.9740    0.4920    5.0970 nu        1 CCT     -0.750500
     40 C25        -5.7290    2.9520    6.0680 c3        1 CCT     -0.130800
@<TRIPOS>BOND
     1    1    2 ar  
     2    1    6 ar  
     3    1   25 1   
     4    2    3 ar  
     5    2   12 1   
     6    3    4 ar  
     7    3   26 1   
     8    4    5 ar  
     9    4   27 1   
    10    5    6 ar  
    11    5   10 1   
    12    6   28 1   
    13    7    8 2   
    14    7   11 1   
    15    7   38 1   
    16    8    9 1   
    17    8   39 1   
    18    9   10 2   
    19    9   29 1   
    20   10   11 1   
    21   12   13 3   
    22   14   38 1   
    23   15   38 1   
    24   16   18 1   
    25   16   23 2   
    26   16   24 2   
    27   16   39 1   
    28   17   18 ar  
    29   17   22 ar  
    30   17   40 1   
    31   18   19 ar  
    32   19   20 ar  
    33   19   31 1   
    34   20   21 ar  
    35   20   32 1   
    36   21   22 ar  
    37   21   33 1   
    38   22   34 1   
    39   30   39 1   
    40   35   40 1   
    41   36   40 1   
    42   37   40 1   
@<TRIPOS>SUBSTRUCTURE
     1 CCT         1 TEMP              0 ****  ****    0 ROOT
