@<TRIPOS>MOLECULE
CCT
   40    42     1     0     0
SMALL
bcc


@<TRIPOS>ATOM
      1 C1         -0.1220    0.0520    0.2240 ca        1 CCT     -0.081500
      2 C2          0.9730   -0.8210    0.3020 ca        1 CCT     -0.065000
      3 C3          1.3410   -1.3570    1.5450 ca        1 CCT     -0.081500
      4 C4          0.6240   -1.0250    2.6870 ca        1 CCT     -0.152500
      5 C5         -0.4790   -0.1510    2.6210 ca        1 CCT      0.079000
      6 C6         -0.8370    0.3820    1.3690 ca        1 CCT     -0.152500
      7 C7         -2.0070    0.4000    6.1240 cc        1 CCT     -0.161700
      8 C8         -2.8410    1.0790    5.2240 cd        1 CCT      0.096600
      9 C9         -2.3650    0.9500    3.8760 cd        1 CCT     -0.157000
     10 C10        -1.2090    0.1800    3.8140 cc        1 CCT     -0.165100
     11 S11        -0.7430   -0.3330    5.3450 ss        1 CCT      0.124200
     12 C12         1.7030   -1.1590   -0.8660 cg        1 CCT      0.255800
     13 N13         2.3020   -1.4370   -1.8250 n1        1 CCT     -0.408800
     14 O15        -3.0810    1.0660    8.1500 o         1 CCT     -0.812800
     15 O16        -1.4380   -0.4410    8.2720 o         1 CCT     -0.812800
     16 S18        -5.3220    2.0090    4.7720 sy        1 CCT      1.493200
     17 C19        -6.2720   -0.5420    4.2920 ca        1 CCT      0.056700
     18 C20        -6.2210    0.5990    5.1090 ca        1 CCT     -0.359500
     19 C21        -6.9570    0.6000    6.3030 ca        1 CCT     -0.013000
     20 C22        -7.7320   -0.4900    6.6830 ca        1 CCT     -0.163000
     21 C23        -7.7800   -1.6170    5.8620 ca        1 CCT     -0.074000
     22 C24        -7.0570   -1.6390    4.6750 ca        1 CCT     -0.171000
     23 O26        -5.0960    2.0980    3.3740 o         1 CCT     -0.671800
     24 O27        -6.0490    3.1040    5.3110 o         1 CCT     -0.671800
     25 H1         -0.4160    0.4770   -0.7480 ha        1 CCT      0.134000
     26 H3          2.2000   -2.0420    1.6150 ha        1 CCT      0.134000
     27 H4          0.9180   -1.4510    3.6590 ha        1 CCT      0.146500
     28 H6         -1.6930    1.0700    1.2950 ha        1 CCT      0.146500
     29 H9         -2.8700    1.4100    3.0200 ha        1 CCT      0.170000
     30 H17        -3.9250    2.0260    6.5940 hn        1 CCT      0.513800
     31 H21        -6.9190    1.4940    6.9540 ha        1 CCT      0.156000
     32 H22        -8.2920   -0.4670    7.6290 ha        1 CCT      0.132000
     33 H23        -8.3840   -2.4880    6.1560 ha        1 CCT      0.122000
     34 H24        -7.0900   -2.5310    4.0310 ha        1 CCT      0.127000
     35 H251       -5.9080    0.1330    2.2890 hc        1 CCT      0.061700
     36 H252       -5.5840   -1.6360    2.5660 hc        1 CCT      0.061700
     37 H253       -4.4310   -0.3820    3.1960 hc        1 CCT      0.061700
     38 C14        -2.1900    0.3360    7.6270 c         1 CCT      0.940200
     39 N17        -3.9630    1.8190    5.5990 nh        1 CCT     -0.752500
     40 C25        -5.5130   -0.6190    3.0210 c3        1 CCT     -0.084800
@<TRIPOS>BOND
     1    1    2 ar  
     2    1    6 ar  
     3    1   25 1   
     4    2    3 ar  
     5    2   12 1   
     6    3    4 ar  
     7    3   26 1   
     8    4    5 ar  
     9    4   27 1   
    10    5    6 ar  
    11    5   10 1   
    12    6   28 1   
    13    7    8 2   
    14    7   11 1   
    15    7   38 1   
    16    8    9 1   
    17    8   39 1   
    18    9   10 2   
    19    9   29 1   
    20   10   11 1   
    21   12   13 3   
    22   14   38 1   
    23   15   38 1   
    24   16   18 1   
    25   16   23 2   
    26   16   24 2   
    27   16   39 1   
    28   17   18 ar  
    29   17   22 ar  
    30   17   40 1   
    31   18   19 ar  
    32   19   20 ar  
    33   19   31 1   
    34   20   21 ar  
    35   20   32 1   
    36   21   22 ar  
    37   21   33 1   
    38   22   34 1   
    39   30   39 1   
    40   35   40 1   
    41   36   40 1   
    42   37   40 1   
@<TRIPOS>SUBSTRUCTURE
     1 CCT         1 TEMP              0 ****  ****    0 ROOT
