@<TRIPOS>MOLECULE
CCU
   14    13     1     0     0
SMALL
bcc


@<TRIPOS>ATOM
      1 C2         -0.0820   -0.0180    0.1440 ce        1 CCU     -0.240200
      2 C3          1.2480    0.1370    0.0840 cf        1 CCU     -0.126000
      3 C4          2.1660    0.0640    1.2010 cf        1 CCU     -0.126000
      4 C6          4.3880    0.5000   -0.0330 c         1 CCU      0.893800
      5 O4          3.9330    0.6340   -1.2090 o         1 CCU     -0.872300
      6 O3          5.6360    0.5990    0.2060 o         1 CCU     -0.872300
      7 C5          3.4950    0.2200    1.1410 ce        1 CCU     -0.240200
      8 C1         -0.9740   -0.2990    1.3170 c         1 CCU      0.893800
      9 O1         -0.5200   -0.4330    2.4940 o         1 CCU     -0.872300
     10 O2         -2.2230   -0.3970    1.0790 o         1 CCU     -0.872300
     11 H2         -0.6570    0.0650   -0.7970 ha        1 CCU      0.080000
     12 H3          1.7390    0.3430   -0.8900 ha        1 CCU      0.137000
     13 H4          1.6750   -0.1410    2.1750 ha        1 CCU      0.137000
     14 H5          4.0700    0.1360    2.0820 ha        1 CCU      0.080000
@<TRIPOS>BOND
     1    1    2 2   
     2    1    8 1   
     3    1   11 1   
     4    2    3 1   
     5    2   12 1   
     6    3    7 2   
     7    3   13 1   
     8    4    5 1   
     9    4    6 1   
    10    4    7 1   
    11    7   14 1   
    12    8    9 1   
    13    8   10 1   
@<TRIPOS>SUBSTRUCTURE
     1 CCU         1 TEMP              0 ****  ****    0 ROOT
