@<TRIPOS>MOLECULE
CCU
   14    10     1     0     0
SMALL
bcc


@<TRIPOS>ATOM
      1 C2         -1.4940    0.5480   -0.7530 c1        1 CCU     -0.173500
      2 C3         -0.1500    0.6040   -0.8190 c1        1 CCU     -0.173500
      3 C4          0.6690    0.6360    0.4540 c1        1 CCU     -0.126000
      4 C6          1.8060   -1.4250   -0.3250 c1        1 CCU      0.344000
      5 O4          1.1330   -2.4860   -0.2500 o         1 CCU     -0.624000
      6 O3          2.6580   -1.2830   -1.2400 os        1 CCU     -0.590000
      7 C5          1.5900   -0.3200    0.6860 c2        1 CCU     -0.221000
      8 C1         -2.1860    0.5170    0.5920 c1        1 CCU      0.344000
      9 O1         -2.5750    1.5890    1.1240 o         1 CCU     -0.607000
     10 O2         -2.3720   -0.5810    1.1790 o         1 CCU     -0.607000
     11 H2         -2.0220    0.5270   -1.5740 ha        1 CCU      0.108500
     12 H3          0.2970    0.6240   -1.6870 ha        1 CCU      0.108500
     13 H4          0.5300    1.3480    1.1060 ha        1 CCU      0.137000
     14 H5          2.1180   -0.2990    1.5070 ha        1 CCU      0.080000
@<TRIPOS>BOND
     1    1    2 1   
     2    1   11 1   
     3    2   12 1   
     4    3    7 1   
     5    3   13 1   
     6    4    5 1   
     7    4    7 1   
     8    7   14 1   
     9    8    9 1   
    10    8   10 1   
@<TRIPOS>SUBSTRUCTURE
     1 CCU         1 TEMP              0 ****  ****    0 ROOT
