@<TRIPOS>MOLECULE
CCU
   14    13     1     0     0
SMALL
bcc


@<TRIPOS>ATOM
      1 C2         -1.6150    0.9160   -0.0790 ce        1 CCU     -0.240200
      2 C3         -0.3010    0.6530   -0.0720 cf        1 CCU     -0.126000
      3 C4          0.3040   -0.6610   -0.0280 cf        1 CCU     -0.126000
      4 C6          2.7950    0.0070   -0.0570 c         1 CCU      0.893800
      5 O4          2.6570    1.2670   -0.1000 o         1 CCU     -0.872300
      6 O3          3.9520   -0.5290   -0.0420 o         1 CCU     -0.872300
      7 C5          1.6180   -0.9240   -0.0220 ce        1 CCU     -0.240200
      8 C1         -2.7920   -0.0150   -0.0440 c         1 CCU      0.893800
      9 O1         -2.6540   -1.2750    0.0010 o         1 CCU     -0.872300
     10 O2         -3.9490    0.5210   -0.0610 o         1 CCU     -0.872300
     11 H2         -1.9320    1.9750   -0.1150 ha        1 CCU      0.080000
     12 H3          0.4310    1.4860   -0.1030 ha        1 CCU      0.137000
     13 H4         -0.4290   -1.4940    0.0020 ha        1 CCU      0.137000
     14 H5          1.9350   -1.9830    0.0140 ha        1 CCU      0.080000
@<TRIPOS>BOND
     1    1    2 2   
     2    1    8 1   
     3    1   11 1   
     4    2    3 1   
     5    2   12 1   
     6    3    7 2   
     7    3   13 1   
     8    4    5 1   
     9    4    6 1   
    10    4    7 1   
    11    7   14 1   
    12    8    9 1   
    13    8   10 1   
@<TRIPOS>SUBSTRUCTURE
     1 CCU         1 TEMP              0 ****  ****    0 ROOT
