@<TRIPOS>MOLECULE
CCV
   29    29     1     0     0
SMALL
bcc


@<TRIPOS>ATOM
      1 N1          1.1320    0.4550    0.7710 n         1 CCV     -0.466100
      2 O1          2.6630   -0.0220    2.4280 o         1 CCV     -0.645500
      3 O2         -1.7930   -0.4820    3.4320 o         1 CCV     -0.616500
      4 N2          0.4200   -0.2460    2.9620 n         1 CCV     -0.584500
      5 C1          1.4640    0.0550    2.0790 c         1 CCV      0.803500
      6 C2         -0.9330   -0.1880    2.5840 c         1 CCV      0.717700
      7 C3         -1.2200    0.2190    1.1950 cc        1 CCV     -0.264400
      8 C4         -2.6410    0.2790    0.7970 c3        1 CCV     -0.035900
      9 C5         -0.1880    0.5260    0.3450 cd        1 CCV      0.103400
     10 C11        -0.4270    0.9780   -1.0690 c3        1 CCV     -0.051200
     11 C12        -0.3290   -0.1640   -2.0700 c3        1 CCV     -0.064700
     12 C13        -0.6870    0.3730   -3.4570 c3        1 CCV      0.126400
     13 C14         1.0510   -0.8170   -2.1030 c3        1 CCV      0.126400
     14 O3         -0.8610   -0.7500   -4.3060 oh        1 CCV     -0.614800
     15 O4          2.0420    0.2010   -2.0460 oh        1 CCV     -0.614800
     16 H1          1.8760    0.6240    0.1240 hn        1 CCV      0.369500
     17 H2          0.6650   -0.5140    3.8910 hn        1 CCV      0.352500
     18 H43        -3.2910   -0.1610    1.5960 hc        1 CCV      0.051367
     19 H42        -2.9590    1.3390    0.6320 hc        1 CCV      0.051367
     20 H41        -2.8090   -0.2920   -0.1510 hc        1 CCV      0.051367
     21 H112       -1.4510    1.4350   -1.1270 hc        1 CCV      0.075700
     22 H111        0.3150    1.7750   -1.3530 hc        1 CCV      0.075700
     23 H12        -1.0700   -0.9680   -1.7990 hc        1 CCV      0.080700
     24 H132       -1.6400    0.9660   -3.4120 h1        1 CCV      0.038700
     25 H131        0.1410    1.0270   -3.8410 h1        1 CCV      0.038700
     26 H142        1.1810   -1.5010   -1.2210 h1        1 CCV      0.038700
     27 H141        1.1530   -1.4140   -3.0490 h1        1 CCV      0.038700
     28 H3         -1.0620   -0.4040   -5.1830 ho        1 CCV      0.409500
     29 H4          2.8700   -0.2000   -2.3320 ho        1 CCV      0.409500
@<TRIPOS>BOND
     1    1    5 1   
     2    1    9 1   
     3    1   16 1   
     4    2    5 2   
     5    3    6 2   
     6    4    5 1   
     7    4    6 1   
     8    4   17 1   
     9    6    7 1   
    10    7    8 1   
    11    7    9 2   
    12    8   18 1   
    13    8   19 1   
    14    8   20 1   
    15    9   10 1   
    16   10   11 1   
    17   10   21 1   
    18   10   22 1   
    19   11   12 1   
    20   11   13 1   
    21   11   23 1   
    22   12   14 1   
    23   12   24 1   
    24   12   25 1   
    25   13   15 1   
    26   13   26 1   
    27   13   27 1   
    28   14   28 1   
    29   15   29 1   
@<TRIPOS>SUBSTRUCTURE
     1 CCV         1 TEMP              0 ****  ****    0 ROOT
