@<TRIPOS>MOLECULE
CCV
   29    29     1     0     0
SMALL
bcc


@<TRIPOS>ATOM
      1 N1         -0.0890   -0.0130    0.0090 ns        1 CCV     -0.466100
      2 O1          1.8720    0.0350   -1.2030 o         1 CCV     -0.645500
      3 O2          2.1810    0.1540    3.3760 o         1 CCV     -0.616500
      4 N2          2.0520    0.1120    1.1050 ns        1 CCV     -0.584500
      5 C1          1.3140    0.0440   -0.0840 c         1 CCV      0.803500
      6 C2          1.4460    0.1000    2.3740 c         1 CCV      0.717700
      7 C3         -0.0260    0.0210    2.4090 cc        1 CCV     -0.264400
      8 C4         -0.6630    0.0050    3.7420 c3        1 CCV     -0.035900
      9 C5         -0.7370   -0.0300    1.2370 cd        1 CCV      0.103400
     10 C11        -2.2390   -0.0790    1.2160 c3        1 CCV     -0.051200
     11 C12        -2.7750   -1.4980    1.0880 c3        1 CCV     -0.064700
     12 C13        -4.3010   -1.4510    1.1810 c3        1 CCV      0.126400
     13 C14        -2.3500   -2.1850   -0.2070 c3        1 CCV      0.126400
     14 O3         -4.7490   -2.7890    1.3410 oh        1 CCV     -0.614800
     15 O4         -2.4610   -1.2560   -1.2770 oh        1 CCV     -0.614800
     16 H1         -0.6150   -0.1100   -0.8360 hn        1 CCV      0.369500
     17 H2          3.0450    0.1670    1.0290 hn        1 CCV      0.352500
     18 H43        -1.2210    0.9600    3.9210 hc        1 CCV      0.051367
     19 H42         0.1100   -0.1030    4.5450 hc        1 CCV      0.051367
     20 H41        -1.3840   -0.8460    3.8260 hc        1 CCV      0.051367
     21 H112       -2.6230    0.3780    2.1690 hc        1 CCV      0.075700
     22 H111       -2.6370    0.5380    0.3630 hc        1 CCV      0.075700
     23 H12        -2.3870   -2.1250    1.9400 hc        1 CCV      0.080700
     24 H132       -4.6200   -0.8360    2.0650 h1        1 CCV      0.038700
     25 H131       -4.7300   -1.0080    0.2430 h1        1 CCV      0.038700
     26 H142       -1.2840   -2.5310   -0.1340 h1        1 CCV      0.038700
     27 H141       -3.0140   -3.0740   -0.3870 h1        1 CCV      0.038700
     28 H3         -5.7120   -2.7540    1.3750 ho        1 CCV      0.409500
     29 H4         -2.4510   -1.7690   -2.0930 ho        1 CCV      0.409500
@<TRIPOS>BOND
     1    1    5 1   
     2    1    9 1   
     3    1   16 1   
     4    2    5 2   
     5    3    6 2   
     6    4    5 1   
     7    4    6 1   
     8    4   17 1   
     9    6    7 1   
    10    7    8 1   
    11    7    9 2   
    12    8   18 1   
    13    8   19 1   
    14    8   20 1   
    15    9   10 1   
    16   10   11 1   
    17   10   21 1   
    18   10   22 1   
    19   11   12 1   
    20   11   13 1   
    21   11   23 1   
    22   12   14 1   
    23   12   24 1   
    24   12   25 1   
    25   13   15 1   
    26   13   26 1   
    27   13   27 1   
    28   14   28 1   
    29   15   29 1   
@<TRIPOS>SUBSTRUCTURE
     1 CCV         1 TEMP              0 ****  ****    0 ROOT
