@<TRIPOS>MOLECULE
CCV
   29    26     1     0     0
SMALL
bcc


@<TRIPOS>ATOM
      1 N1          1.4680   -0.5020   -0.8150 n2        1 CCV     -0.309000
      2 O1          3.4410   -0.5060   -1.8620 o         1 CCV     -0.361000
      3 O2          3.4440   -0.4240    2.5840 o         1 CCV     -0.343000
      4 N2          3.5110   -0.4750    0.3700 n2        1 CCV     -0.364000
      5 C1          2.8310   -0.5060   -0.8110 c1        1 CCV      0.394000
      6 C2          2.8380   -0.4410    1.5310 c1        1 CCV      0.359000
      7 C3          1.4730   -0.4370    1.5290 c1        1 CCV     -0.254000
      8 C4          0.7140   -0.4770    2.8370 c2        1 CCV     -0.156000
      9 C5          0.7940   -0.4680    0.3450 c2        1 CCV      0.104000
     10 C11        -0.7200   -0.4730    0.3410 c3        1 CCV     -0.133000
     11 C12        -1.2240    0.3560   -0.8200 c3        1 CCV     -0.156000
     12 C13        -2.0810   -0.5060   -1.7210 c3        1 CCV     -0.021000
     13 C14        -2.0470    1.5110   -0.2960 c3        1 CCV     -0.021000
     14 O3         -2.4110    0.2150   -2.8870 oh        1 CCV     -0.335000
     15 O4         -2.2970    2.4240   -1.3410 oh        1 CCV     -0.335000
     16 H1          1.0130   -0.5230   -1.6080 hn        1 CCV      0.290000
     17 H2          4.4260   -0.4770    0.3710 hn        1 CCV      0.267000
     18 H43         0.0470   -1.1940    2.8060 ha        1 CCV      0.089000
     19 H42         1.3400   -0.6450    3.5730 ha        1 CCV      0.089000
     20 H41         0.2650    0.3820    2.9810 ha        1 CCV      0.089000
     21 H112       -1.0500   -0.0930    1.1800 hc        1 CCV      0.113000
     22 H111       -1.0430   -1.3920    0.2500 hc        1 CCV      0.113000
     23 H12        -0.4650    0.7010   -1.3270 hc        1 CCV      0.120000
     24 H132       -1.5870   -1.3150   -1.9660 h1        1 CCV      0.083750
     25 H131       -2.9020   -0.7560   -1.2480 h1        1 CCV      0.083750
     26 H142       -2.8970    1.1740    0.0540 h1        1 CCV      0.083750
     27 H141       -1.5550    1.9630    0.4210 h1        1 CCV      0.083750
     28 H3         -2.8040   -0.3290   -3.4710 ho        1 CCV      0.212000
     29 H4         -2.5240    3.2120   -0.9990 ho        1 CCV      0.212000
@<TRIPOS>BOND
     1    1    9 1   
     2    1   16 1   
     3    2    5 1   
     4    3    6 1   
     5    4    5 1   
     6    4   17 1   
     7    6    7 1   
     8    7    9 1   
     9    8   18 1   
    10    8   19 1   
    11    8   20 1   
    12    9   10 1   
    13   10   11 1   
    14   10   21 1   
    15   10   22 1   
    16   11   12 1   
    17   11   13 1   
    18   11   23 1   
    19   12   14 1   
    20   12   24 1   
    21   12   25 1   
    22   13   15 1   
    23   13   26 1   
    24   13   27 1   
    25   14   28 1   
    26   15   29 1   
@<TRIPOS>SUBSTRUCTURE
     1 CCV         1 TEMP              0 ****  ****    0 ROOT
