@<TRIPOS>MOLECULE
CCV
   29    29     1     0     0
SMALL
bcc


@<TRIPOS>ATOM
      1 N1         -0.0880   -0.0160    0.0080 n         1 CCV     -0.466100
      2 O1          1.8740    0.0280   -1.2030 o         1 CCV     -0.645500
      3 O2          2.1800    0.1570    3.3750 o         1 CCV     -0.616500
      4 N2          2.0530    0.1100    1.1050 n         1 CCV     -0.584500
      5 C1          1.3150    0.0400   -0.0840 c         1 CCV      0.803500
      6 C2          1.4460    0.1010    2.3730 c         1 CCV      0.717700
      7 C3         -0.0270    0.0230    2.4080 cc        1 CCV     -0.264400
      8 C4         -0.6640    0.0110    3.7400 c3        1 CCV     -0.035900
      9 C5         -0.7370   -0.0310    1.2360 cd        1 CCV      0.103400
     10 C11        -2.2390   -0.0790    1.2140 c3        1 CCV     -0.051200
     11 C12        -2.7750   -1.4970    1.0900 c3        1 CCV     -0.064700
     12 C13        -4.3010   -1.4500    1.1810 c3        1 CCV      0.126400
     13 C14        -2.3500   -2.1880   -0.2030 c3        1 CCV      0.126400
     14 O3         -4.7500   -2.7860    1.3440 oh        1 CCV     -0.614800
     15 O4         -2.4590   -1.2610   -1.2760 oh        1 CCV     -0.614800
     16 H1         -0.6140   -0.1150   -0.8370 hn        1 CCV      0.369500
     17 H2          3.0450    0.1640    1.0290 hn        1 CCV      0.352500
     18 H43        -1.2210    0.9660    3.9180 hc        1 CCV      0.051367
     19 H42         0.1090   -0.0970    4.5440 hc        1 CCV      0.051367
     20 H41        -1.3850   -0.8400    3.8260 hc        1 CCV      0.051367
     21 H112       -2.6220    0.3810    2.1650 hc        1 CCV      0.075700
     22 H111       -2.6360    0.5360    0.3590 hc        1 CCV      0.075700
     23 H12        -2.3880   -2.1220    1.9430 hc        1 CCV      0.080700
     24 H132       -4.6210   -0.8320    2.0630 h1        1 CCV      0.038700
     25 H131       -4.7290   -1.0080    0.2410 h1        1 CCV      0.038700
     26 H142       -1.2840   -2.5350   -0.1290 h1        1 CCV      0.038700
     27 H141       -3.0140   -3.0770   -0.3820 h1        1 CCV      0.038700
     28 H3         -5.7130   -2.7510    1.3770 ho        1 CCV      0.409500
     29 H4         -2.4490   -1.7770   -2.0910 ho        1 CCV      0.409500
@<TRIPOS>BOND
     1    1    5 1   
     2    1    9 1   
     3    1   16 1   
     4    2    5 2   
     5    3    6 2   
     6    4    5 1   
     7    4    6 1   
     8    4   17 1   
     9    6    7 1   
    10    7    8 1   
    11    7    9 2   
    12    8   18 1   
    13    8   19 1   
    14    8   20 1   
    15    9   10 1   
    16   10   11 1   
    17   10   21 1   
    18   10   22 1   
    19   11   12 1   
    20   11   13 1   
    21   11   23 1   
    22   12   14 1   
    23   12   24 1   
    24   12   25 1   
    25   13   15 1   
    26   13   26 1   
    27   13   27 1   
    28   14   28 1   
    29   15   29 1   
@<TRIPOS>SUBSTRUCTURE
     1 CCV         1 TEMP              0 ****  ****    0 ROOT
