@<TRIPOS>MOLECULE
CCW
   34    33     1     0     0
SMALL
bcc


@<TRIPOS>ATOM
      1 OA1         2.3580    3.1970    2.6740 o         1 CCW     -0.788800
      2 C           3.0010    2.4610    1.8910 c         1 CCW      0.905600
      3 OA2         4.0700    2.7510    1.2910 o         1 CCW     -0.788800
      4 CA          2.4250    1.0180    1.6350 c3        1 CCW     -0.032500
      5 N           2.4300    0.7970    0.1520 n4        1 CCW     -0.827600
      6 CB          3.2420   -0.0490    2.3660 c3        1 CCW     -0.082400
      7 CG          3.7050    0.4170    3.7360 c3        1 CCW     -0.082400
      8 CD          5.1770    0.8450    3.6780 c3        1 CCW      0.101800
      9 NE          5.6860    1.5270    4.8360 n2        1 CCW     -0.561900
     10 C1          5.4610    2.7730    5.0670 c2        1 CCW      0.576200
     11 NH1         6.1380    3.3680    6.2680 n4        1 CCW     -0.839600
     12 C2          4.6160    3.7410    4.3120 c3        1 CCW     -0.451900
     13 S3          4.6850    5.4180    4.7140 s6        1 CCW      1.348000
     14 O6          4.2180    5.4800    6.0430 o         1 CCW     -0.676300
     15 O5          6.0450    5.7650    4.6180 o         1 CCW     -0.676300
     16 C4          3.6950    6.0900    3.5870 c3        1 CCW     -0.418300
     17 HA          1.3550    0.9900    1.9890 hx        1 CCW      0.113700
     18 HN1         1.6550    1.3120   -0.2700 hn        1 CCW      0.456467
     19 HN2         3.3200    1.1810   -0.2120 hn        1 CCW      0.456467
     20 HB1C        2.6030   -0.9650    2.4920 hc        1 CCW      0.060200
     21 HB2C        4.1370   -0.3480    1.7560 hc        1 CCW      0.060200
     22 HG1C        3.0570    1.2620    4.0950 hc        1 CCW      0.076700
     23 HG2C        3.5960   -0.4250    4.4690 hc        1 CCW      0.076700
     24 HD1C        5.3260    1.4790    2.7470 h1        1 CCW      0.094700
     25 HD2C        5.8200   -0.0790    3.5870 h1        1 CCW      0.094700
     26 HH11        5.4190    3.8130    6.8630 hn        1 CCW      0.484133
     27 HH12        6.7950    4.0950    5.9360 hn        1 CCW      0.484133
     28 H21C        4.8350    3.5960    3.2020 h1        1 CCW      0.194200
     29 H22C        3.5400    3.3820    4.4010 h1        1 CCW      0.194200
     30 H41C        4.2440    6.6730    2.7980 h1        1 CCW      0.169367
     31 H42C        2.9470    6.8040    4.0290 h1        1 CCW      0.169367
     32 H43C        3.0640    5.3480    3.0050 h1        1 CCW      0.169367
     33 HN3         2.3580   -0.1930   -0.0790 hn        1 CCW      0.456467
     34 HH13        6.6500    2.6640    6.8100 hn        1 CCW      0.484133
@<TRIPOS>BOND
     1    1    2 1   
     2    2    3 1   
     3    2    4 1   
     4    4    5 1   
     5    4    6 1   
     6    4   17 1   
     7    5   18 1   
     8    5   19 1   
     9    5   33 1   
    10    6    7 1   
    11    6   20 1   
    12    6   21 1   
    13    7    8 1   
    14    7   22 1   
    15    7   23 1   
    16    8    9 1   
    17    8   24 1   
    18    8   25 1   
    19    9   10 2   
    20   10   11 1   
    21   10   12 1   
    22   11   26 1   
    23   11   27 1   
    24   11   34 1   
    25   12   13 1   
    26   12   28 1   
    27   12   29 1   
    28   13   14 2   
    29   13   15 2   
    30   13   16 1   
    31   16   30 1   
    32   16   31 1   
    33   16   32 1   
@<TRIPOS>SUBSTRUCTURE
     1 CCW         1 TEMP              0 ****  ****    0 ROOT
