@<TRIPOS>MOLECULE
CCW
   34    33     1     0     0
SMALL
bcc


@<TRIPOS>ATOM
      1 OA1         2.4320    3.3020    2.6080 o         1 CCW     -0.788800
      2 C           3.0350    2.4910    1.8670 c         1 CCW      0.905600
      3 OA2         4.1370    2.6770    1.2860 o         1 CCW     -0.788800
      4 CA          2.3550    1.0890    1.6410 c3        1 CCW     -0.032500
      5 N           2.3790    0.8180    0.1670 nz        1 CCW     -0.827600
      6 CB          3.0670   -0.0120    2.4290 c3        1 CCW     -0.082400
      7 CG          3.5320    0.4640    3.7950 c3        1 CCW     -0.082400
      8 CD          5.0340    0.7750    3.7630 c3        1 CCW      0.101800
      9 NE          5.5660    1.4540    4.9120 n2        1 CCW     -0.561900
     10 C1          5.4330    2.7220    5.0970 c2        1 CCW      0.576200
     11 NH1         6.1240    3.3030    6.2950 nz        1 CCW     -0.839600
     12 C2          4.6850    3.7260    4.2880 c3        1 CCW     -0.451900
     13 S3          4.8750    5.4050    4.6360 s6        1 CCW      1.348000
     14 O6          4.3810    5.5490    5.9490 o         1 CCW     -0.676300
     15 O5          6.2600    5.6420    4.5660 o         1 CCW     -0.676300
     16 C4          3.9690    6.1120    3.4620 c3        1 CCW     -0.418300
     17 HA          1.2780    1.1560    1.9670 hx        1 CCW      0.113700
     18 HN1         1.6570    1.3760   -0.2920 hn        1 CCW      0.456467
     19 HN2         3.3040    1.1190   -0.1850 hn        1 CCW      0.456467
     20 HB1C        2.3570   -0.8710    2.5660 hc        1 CCW      0.060200
     21 HB2C        3.9520   -0.4000    1.8530 hc        1 CCW      0.060200
     22 HG1C        2.9430    1.3680    4.1090 hc        1 CCW      0.076700
     23 HG2C        3.3400   -0.3420    4.5520 hc        1 CCW      0.076700
     24 HD1C        5.6050   -0.1990    3.7190 h1        1 CCW      0.094700
     25 HD2C        5.2550    1.3630    2.8170 h1        1 CCW      0.094700
     26 HH11        6.5660    2.5820    6.8740 hn        1 CCW      0.484133
     27 HH12        6.8440    3.9660    5.9580 hn        1 CCW      0.484133
     28 H21C        3.5820    3.4540    4.3580 h1        1 CCW      0.194200
     29 H22C        4.9190    3.5260    3.1890 h1        1 CCW      0.194200
     30 H41C        3.2960    5.4010    2.8870 h1        1 CCW      0.169367
     31 H42C        3.2680    6.8970    3.8600 h1        1 CCW      0.169367
     32 H43C        4.5810    6.6220    2.6690 h1        1 CCW      0.169367
     33 HN3         2.2360   -0.1710   -0.0340 hn        1 CCW      0.456467
     34 HH13        5.4270    3.8230    6.8560 hn        1 CCW      0.484133
@<TRIPOS>BOND
     1    1    2 1   
     2    2    3 1   
     3    2    4 1   
     4    4    5 1   
     5    4    6 1   
     6    4   17 1   
     7    5   18 1   
     8    5   19 1   
     9    5   33 1   
    10    6    7 1   
    11    6   20 1   
    12    6   21 1   
    13    7    8 1   
    14    7   22 1   
    15    7   23 1   
    16    8    9 1   
    17    8   24 1   
    18    8   25 1   
    19    9   10 2   
    20   10   11 1   
    21   10   12 1   
    22   11   26 1   
    23   11   27 1   
    24   11   34 1   
    25   12   13 1   
    26   12   28 1   
    27   12   29 1   
    28   13   14 2   
    29   13   15 2   
    30   13   16 1   
    31   16   30 1   
    32   16   31 1   
    33   16   32 1   
@<TRIPOS>SUBSTRUCTURE
     1 CCW         1 TEMP              0 ****  ****    0 ROOT
