@<TRIPOS>MOLECULE
CCX
   64    69     1     0     0
SMALL
bcc


@<TRIPOS>ATOM
      1 C1          0.0000    0.0000    0.0000 ca        1 CCX     -0.088000
      2 C2          1.4090    0.0000    0.0000 ca        1 CCX     -0.157000
      3 C3         -0.6970    0.0000    1.2070 ca        1 CCX     -0.021000
      4 C4          2.0980    0.0000    1.2120 ca        1 CCX     -0.096000
      5 C5          0.0120    0.0010    2.4040 ca        1 CCX      0.005000
      6 C6          1.4140   -0.0010    2.3910 ca        1 CCX     -0.064000
      7 C7         -0.4050   -0.0060   -1.4080 c2        1 CCX     -0.162000
      8 C8          0.7210   -0.0090   -2.1390 c2        1 CCX     -0.227000
      9 N9          1.8130   -0.0010   -1.3140 na        1 CCX      0.318000
     10 C10        -1.8170   -0.0080   -1.9350 c3        1 CCX     -0.040000
     11 C11        -0.6910    0.0020    3.6520 c1        1 CCX     -0.096000
     12 N12        -1.2650    0.0090    4.6320 n1        1 CCX     -0.060000
     13 C13        -2.3380    1.4290   -2.0030 c3        1 CCX     -0.095000
     14 C14        -3.7720    1.4270   -2.5380 c3        1 CCX     -0.099000
     15 C15        -4.2930    2.8640   -2.6060 c3        1 CCX     -0.099000
     16 C16        -7.7580    4.1120   -3.3860 DU        1 CCX     -0.248000
     17 C17        -7.8560    3.6360   -4.8380 c3        1 CCX     -0.514000
     18 C18        -6.2850    4.1870   -2.9780 c3        1 CCX     -0.119000
     19 C19        -7.1640    2.2760   -4.9690 c3        1 CCX     -0.122000
     20 N20        -5.6680    2.8620   -3.1200 n3        1 CCX     -0.042000
     21 C21        -5.7090    2.4050   -4.5150 c3        1 CCX     -0.125000
     22 C24       -11.5980    2.3580   -4.9580 ca        1 CCX     -0.024000
     23 C25       -14.1780    2.9990   -5.7720 ca        1 CCX      0.001000
     24 C26       -13.7600    1.4640   -5.2190 ca        1 CCX     -0.057000
     25 C27       -13.0950    4.0640   -5.8220 ca        1 CCX     -0.033000
     26 C28       -12.3520    1.4770   -4.8820 ca        1 CCX     -0.013000
     27 C29       -11.9570    3.7350   -5.4500 ca        1 CCX     -0.174000
     28 C30       -14.1570    0.3600   -4.9900 c2        1 CCX      0.051000
     29 C31       -13.4460   -0.5780   -4.5430 c2        1 CCX     -0.070000
     30 N32       -12.0640   -0.0530   -4.3620 na        1 CCX      0.086000
     31 C33       -15.6610    0.0440   -5.3670 c1        1 CCX     -0.128000
     32 N34       -16.9750   -0.1290   -5.5450 n1        1 CCX     -0.052000
     33 O35        -9.3610    1.3790   -4.3600 o         1 CCX     -0.296000
     34 H3         -1.7700   -0.1000    1.3150 ha        1 CCX      0.110000
     35 H4          3.1770   -0.0310    1.3040 ha        1 CCX      0.112000
     36 H6          2.0180    0.1130    3.2830 ha        1 CCX      0.117000
     37 H8          0.6900    0.1370   -3.2110 h4        1 CCX      0.147000
     38 HN9         2.6540   -0.4980   -1.5330 hn        1 CCX      0.070000
     39 H10        -1.9570   -0.6670   -2.7840 hc        1 CCX      0.056000
     40 H10A       -2.2790   -0.6050   -1.1590 hc        1 CCX      0.056000
     41 H13        -2.2820    1.7360   -0.9650 hc        1 CCX      0.064500
     42 H13A       -1.5410    2.0180   -2.4410 hc        1 CCX      0.064500
     43 H14        -3.7770    0.7850   -3.4110 hc        1 CCX      0.058500
     44 H14A       -4.4980    0.7620   -2.0870 hc        1 CCX      0.058500
     45 H15        -3.8690    3.2120   -1.6720 h1        1 CCX      0.062000
     46 H15A       -3.7820    3.6300   -3.1770 h1        1 CCX      0.062000
     47 H16        -7.9340    5.1450   -3.1130 ha        1 CCX      0.170000
     48 H16A       -8.1140    3.2680   -2.8070 ha        1 CCX      0.170000
     49 H17        -8.0590    4.3930   -4.0910 DU        1 CCX      0.340000
     50 H18        -5.6170    4.7590   -3.6100 h1        1 CCX      0.105000
     51 H18A       -6.0450    4.2320   -1.9220 h1        1 CCX      0.105000
     52 H19        -7.6220    1.5420   -4.3180 hc        1 CCX      0.116500
     53 H19A       -7.0330    1.8390   -5.9520 hc        1 CCX      0.116500
     54 H21        -5.0110    1.5990   -4.7100 h1        1 CCX      0.078000
     55 H21A       -5.4260    2.9790   -5.3890 h1        1 CCX      0.078000
     56 HN22       -9.8230    4.2570   -4.8610 hn        1 CCX      0.092500
     57 H25       -15.2080    2.8400   -6.0650 ha        1 CCX      0.147000
     58 H27       -13.6460    4.9930   -5.9030 ha        1 CCX      0.146000
     59 H29       -11.1480    4.4440   -5.5730 ha        1 CCX      0.076000
     60 H31       -13.7180   -1.5590   -4.1720 h4        1 CCX      0.164000
     61 HN32      -11.3700   -0.6830   -4.0120 hn        1 CCX      0.147000
     62 H222       -8.9930    3.5660   -6.1790 hn        1 CCX      0.092500
     63 N22        -9.2650    3.5070   -5.2170 ny        1 CCX      0.705000
     64 C23       -10.0630    2.6250   -4.6640 c2        1 CCX     -0.027000
@<TRIPOS>BOND
     1    1    2 1   
     2    1    3 1   
     3    1    7 1   
     4    2    4 1   
     5    2    9 1   
     6    3    5 1   
     7    3   34 1   
     8    4    6 1   
     9    4   35 1   
    10    5    6 1   
    11    5   11 1   
    12    6   36 1   
    13    7    8 1   
    14    7   10 1   
    15    8    9 1   
    16    8   37 1   
    17    9   38 1   
    18   10   13 1   
    19   10   39 1   
    20   10   40 1   
    21   11   12 1   
    22   13   14 1   
    23   13   41 1   
    24   13   42 1   
    25   14   15 1   
    26   14   43 1   
    27   14   44 1   
    28   15   20 1   
    29   15   45 1   
    30   15   46 1   
    31   16   17 1   
    32   16   18 1   
    33   16   47 1   
    34   16   48 1   
    35   16   49 1   
    36   17   19 1   
    37   17   49 1   
    38   17   63 1   
    39   18   20 1   
    40   18   50 1   
    41   18   51 1   
    42   19   21 1   
    43   19   52 1   
    44   19   53 1   
    45   20   21 1   
    46   21   54 1   
    47   21   55 1   
    48   22   26 1   
    49   22   27 1   
    50   22   64 1   
    51   23   24 1   
    52   23   25 1   
    53   23   57 1   
    54   24   26 1   
    55   24   28 1   
    56   25   27 1   
    57   25   58 1   
    58   26   30 1   
    59   27   59 1   
    60   28   29 1   
    61   28   31 1   
    62   29   30 1   
    63   29   60 1   
    64   30   61 1   
    65   31   32 1   
    66   33   64 1   
    67   56   63 1   
    68   62   63 1   
    69   63   64 1   
@<TRIPOS>SUBSTRUCTURE
     1 CCX         1 TEMP              0 ****  ****    0 ROOT
