@<TRIPOS>MOLECULE
CCX
   64    66     1     0     0
SMALL
bcc


@<TRIPOS>ATOM
      1 C1         -2.2440   -0.9520   -0.0450 ca        1 CCX     -0.103800
      2 C2         -1.8610   -2.3360    0.1610 ca        1 CCX     -0.013200
      3 C3         -3.0880   -0.6230   -1.0990 ca        1 CCX     -0.031000
      4 C4         -2.3320   -3.3500   -0.6930 ca        1 CCX     -0.140000
      5 C5         -3.5590   -1.6450   -1.9280 ca        1 CCX     -0.093000
      6 C6         -3.1780   -2.9910   -1.7270 ca        1 CCX     -0.069000
      7 C7         -1.5990   -0.1850    1.0020 cc        1 CCX     -0.131400
      8 C8         -0.8750   -1.0910    1.7760 cd        1 CCX     -0.085100
      9 N9         -1.0290   -2.3880    1.2740 na        1 CCX     -0.178400
     10 C10        -1.6720    1.2720    1.1830 c3        1 CCX     -0.009200
     11 C11        -4.4550   -1.3100   -2.9760 cg        1 CCX      0.339800
     12 N12        -5.2030   -1.0030   -3.8140 n1        1 CCX     -0.519800
     13 C13        -3.1040    1.7770    1.2930 c3        1 CCX     -0.079400
     14 C14        -3.3020    3.0610    0.5140 c3        1 CCX     -0.101400
     15 C15        -4.7900    3.4080    0.4590 c3        1 CCX      0.180800
     16 C16        -6.2250    2.7900   -4.0820 c3        1 CCX     -0.100900
     17 C17        -7.4330    1.9230   -4.0740 c2        1 CCX     -0.085200
     18 C18        -5.7660    4.6730   -1.3470 c1        1 CCX     -0.179500
     19 C19        -8.5430    2.1660   -3.3430 c2        1 CCX     -0.059200
     20 N20        -5.0730    4.6440   -0.2500 n3        1 CCX     -0.528000
     21 C21        -8.6960    3.3330   -2.4590 c3        1 CCX     -0.106900
     22 C24        -8.0060    1.3360   -7.3120 ca        1 CCX     -0.219600
     23 C25        -7.3430    2.4290   -9.8790 ca        1 CCX      0.009000
     24 C26        -8.5300    1.7330   -9.7150 ca        1 CCX     -0.084800
     25 C27        -6.4990    2.5890   -8.7740 ca        1 CCX     -0.165000
     26 C28        -8.8770    1.1810   -8.4150 ca        1 CCX      0.026800
     27 C29        -6.8200    2.0610   -7.5270 ca        1 CCX     -0.051000
     28 C30        -9.6290    1.3830  -10.5990 cc        1 CCX     -0.016900
     29 C31       -10.5600    0.6680   -9.8430 cd        1 CCX     -0.030100
     30 N32       -10.1060    0.5430   -8.5270 na        1 CCX     -0.171400
     31 C33        -9.7260    1.7100  -11.9590 cg        1 CCX      0.203500
     32 N34        -9.8030    1.9830  -13.0880 n1        1 CCX     -0.320800
     33 O35        -9.4640    0.2230   -5.7530 o         1 CCX     -0.501100
     34 H3         -3.3760    0.4260   -1.2690 ha        1 CCX      0.141000
     35 H4         -2.0380   -4.3980   -0.5420 ha        1 CCX      0.152000
     36 H6         -3.5630   -3.7660   -2.4080 ha        1 CCX      0.146000
     37 H8         -0.2540   -0.9080    2.6570 h4        1 CCX      0.181000
     38 HN9        -0.6120   -3.2030    1.6430 hn        1 CCX      0.312700
     39 H10        -1.1590    1.7630    0.3090 hc        1 CCX      0.054700
     40 H10A       -1.1000    1.5700    2.1030 hc        1 CCX      0.054700
     41 H13        -3.3600    1.9470    2.3720 hc        1 CCX      0.050700
     42 H13A       -3.8150    0.9970    0.9090 hc        1 CCX      0.050700
     43 H14        -2.9060    2.9370   -0.5290 hc        1 CCX      0.052200
     44 H14A       -2.7220    3.8900    0.9970 hc        1 CCX      0.052200
     45 H15        -5.3490    2.5710   -0.0470 h1        1 CCX      0.067700
     46 H15A       -5.1850    3.5110    1.5110 h1        1 CCX      0.067700
     47 H16        -5.2850    2.2210   -4.2890 hc        1 CCX      0.086033
     48 H16A       -6.3360    3.5950   -4.8510 hc        1 CCX      0.086033
     49 H17        -6.1070    3.2870   -3.0720 hc        1 CCX      0.086033
     50 H18        -4.6690    5.4520    0.1900 hn        1 CCX      0.379800
     51 H18A       -5.9260    5.6760   -1.7940 ha        1 CCX     -0.000500
     52 H19        -7.7460    3.5720   -1.9050 hc        1 CCX      0.085033
     53 H19A       -9.4170    1.4860   -3.3900 ha        1 CCX      0.147000
     54 H21        -8.9700    4.2330   -3.0680 hc        1 CCX      0.085033
     55 H21A       -9.5100    3.1520   -1.7140 hc        1 CCX      0.085033
     56 HN22       -6.4250    0.6290   -5.3190 hn        1 CCX      0.473300
     57 H25        -7.0700    2.8520  -10.8600 ha        1 CCX      0.172000
     58 H27        -5.5580    3.1490   -8.8950 ha        1 CCX      0.162000
     59 H29        -6.1180    2.2460   -6.6970 ha        1 CCX      0.135000
     60 H31       -11.5190    0.2350  -10.1490 h4        1 CCX      0.202000
     61 HN32      -10.5890    0.0980   -7.7840 hn        1 CCX      0.332700
     62 H222       -7.5610   -0.1060   -4.3380 hn        1 CCX      0.473300
     63 N22        -7.3700    0.7200   -4.9260 n4        1 CCX     -0.541600
     64 C23        -8.3880    0.7500   -6.0420 c         1 CCX      0.584700
@<TRIPOS>BOND
     1    1    2 ar  
     2    1    3 ar  
     3    1    7 1   
     4    2    4 ar  
     5    2    9 1   
     6    3    5 ar  
     7    3   34 1   
     8    4    6 ar  
     9    4   35 1   
    10    5    6 ar  
    11    5   11 1   
    12    6   36 1   
    13    7    8 2   
    14    7   10 1   
    15    8    9 1   
    16    8   37 1   
    17    9   38 1   
    18   10   13 1   
    19   10   39 1   
    20   10   40 1   
    21   11   12 3   
    22   13   14 1   
    23   13   41 1   
    24   13   42 1   
    25   14   15 1   
    26   14   43 1   
    27   14   44 1   
    28   15   20 1   
    29   15   45 1   
    30   15   46 1   
    31   16   17 1   
    32   16   47 1   
    33   16   48 1   
    34   16   49 1   
    35   17   19 2   
    36   17   63 1   
    37   18   20 3   
    38   18   51 1   
    39   19   21 1   
    40   19   53 1   
    41   20   50 1   
    42   21   52 1   
    43   21   54 1   
    44   21   55 1   
    45   22   26 ar  
    46   22   27 ar  
    47   22   64 1   
    48   23   24 ar  
    49   23   25 ar  
    50   23   57 1   
    51   24   26 ar  
    52   24   28 1   
    53   25   27 ar  
    54   25   58 1   
    55   26   30 1   
    56   27   59 1   
    57   28   29 2   
    58   28   31 1   
    59   29   30 1   
    60   29   60 1   
    61   30   61 1   
    62   31   32 3   
    63   33   64 2   
    64   56   63 1   
    65   62   63 1   
    66   63   64 1   
@<TRIPOS>SUBSTRUCTURE
     1 CCX         1 TEMP              0 ****  ****    0 ROOT
