@<TRIPOS>MOLECULE
CCX
   63    67     1     0     0
SMALL
bcc


@<TRIPOS>ATOM
      1 C1         -7.6000   -0.6000   -0.2110 ca        1 CCX     -0.100800
      2 C2         -8.8210   -1.2830    0.1640 ca        1 CCX     -0.026200
      3 C3         -7.5560    0.7920   -0.1900 ca        1 CCX     -0.036000
      4 C4         -9.9640   -0.5630    0.5520 ca        1 CCX     -0.150000
      5 C5         -8.6990    1.4930    0.1980 ca        1 CCX     -0.054000
      6 C6         -9.8870    0.8180    0.5640 ca        1 CCX     -0.077000
      7 C7         -6.6390   -1.6310   -0.5490 cc        1 CCX     -0.124400
      8 C8         -7.2830   -2.8560   -0.3750 cd        1 CCX     -0.104100
      9 N9         -8.5980   -2.6540    0.0560 na        1 CCX     -0.189400
     10 C10        -5.2580   -1.4240   -1.0060 c3        1 CCX     -0.009200
     11 C11        -8.6780    2.9140    0.2280 cg        1 CCX      0.240800
     12 N12        -8.6610    4.0770    0.2530 n1        1 CCX     -0.377800
     13 C13        -4.3560   -0.9210    0.1070 c3        1 CCX     -0.078400
     14 C14        -2.9510   -0.6830   -0.4050 c3        1 CCX     -0.082400
     15 C15        -2.0550   -0.2160    0.7410 c3        1 CCX      0.171800
     16 C16         1.3230    1.4730    1.0070 c3        1 CCX     -0.092900
     17 C17         2.1880    0.3420    0.4270 c3        1 CCX      0.097700
     18 C18        -0.0470    0.9330    1.4060 c3        1 CCX      0.169800
     19 C19         1.4340   -0.2670   -0.7670 c3        1 CCX     -0.092900
     20 N20        -0.7490    0.2710    0.3130 n3        1 CCX     -0.731600
     21 C21         0.0580   -0.7580   -0.3260 c3        1 CCX      0.169800
     22 C24         5.9700    0.8060    0.1640 ca        1 CCX     -0.149600
     23 C25         8.5370    1.7590   -0.6820 ca        1 CCX     -0.055000
     24 C26         8.4190    0.4790   -0.1440 ca        1 CCX     -0.073800
     25 C27         7.3990    2.5490   -0.7790 ca        1 CCX     -0.162000
     26 C28         7.1230    0.0040    0.2910 ca        1 CCX     -0.011200
     27 C29         6.1400    2.0840   -0.3630 ca        1 CCX     -0.082000
     28 C30         9.3490   -0.5970    0.1330 cc        1 CCX     -0.062900
     29 C31         8.6160   -1.6430    0.7120 cd        1 CCX     -0.040100
     30 N32         7.2760   -1.2900    0.7950 na        1 CCX     -0.161400
     31 C33        10.7250   -0.5940   -0.1280 cg        1 CCX      0.232500
     32 N34        11.8690   -0.5870   -0.3470 n1        1 CCX     -0.381800
     33 O35         4.5990   -0.6820    1.4370 o         1 CCX     -0.646100
     34 H3         -6.6340    1.3210   -0.4740 ha        1 CCX      0.148000
     35 H4        -10.8890   -1.0800    0.8370 ha        1 CCX      0.140000
     36 H6        -10.7660    1.4100    0.8630 ha        1 CCX      0.143000
     37 H8         -6.8990   -3.8670   -0.5300 h4        1 CCX      0.170000
     38 HN9        -9.2600   -3.3590    0.2440 hn        1 CCX      0.302700
     39 H10        -4.8440   -2.3850   -1.4140 hc        1 CCX      0.048200
     40 H10A       -5.2560   -0.6770   -1.8480 hc        1 CCX      0.048200
     41 H13        -4.7770    0.0320    0.5240 hc        1 CCX      0.045200
     42 H13A       -4.3350   -1.6680    0.9420 hc        1 CCX      0.045200
     43 H14        -2.5490   -1.6320   -0.8460 hc        1 CCX      0.047700
     44 H14A       -2.9690    0.0860   -1.2210 hc        1 CCX      0.047700
     45 H15        -2.5720    0.6370    1.2670 h1        1 CCX      0.032700
     46 H15A       -1.9590   -1.0620    1.4850 h1        1 CCX      0.032700
     47 H16         1.8100    1.9050    1.9190 hc        1 CCX      0.052700
     48 H16A        1.2060    2.2940    0.2540 hc        1 CCX      0.052700
     49 H17         2.3020   -0.4590    1.2200 h1        1 CCX      0.090700
     50 H18         0.0850    0.2430    2.2920 h1        1 CCX      0.034700
     51 H18A       -0.6840    1.8000    1.7430 h1        1 CCX      0.034700
     52 H19         1.3250    0.4940   -1.5820 hc        1 CCX      0.052700
     53 H19A        2.0020   -1.1390   -1.1800 hc        1 CCX      0.052700
     54 H21        -0.5000   -1.1040   -1.2420 h1        1 CCX      0.034700
     55 H21A        0.1970   -1.6550    0.3490 h1        1 CCX      0.034700
     56 HN22        3.5770    1.4990   -0.6260 hn        1 CCX      0.312500
     57 H25         9.5160    2.1320   -1.0170 ha        1 CCX      0.149000
     58 H27         7.4770    3.5670   -1.1900 ha        1 CCX      0.139000
     59 H29         5.2850    2.7710   -0.4510 ha        1 CCX      0.133000
     60 H31         8.9660   -2.6180    1.0630 h4        1 CCX      0.182000
     61 HN32        6.5460   -1.7980    1.2380 hn        1 CCX      0.336700
     62 N22         3.5140    0.7950    0.0690 n         1 CCX     -0.558900
     63 C23         4.6600    0.2580    0.6090 c         1 CCX      0.686700
@<TRIPOS>BOND
     1    1    2 ar  
     2    1    3 ar  
     3    1    7 1   
     4    2    4 ar  
     5    2    9 1   
     6    3    5 ar  
     7    3   34 1   
     8    4    6 ar  
     9    4   35 1   
    10    5    6 ar  
    11    5   11 1   
    12    6   36 1   
    13    7    8 2   
    14    7   10 1   
    15    8    9 1   
    16    8   37 1   
    17    9   38 1   
    18   10   13 1   
    19   10   39 1   
    20   10   40 1   
    21   11   12 3   
    22   13   14 1   
    23   13   41 1   
    24   13   42 1   
    25   14   15 1   
    26   14   43 1   
    27   14   44 1   
    28   15   20 1   
    29   15   45 1   
    30   15   46 1   
    31   16   17 1   
    32   16   18 1   
    33   16   47 1   
    34   16   48 1   
    35   17   19 1   
    36   17   49 1   
    37   17   62 1   
    38   18   20 1   
    39   18   50 1   
    40   18   51 1   
    41   19   21 1   
    42   19   52 1   
    43   19   53 1   
    44   20   21 1   
    45   21   54 1   
    46   21   55 1   
    47   22   26 ar  
    48   22   27 ar  
    49   22   63 1   
    50   23   24 ar  
    51   23   25 ar  
    52   23   57 1   
    53   24   26 ar  
    54   24   28 1   
    55   25   27 ar  
    56   25   58 1   
    57   26   30 1   
    58   27   59 1   
    59   28   29 2   
    60   28   31 1   
    61   29   30 1   
    62   29   60 1   
    63   30   61 1   
    64   31   32 3   
    65   33   63 2   
    66   56   62 1   
    67   62   63 1   
@<TRIPOS>SUBSTRUCTURE
     1 CCX         1 TEMP              0 ****  ****    0 ROOT
