@<TRIPOS>MOLECULE
CCX
   63    52     1     0     0
SMALL
bcc


@<TRIPOS>ATOM
      1 C1          4.5240   -0.5770    0.1800 c1        1 CCX     -0.035500
      2 C2          5.2890    0.1450   -0.6980 c1        1 CCX     -0.035500
      3 C3          5.0110   -1.7860    0.7060 c1        1 CCX     -0.093000
      4 C4          6.5590   -0.3230   -1.0710 c1        1 CCX     -0.093000
      5 C5          6.2680   -2.2490    0.3360 c1        1 CCX     -0.048000
      6 C6          7.0410   -1.5190   -0.5510 c1        1 CCX     -0.077000
      7 C7          3.3340    0.0970    0.3630 c1        1 CCX     -0.121000
      8 C8          3.3710    1.2410   -0.4080 c1        1 CCX     -0.044500
      9 N9          4.5730    1.2720   -1.0620 n1        1 CCX     -0.196500
     10 C10         1.9490   -0.4210    0.7650 c2        1 CCX     -0.093000
     11 C11         6.8600   -3.5050    0.9390 c1        1 CCX     -0.090000
     12 N12         7.3070   -4.4540    1.3940 n1        1 CCX     -0.050000
     13 C13         1.5600    0.1620    2.1160 c3        1 CCX     -0.151000
     14 C14         0.1450   -0.3160    2.4930 c3        1 CCX     -0.196000
     15 C15        -0.0450   -1.7620    2.0330 c3        1 CCX     -0.063000
     16 C16        -3.7320   -1.0340    2.0500 c3        1 CCX     -0.173000
     17 C17        -4.0250   -1.4720    0.6630 c3        1 CCX      0.023000
     18 C18        -2.2440   -0.8590    2.2980 c3        1 CCX     -0.064000
     19 C19        -3.2340   -2.6670    0.2710 c3        1 CCX     -0.173000
     20 N20        -1.4630   -2.0460    1.9020 n3        1 CCX     -0.266000
     21 C21        -1.7500   -2.4860    0.5250 c3        1 CCX     -0.064000
     22 N22        -3.7130   -0.3680   -0.2620 n         1 CCX     -0.369000
     23 C23        -2.3780   -0.1580   -0.6900 c2        1 CCX      0.359000
     24 C24        -2.0540    0.9950   -1.6090 c2        1 CCX     -0.128000
     25 C25        -2.4080    2.7460   -3.7320 c1        1 CCX     -0.109000
     26 C26        -2.8560    3.1000   -2.4480 c1        1 CCX     -0.061000
     27 C27        -1.7880    1.5220   -3.9390 c1        1 CCX     -0.109000
     28 C28        -2.6810    2.2340   -1.3990 c1        1 CCX      0.034000
     29 C29        -1.6110    0.6470   -2.8770 c1        1 CCX     -0.084000
     30 C30        -3.3790    4.2710   -1.9480 c1        1 CCX     -0.121000
     31 C31        -3.5260    4.1240   -0.5820 c1        1 CCX     -0.044500
     32 N32        -3.0970    2.8720   -0.2430 n1        1 CCX     -0.196500
     33 C33        -3.5450    5.6280   -2.5980 c1        1 CCX     -0.060000
     34 N34        -3.6690    6.6480   -3.0860 n1        1 CCX     -0.056000
     35 O35        -1.5010   -0.8790   -0.2990 o         1 CCX     -0.407000
     36 H3          4.4660   -2.3010    1.3320 ha        1 CCX      0.143500
     37 H4          7.1050    0.1930   -1.6970 ha        1 CCX      0.143500
     38 H6          7.9230   -1.8430   -0.8100 ha        1 CCX      0.144000
     39 H8          2.6530    1.8950   -0.4960 DU        1 CCX      0.223000
     40 HN9         4.8530    1.9220   -1.6370 DU        1 CCX      0.223000
     41 H10         1.2940   -0.1510    0.0950 ha        1 CCX      0.088000
     42 H10A        1.9700   -1.3930    0.8260 ha        1 CCX      0.088000
     43 H13         2.1990   -0.1370    2.7980 hc        1 CCX      0.083500
     44 H13A        1.5720    1.1420    2.0640 hc        1 CCX      0.083500
     45 H14         0.0310   -0.2650    3.4680 hc        1 CCX      0.080000
     46 H14A       -0.5160    0.2530    2.0590 hc        1 CCX      0.080000
     47 H15         0.3930   -1.8880    1.1720 h1        1 CCX      0.093000
     48 H15A        0.3500   -2.3690    2.6920 h1        1 CCX      0.093000
     49 H16        -4.1810   -0.1840    2.2150 hc        1 CCX      0.099000
     50 H16A       -4.0810   -1.7040    2.6740 hc        1 CCX      0.099000
     51 H17        -4.9780   -1.6850    0.5920 h1        1 CCX      0.132000
     52 H18        -1.9280   -0.0910    1.7900 h1        1 CCX      0.068000
     53 H18A       -2.1000   -0.6900    3.2490 h1        1 CCX      0.068000
     54 H19        -3.5500   -3.4350    0.7810 hc        1 CCX      0.099000
     55 H19A       -3.3740   -2.8410   -0.6850 hc        1 CCX      0.099000
     56 H21        -1.2970   -3.3350    0.3640 h1        1 CCX      0.068000
     57 H21A       -1.4050   -1.8250   -0.0920 h1        1 CCX      0.068000
     58 HN22       -4.3840    0.1530   -0.5930 hn        1 CCX      0.225000
     59 H25        -2.5320    3.3620   -4.4790 ha        1 CCX      0.143000
     60 H27        -1.4760    1.2760   -4.8340 ha        1 CCX      0.143000
     61 H29        -1.1750   -0.2150   -3.0220 ha        1 CCX      0.132000
     62 H31        -3.8360    4.8130    0.0390 DU        1 CCX      0.223000
     63 HN32       -3.0870    2.5180    0.5990 DU        1 CCX      0.223000
@<TRIPOS>BOND
     1    1    3 1   
     2    2    4 1   
     3    3   36 1   
     4    4   37 1   
     5    5    6 1   
     6    5   11 1   
     7    6   38 1   
     8    7    8 1   
     9    8    9 1   
    10   10   13 1   
    11   10   41 1   
    12   10   42 1   
    13   11   12 1   
    14   13   14 1   
    15   13   43 1   
    16   13   44 1   
    17   14   15 1   
    18   14   45 1   
    19   14   46 1   
    20   15   20 1   
    21   15   47 1   
    22   15   48 1   
    23   16   17 1   
    24   16   18 1   
    25   16   49 1   
    26   16   50 1   
    27   17   19 1   
    28   17   22 1   
    29   17   51 1   
    30   18   20 1   
    31   18   52 1   
    32   18   53 1   
    33   19   21 1   
    34   19   54 1   
    35   19   55 1   
    36   20   21 1   
    37   21   56 1   
    38   21   57 1   
    39   22   23 1   
    40   22   58 1   
    41   23   24 1   
    42   23   35 1   
    43   24   28 1   
    44   24   29 1   
    45   25   27 1   
    46   25   59 1   
    47   26   28 1   
    48   27   60 1   
    49   29   61 1   
    50   30   31 1   
    51   31   32 1   
    52   33   34 1   
@<TRIPOS>SUBSTRUCTURE
     1 CCX         1 TEMP              0 ****  ****    0 ROOT
