@<TRIPOS>MOLECULE
CCY
   40    39     1     0     0
SMALL
bcc


@<TRIPOS>ATOM
      1 C1         -1.4020   -0.9170   -1.1970 c3        1 CCY      0.080000
      2 N2          0.0770   -1.0180   -1.1800 n3        1 CCY     -0.292000
      3 CA2         0.4220   -0.8950    0.1310 c3        1 CCY     -0.071000
      4 C2         -0.8310   -1.4500    0.8550 c2        1 CCY      0.280000
      5 O2         -0.8490   -1.9500    1.9640 o         1 CCY     -0.395000
      6 N3         -1.8400   -1.0240    0.2220 n         1 CCY     -0.289000
      7 CA3        -2.9690   -0.4090    0.7900 c3        1 CCY     -0.095000
      8 C3         -3.9490   -1.4880    1.2680 c2        1 CCY      0.331000
      9 O3         -4.9310   -1.8070    0.5490 o         1 CCY     -0.571000
     10 CA1        -1.8150    0.3320   -1.7480 c3        1 CCY     -0.044000
     11 N1         -0.7290    0.9290   -2.4590 n3        1 CCY     -0.328000
     12 CB1        -3.0170    0.0880   -2.7380 c3        1 CCY     -0.266000
     13 SG         -2.7060    0.9420   -4.2770 sh        1 CCY     -0.104000
     14 CB2         0.8000    0.5270    0.5460 c3        1 CCY     -0.105000
     15 CG          2.1920    0.5280    1.1440 c2        1 CCY     -0.100000
     16 CD1         2.3970    1.0460    2.4140 c2        1 CCY     -0.091000
     17 CD2         3.2630    0.1150    0.3970 c1        1 CCY     -0.096000
     18 CE1         3.6750    1.1450    2.9230 c1        1 CCY     -0.157000
     19 CE2         4.5540    0.2170    0.9160 c1        1 CCY     -0.223000
     20 CZ          4.7490    0.7300    2.1730 c1        1 CCY      0.061000
     21 OH          6.0930    0.7960    2.7320 oh        1 CCY     -0.261000
     22 OXT        -3.8340   -1.9810    2.4540 o         1 CCY     -0.571000
     23 H1         -1.7760   -1.6430   -1.7110 h2        1 CCY      0.154000
     24 HN2         0.3160   -1.8110   -1.4690 hn        1 CCY      0.148000
     25 HA2         1.1970   -1.3730    0.3410 h1        1 CCY      0.104000
     26 HA31       -2.6900    0.1480    1.5610 h1        1 CCY      0.085500
     27 HA32       -3.4130    0.1660    0.1060 h1        1 CCY      0.085500
     28 HA1        -2.1080    0.9450   -1.0070 h1        1 CCY      0.159000
     29 HN11       -0.8820    0.8630   -3.3620 hn        1 CCY      0.138500
     30 HN12       -0.6640    1.7850   -2.2330 hn        1 CCY      0.138500
     31 HB11       -3.8750    0.4380   -2.3220 h1        1 CCY      0.120000
     32 HB12       -3.1050   -0.8510   -2.9070 h1        1 CCY      0.120000
     33 HSG        -3.6620    0.8970   -4.9480 hs        1 CCY      0.060000
     34 HB21        0.1250    0.8710    1.2460 hc        1 CCY      0.104500
     35 HB22        0.7820    1.0860   -0.2070 hc        1 CCY      0.104500
     36 HD1         1.6290    1.3440    2.9540 ha        1 CCY      0.183000
     37 HD2         3.1210   -0.2580   -0.5160 ha        1 CCY      0.129000
     38 HE1         3.8180    1.5100    3.8190 ha        1 CCY      0.146000
     39 HE2         5.2980   -0.0690    0.4000 ha        1 CCY      0.122000
     40 HO          6.5360    1.4960    2.3730 ho        1 CCY      0.208000
@<TRIPOS>BOND
     1    1    2 1   
     2    1    6 1   
     3    1   10 1   
     4    1   23 1   
     5    2    3 1   
     6    2   24 1   
     7    3    4 1   
     8    3   14 1   
     9    3   25 1   
    10    4    5 1   
    11    4    6 1   
    12    6    7 1   
    13    7    8 1   
    14    7   26 1   
    15    7   27 1   
    16    8    9 1   
    17    8   22 1   
    18   10   11 1   
    19   10   12 1   
    20   10   28 1   
    21   11   29 1   
    22   11   30 1   
    23   12   13 1   
    24   12   31 1   
    25   12   32 1   
    26   13   33 1   
    27   14   15 1   
    28   14   34 1   
    29   14   35 1   
    30   15   16 1   
    31   15   17 1   
    32   16   18 1   
    33   16   36 1   
    34   17   37 1   
    35   18   38 1   
    36   19   20 1   
    37   19   39 1   
    38   20   21 1   
    39   21   40 1   
@<TRIPOS>SUBSTRUCTURE
     1 CCY         1 TEMP              0 ****  ****    0 ROOT
