@<TRIPOS>MOLECULE
CCY
   40    41     1     0     0
SMALL
bcc


@<TRIPOS>ATOM
      1 C1          1.5260   -0.3560   -0.1450 c3        1 CCY      0.273900
      2 N2          0.1150   -0.0610   -0.5240 n3        1 CCY     -0.804200
      3 CA2        -0.2440    1.2040    0.1340 c3        1 CCY      0.069500
      4 C2          1.0560    1.7300    0.8020 c         1 CCY      0.682500
      5 O2          1.1260    2.7770    1.4570 o         1 CCY     -0.620500
      6 N3          2.1090    0.8020    0.5850 n         1 CCY     -0.384800
      7 CA3         3.3300    1.3300    0.0030 c3        1 CCY     -0.078000
      8 C3          3.3190    1.5950   -1.5320 c         1 CCY      0.893600
      9 O3          2.2480    1.4010   -2.1800 o         1 CCY     -0.839800
     10 CA1         1.6390   -1.6750    0.7070 c3        1 CCY      0.192500
     11 N1          0.8090   -1.6900    1.8870 n3        1 CCY     -0.887800
     12 CB1         1.4020   -2.8360   -0.2730 c3        1 CCY     -0.024300
     13 SG          1.7170   -4.3680    0.5750 sh        1 CCY     -0.420900
     14 CB2        -1.3550    1.0950    1.1790 c3        1 CCY     -0.024100
     15 CG         -2.6740    0.7650    0.5760 ca        1 CCY     -0.090300
     16 CD1        -2.9840   -0.5560    0.2330 ca        1 CCY     -0.088000
     17 CD2        -3.6270    1.7700    0.3590 ca        1 CCY     -0.088000
     18 CE1        -4.2240   -0.8770   -0.3140 ca        1 CCY     -0.188500
     19 CE2        -4.8720    1.4700   -0.1850 ca        1 CCY     -0.188500
     20 CZ         -5.1660    0.1400   -0.5200 ca        1 CCY      0.105100
     21 OH         -6.4170   -0.1040   -1.0480 oh        1 CCY     -0.509100
     22 OXT         4.4050    1.9790   -2.0380 o         1 CCY     -0.839800
     23 H1          2.1340   -0.5490   -1.0860 h2        1 CCY      0.096700
     24 HN2         0.0980    0.0850   -1.5210 hn        1 CCY      0.382800
     25 HA2        -0.5520    1.9770   -0.6300 h1        1 CCY      0.080700
     26 HA31        3.5700    2.2980    0.5210 h1        1 CCY      0.056200
     27 HA32        4.1470    0.5910    0.2240 h1        1 CCY      0.056200
     28 HA1         2.7120   -1.7410    1.0630 h1        1 CCY      0.078700
     29 HN11       -0.1490   -1.5080    1.6580 hn        1 CCY      0.345800
     30 HN12        0.8670   -2.5890    2.3300 hn        1 CCY      0.345800
     31 HB11        0.3550   -2.8220   -0.6560 h1        1 CCY      0.070200
     32 HB12        2.0960   -2.7390   -1.1410 h1        1 CCY      0.070200
     33 HSG         1.3630   -5.2030   -0.3850 hs        1 CCY      0.195800
     34 HB21       -1.0920    0.3290    1.9530 hc        1 CCY      0.062700
     35 HB22       -1.4050    2.0910    1.7010 hc        1 CCY      0.062700
     36 HD1        -2.2310   -1.3450    0.3870 ha        1 CCY      0.140500
     37 HD2        -3.3860    2.8120    0.6200 ha        1 CCY      0.140500
     38 HE1        -4.4600   -1.9140   -0.5870 ha        1 CCY      0.132000
     39 HE2        -5.6210    2.2540   -0.3590 ha        1 CCY      0.132000
     40 HO         -6.4560   -1.0420   -1.2810 ho        1 CCY      0.411000
@<TRIPOS>BOND
     1    1    2 1   
     2    1    6 1   
     3    1   10 1   
     4    1   23 1   
     5    2    3 1   
     6    2   24 1   
     7    3    4 1   
     8    3   14 1   
     9    3   25 1   
    10    4    5 2   
    11    4    6 1   
    12    6    7 1   
    13    7    8 1   
    14    7   26 1   
    15    7   27 1   
    16    8    9 1   
    17    8   22 1   
    18   10   11 1   
    19   10   12 1   
    20   10   28 1   
    21   11   29 1   
    22   11   30 1   
    23   12   13 1   
    24   12   31 1   
    25   12   32 1   
    26   13   33 1   
    27   14   15 1   
    28   14   34 1   
    29   14   35 1   
    30   15   16 ar  
    31   15   17 ar  
    32   16   18 ar  
    33   16   36 1   
    34   17   19 ar  
    35   17   37 1   
    36   18   20 ar  
    37   18   38 1   
    38   19   20 ar  
    39   19   39 1   
    40   20   21 1   
    41   21   40 1   
@<TRIPOS>SUBSTRUCTURE
     1 CCY         1 TEMP              0 ****  ****    0 ROOT
