@<TRIPOS>MOLECULE
CCZ
   34    35     1     0     0
SMALL
bcc


@<TRIPOS>ATOM
      1 P          -0.9170    0.1350   -0.2420 p5        1 CCZ      1.350600
      2 N1          6.6030   -0.7980    0.1280 n2        1 CCZ     -0.839100
      3 C2          4.3150   -0.0190    0.1270 ca        1 CCZ     -0.179900
      4 N2          6.0750    1.3490   -0.8750 nh        1 CCZ     -0.955800
      5 C3          3.6270    1.0260    0.7540 ca        1 CCZ     -0.103500
      6 C4          2.2710    0.8980    1.0350 ca        1 CCZ     -0.137500
      7 C5          1.5670   -0.2680    0.6840 ca        1 CCZ      0.006700
      8 C6          2.2790   -1.3190    0.0830 ca        1 CCZ     -0.137500
      9 C7          3.6380   -1.1980   -0.1950 ca        1 CCZ     -0.103500
     10 C8          0.1380   -0.4070    0.9960 c3        1 CCZ     -0.287300
     11 C01        -3.5660    0.0350    0.1230 ca        1 CCZ      0.237100
     12 C02        -4.2210    1.2590    0.3830 ca        1 CCZ     -0.183000
     13 C03        -5.5340    1.4470   -0.0360 ca        1 CCZ     -0.119000
     14 C04        -6.2190    0.4330   -0.7060 ca        1 CCZ     -0.195000
     15 C05        -5.5770   -0.7780   -0.9650 ca        1 CCZ     -0.119000
     16 C06        -4.2650   -0.9870   -0.5550 ca        1 CCZ     -0.183000
     17 OP1        -0.8770    1.6030   -0.3630 o         1 CCZ     -0.835000
     18 OP2        -2.3420   -0.1990    0.6270 os        1 CCZ     -0.510500
     19 OP3        -0.9280   -0.8080   -1.3740 o         1 CCZ     -0.835000
     20 HN1         7.5520   -0.6530   -0.1470 hn        1 CCZ      0.364400
     21 HN2         6.8560    1.3260   -1.4890 hn        1 CCZ      0.390800
     22 HN2A        5.2890    1.8310   -1.2470 hn        1 CCZ      0.390800
     23 H3          4.1550    1.9490    1.0340 ha        1 CCZ      0.129500
     24 H4          1.7320    1.7300    1.5140 ha        1 CCZ      0.145500
     25 H6          1.7470   -2.2430   -0.1930 ha        1 CCZ      0.145500
     26 H7          4.1770   -2.0320   -0.6680 ha        1 CCZ      0.129500
     27 H8         -0.1040    0.1650    1.9290 hc        1 CCZ      0.082700
     28 H8A        -0.1020   -1.4810    1.2060 hc        1 CCZ      0.082700
     29 H02        -3.6720    2.0610    0.8960 ha        1 CCZ      0.145000
     30 H03        -6.0340    2.4050    0.1620 ha        1 CCZ      0.106500
     31 H04        -7.2550    0.5890   -1.0320 ha        1 CCZ      0.105000
     32 H05        -6.1120   -1.5750   -1.5010 ha        1 CCZ      0.106500
     33 H06        -3.7500   -1.9340   -0.7720 ha        1 CCZ      0.145000
     34 C1          5.7610    0.1300   -0.2210 ce        1 CCZ      0.659800
@<TRIPOS>BOND
     1    1   10 1   
     2    1   17 1   
     3    1   18 1   
     4    1   19 1   
     5    2   20 1   
     6    2   34 2   
     7    3    5 ar  
     8    3    9 ar  
     9    3   34 1   
    10    4   21 1   
    11    4   22 1   
    12    4   34 1   
    13    5    6 ar  
    14    5   23 1   
    15    6    7 ar  
    16    6   24 1   
    17    7    8 ar  
    18    7   10 1   
    19    8    9 ar  
    20    8   25 1   
    21    9   26 1   
    22   10   27 1   
    23   10   28 1   
    24   11   12 ar  
    25   11   16 ar  
    26   11   18 1   
    27   12   13 ar  
    28   12   29 1   
    29   13   14 ar  
    30   13   30 1   
    31   14   15 ar  
    32   14   31 1   
    33   15   16 ar  
    34   15   32 1   
    35   16   33 1   
@<TRIPOS>SUBSTRUCTURE
     1 CCZ         1 TEMP              0 ****  ****    0 ROOT
