@<TRIPOS>MOLECULE
CCZ
   34    27     1     0     0
SMALL
bcc


@<TRIPOS>ATOM
      1 P          -0.6100   -0.9710   -0.6240 p3        1 CCZ      2.630000
      2 C1          3.2700    3.4240    2.5880 c1        1 CCZ      0.127000
      3 N1          2.4280    4.1590    3.2640 n1        1 CCZ     -0.330000
      4 C2          2.7580    2.3140    1.6980 c1        1 CCZ     -0.151000
      5 N2          4.6640    3.6680    2.6880 n3        1 CCZ     -0.336000
      6 C3          2.5640    1.0790    2.2960 c2        1 CCZ     -0.100000
      7 C4          2.0290    0.0310    1.5630 c1        1 CCZ     -0.139000
      8 C5          1.6890    0.2190    0.2310 c1        1 CCZ      0.019000
      9 C6          1.8830    1.4540   -0.3660 c1        1 CCZ     -0.134000
     10 C7          2.4180    2.5020    0.3670 c1        1 CCZ     -0.115000
     11 C8          1.2060   -0.9540   -0.5980 c3        1 CCZ     -0.781000
     12 C01        -2.4970   -2.3020   -1.7490 c1        1 CCZ      0.190000
     13 C02        -3.2120   -3.1470   -0.9150 c1        1 CCZ     -0.153750
     14 C03        -4.5680   -3.3450   -1.1260 c1        1 CCZ     -0.153750
     15 C04        -5.2080   -2.6990   -2.1720 c1        1 CCZ     -0.153750
     16 C05        -4.4920   -1.8540   -3.0070 c1        1 CCZ     -0.153750
     17 C06        -3.1370   -1.6560   -2.7960 c1        1 CCZ     -0.183000
     18 OP1        -1.1310   -1.1930    0.7760 o         1 CCZ     -1.152500
     19 OP2        -1.1130   -2.1390   -1.5650 o         1 CCZ     -0.700000
     20 OP3        -1.1190    0.3500   -1.1460 o         1 CCZ     -1.152500
     21 HN1         1.5310    4.0020    3.2000 DU        1 CCZ      0.151000
     22 HN2         5.2430    3.2530    2.1150 hn        1 CCZ      0.184500
     23 HN2A        4.9820    4.2530    3.3150 hn        1 CCZ      0.184500
     24 H3          2.8220    0.9420    3.2270 ha        1 CCZ      0.132000
     25 H4          1.8920   -0.8380    1.9830 ha        1 CCZ      0.148000
     26 H6          1.6440    1.5860   -1.3020 ha        1 CCZ      0.148000
     27 H7          2.5530    3.3720   -0.0520 ha        1 CCZ      0.122000
     28 H8          1.5440   -0.8680   -1.5130 hc        1 CCZ      0.122000
     29 H8A         1.5350   -1.7870   -0.2060 hc        1 CCZ      0.122000
     30 H02        -2.7550   -3.6250   -0.1970 ha        1 CCZ      0.116000
     31 H03        -5.0720   -3.9400   -0.5380 ha        1 CCZ      0.116000
     32 H04        -6.1630   -2.8390   -2.3210 ha        1 CCZ      0.116000
     33 H05        -4.9460   -1.3890   -3.7360 ha        1 CCZ      0.116000
     34 H06        -2.6330   -1.0620   -3.3830 ha        1 CCZ      0.145000
@<TRIPOS>BOND
     1    1   11 1   
     2    1   18 1   
     3    1   20 1   
     4    2    3 1   
     5    2    5 1   
     6    4    6 1   
     7    4   10 1   
     8    5   22 1   
     9    5   23 1   
    10    6    7 1   
    11    6   24 1   
    12    7   25 1   
    13    8    9 1   
    14    8   11 1   
    15    9   26 1   
    16   10   27 1   
    17   11   28 1   
    18   11   29 1   
    19   12   17 1   
    20   12   19 1   
    21   13   14 1   
    22   13   30 1   
    23   14   31 1   
    24   15   16 1   
    25   15   32 1   
    26   16   33 1   
    27   17   34 1   
@<TRIPOS>SUBSTRUCTURE
     1 CCZ         1 TEMP              0 ****  ****    0 ROOT
