@<TRIPOS>MOLECULE
CCZ
   35    46     1     0     0
SMALL
bcc


@<TRIPOS>ATOM
      1 P           0.0000    0.0000    0.0000 p5        1 CCZ      1.278000
      2 N1          3.9520   -5.0010    3.5790 n2        1 CCZ      0.420000
      3 C2          3.2470   -3.6540    1.7060 c2        1 CCZ     -0.280000
      4 N2          3.9740   -6.0110    1.4880 nz        1 CCZ      0.167000
      5 C3          3.0150   -3.5660    0.3340 c3        1 CCZ     -0.417000
      6 C4          2.5550   -2.3840   -0.2110 c2        1 CCZ     -0.198000
      7 C5          2.3250   -1.2880    0.6020 c3        1 CCZ      0.319000
      8 C6          2.5550   -1.3700    1.9630 c3        1 CCZ     -0.262000
      9 C7          3.0090   -2.5480    2.5200 c2        1 CCZ     -0.298000
     10 C8          1.8230    0.0000    0.0000 c3        1 CCZ     -0.311000
     11 C01        -1.8860    1.3550   -0.9090 c3        1 CCZ      0.154000
     12 C02        -2.4780    0.8020   -2.0360 c3        1 CCZ     -0.364000
     13 C03        -3.8510    0.8440   -2.1840 c3        1 CCZ     -0.156000
     14 C04        -4.6350    1.4370   -1.2120 c3        1 CCZ     -0.267000
     15 C05        -4.0480    1.9880   -0.0890 c3        1 CCZ     -0.318000
     16 C06        -2.6760    1.9430    0.0680 c2        1 CCZ     -0.375000
     17 OP1        -0.5370    0.0000    1.5170 o         1 CCZ     -0.550500
     18 OP2        -0.5360    1.3140   -0.7600 os        1 CCZ     -0.554000
     19 OP3        -0.4930   -1.2090   -0.6980 o         1 CCZ     -0.550500
     20 HN1         3.8420   -5.1050    2.5890 DU        1 CCZ     -0.707000
     21 HN2         3.9130   -5.4500    2.3150 DU        1 CCZ     -0.094000
     22 HN2A        3.2450   -6.6750    1.3180 hn        1 CCZ      0.123000
     23 H3          3.6320   -4.4200    0.5820 hc        1 CCZ      0.286000
     24 H4          2.8790   -3.4160   -0.2590 DU        1 CCZ      0.299000
     25 H6          2.4970   -1.6720    0.9240 hc        1 CCZ      0.038000
     26 H7          2.6920   -1.5120    2.5580 DU        1 CCZ      0.299000
     27 H8          2.1550   -0.6040    0.8350 DU        1 CCZ      0.102000
     28 H8A         2.1840    0.8370    0.5850 hc        1 CCZ      0.091000
     29 H02        -1.4310    0.6420   -1.8080 DU        1 CCZ      0.415000
     30 H03        -2.8450    0.5880   -2.4970 DU        1 CCZ      0.245000
     31 H04        -4.4730    0.9190   -2.1500 DU        1 CCZ      0.222000
     32 H05        -4.8900    1.7260   -0.7170 DU        1 CCZ      0.212000
     33 H06        -3.6820    2.2000    0.3760 DU        1 CCZ      0.252000
     34 H23         3.4220   -5.1790    1.4210 DU        1 CCZ      0.159000
     35 C1          3.7400   -4.9200    2.2960 c3        1 CCZ      0.623000
@<TRIPOS>BOND
     1    1   10 1   
     2    1   17 1   
     3    1   18 1   
     4    1   19 1   
     5    2   20 1   
     6    2   35 1   
     7    3    5 1   
     8    3    9 1   
     9    3   35 1   
    10    4   21 1   
    11    4   22 1   
    12    4   34 1   
    13    4   35 1   
    14    5    6 1   
    15    5   23 1   
    16    5   24 1   
    17    6    7 1   
    18    6   24 1   
    19    7    8 1   
    20    7   10 1   
    21    7   27 1   
    22    8    9 1   
    23    8   25 1   
    24    8   26 1   
    25    9   26 1   
    26   10   27 1   
    27   10   28 1   
    28   11   12 1   
    29   11   16 1   
    30   11   18 1   
    31   11   29 1   
    32   12   13 1   
    33   12   29 1   
    34   12   30 1   
    35   13   14 1   
    36   13   30 1   
    37   13   31 1   
    38   14   15 1   
    39   14   31 1   
    40   14   32 1   
    41   15   16 1   
    42   15   32 1   
    43   15   33 1   
    44   16   33 1   
    45   20   21 1   
    46   34   35 1   
@<TRIPOS>SUBSTRUCTURE
     1 CCZ         1 TEMP              0 ****  ****    0 ROOT
