@<TRIPOS>MOLECULE
CCZ
   34    34     1     0     0
SMALL
bcc


@<TRIPOS>ATOM
      1 P          -0.2210   -0.1080    1.1330 p5        1 CCZ      1.372600
      2 N1          4.4700    5.5770    1.6550 n2        1 CCZ     -0.853100
      3 C2          3.3250    3.4790    2.3230 ce        1 CCZ     -0.111300
      4 N2          4.6090    4.8430    3.9040 nh        1 CCZ     -0.894800
      5 C3          3.7980    2.2540    2.6480 cf        1 CCZ     -0.048000
      6 C4          3.1140    0.9950    2.4710 cf        1 CCZ     -0.211000
      7 C5          2.1780    0.7450    1.5410 c2        1 CCZ     -0.069200
      8 C6          0.9760    3.7830    1.2480 c1        1 CCZ     -0.050500
      9 C7          2.0670    3.6960    1.7380 cg        1 CCZ     -0.248300
     10 C8          1.4090   -0.4940    1.4170 c3        1 CCZ     -0.328400
     11 C01        -1.5800   -1.5080   -0.7580 c2        1 CCZ      0.237800
     12 C02        -2.7490   -2.0630    0.0370 c3        1 CCZ     -0.102000
     13 C03        -4.0280   -1.5520   -0.5570 c2        1 CCZ     -0.171200
     14 C04        -4.1370   -1.1380   -1.8380 ce        1 CCZ     -0.149000
     15 C05        -2.9930   -1.3710   -2.7280 ce        1 CCZ     -0.185100
     16 C06        -1.8330   -1.4800   -2.0920 c1        1 CCZ     -0.185800
     17 OP1        -1.0840   -0.6820    2.1830 o         1 CCZ     -0.839500
     18 OP2        -0.4370   -1.1780   -0.1820 os        1 CCZ     -0.477500
     19 OP3        -0.4040    1.2500    0.5910 o         1 CCZ     -0.839500
     20 HN1         4.1530    5.3300    0.7420 hn        1 CCZ      0.398400
     21 HN2         4.9460    5.7500    4.1450 hn        1 CCZ      0.387800
     22 HN2A        3.9540    4.4860    4.5660 hn        1 CCZ      0.387800
     23 H3          4.7930    2.1780    3.1240 ha        1 CCZ      0.123000
     24 H4          3.4100    0.2070    3.1860 ha        1 CCZ      0.115000
     25 H6          1.8900    1.5080    0.7870 ha        1 CCZ      0.168000
     26 H7          0.0080    3.7380    0.8010 ha        1 CCZ      0.201500
     27 H8          1.8110   -1.0950    0.5580 hc        1 CCZ      0.095200
     28 H8A         1.5040   -1.1410    2.3250 hc        1 CCZ      0.095200
     29 H02        -2.6250   -1.6920    1.0990 hc        1 CCZ      0.099700
     30 H03        -2.7620   -3.1830    0.0580 hc        1 CCZ      0.099700
     31 H04        -4.8830   -1.5360    0.1330 ha        1 CCZ      0.112000
     32 H05        -5.0670   -0.7310   -2.2530 ha        1 CCZ      0.108000
     33 H06        -3.1670   -1.5560   -3.7910 ha        1 CCZ      0.118000
     34 C1          4.1480    4.7130    2.5720 ce        1 CCZ      0.645500
@<TRIPOS>BOND
     1    1   10 1   
     2    1   17 1   
     3    1   18 1   
     4    1   19 1   
     5    2   20 1   
     6    2   34 2   
     7    3    5 2   
     8    3    9 1   
     9    3   34 1   
    10    4   21 1   
    11    4   22 1   
    12    4   34 1   
    13    5    6 1   
    14    5   23 1   
    15    6    7 2   
    16    6   24 1   
    17    7   10 1   
    18    7   25 1   
    19    8    9 3   
    20    8   26 1   
    21   10   27 1   
    22   10   28 1   
    23   11   12 1   
    24   11   16 2   
    25   11   18 1   
    26   12   13 1   
    27   12   29 1   
    28   12   30 1   
    29   13   14 2   
    30   13   31 1   
    31   14   15 1   
    32   14   32 1   
    33   15   16 2   
    34   15   33 1   
@<TRIPOS>SUBSTRUCTURE
     1 CCZ         1 TEMP              0 ****  ****    0 ROOT
