@<TRIPOS>MOLECULE
CD2
   43    34     1     0     0
SMALL
bcc


@<TRIPOS>ATOM
      1 C1         -1.7060    1.1390   -7.2120 c1        1 CD2     -0.119500
      2 C2         -1.1440    2.3390   -6.7460 c1        1 CD2     -0.119500
      3 C3         -0.4410    2.3590   -5.5390 c1        1 CD2     -0.119500
      4 C4         -1.5610   -0.0430   -6.4640 c1        1 CD2     -0.119500
      5 C5         -0.8420   -0.0230   -5.2290 c1        1 CD2     -0.001000
      6 C6         -0.2930    1.1560   -4.7740 c1        1 CD2     -0.086000
      7 C7          0.4220    1.1780   -3.5640 c2        1 CD2     -0.059000
      8 C8          0.5700    0.0300   -2.8390 c1        1 CD2     -0.067000
      9 C9          0.0090   -1.1730   -3.3020 c1        1 CD2     -0.035000
     10 N10        -0.6880   -1.1960   -4.4840 n2        1 CD2     -0.142000
     11 C11         1.2460    0.1040   -1.6660 c1        1 CD2      0.041500
     12 N12         2.5910    0.1190   -1.6670 n1        1 CD2     -0.160000
     13 C13         3.2840    0.0770   -0.4750 c1        1 CD2     -0.079000
     14 C14         2.5940    0.0180    0.7260 c1        1 CD2     -0.167500
     15 C15         1.2400    0.0020    0.7270 c1        1 CD2      0.041500
     16 C16         0.5520    0.0450   -0.4620 c1        1 CD2     -0.167500
     17 C17         0.5200   -0.0160    1.9790 c1        1 CD2     -0.122000
     18 C18         0.0740    1.0880    2.6750 c1        1 CD2     -0.208000
     19 N19         0.1720   -1.1250    2.6850 n2        1 CD2     -0.096000
     20 N20        -0.4950   -0.7140    3.8270 n2        1 CD2     -0.096000
     21 C21        -0.5520    0.6450    3.8160 c1        1 CD2     -0.122000
     22 C22        -1.1700    1.5040    4.8690 c1        1 CD2      0.387000
     23 C23         0.0560   -2.0750    5.7370 c3        1 CD2     -0.085000
     24 C24        -1.0540   -1.5640    4.8200 c2        1 CD2     -0.061000
     25 O25        -2.3980    1.8490    4.7730 o         1 CD2     -0.549500
     26 N26        -0.5350   -2.8580    6.8320 n3        1 CD2     -0.343000
     27 O27        -0.4880    1.9090    5.8140 o         1 CD2     -0.549500
     28 H1         -2.2090    1.1250   -8.0730 ha        1 CD2      0.132750
     29 H2         -1.2510    3.2170   -7.3030 ha        1 CD2      0.132750
     30 H3         -0.0620    3.1710   -5.2240 ha        1 CD2      0.132750
     31 H4         -1.9540   -0.9040   -6.8040 ha        1 CD2      0.132750
     32 H7          0.8290    2.0480   -3.2290 ha        1 CD2      0.153000
     33 H9          0.1170   -2.0130   -2.7700 ha        1 CD2      0.172000
     34 H13         4.2190    0.0880   -0.4770 ha        1 CD2      0.147000
     35 H14         3.0800   -0.0120    1.5640 ha        1 CD2      0.156500
     36 H16        -0.4110    0.0330   -0.4620 ha        1 CD2      0.156500
     37 H18         0.1880    2.0500    2.3970 DU        1 CD2      0.167000
     38 H23         0.6790   -2.6520    5.2140 h1        1 CD2      0.078500
     39 H23A        0.5540   -1.3070    6.1130 h1        1 CD2      0.078500
     40 H24        -1.7180   -1.0520    5.3570 ha        1 CD2      0.120000
     41 H24A       -1.5160   -2.3530    4.3700 ha        1 CD2      0.120000
     42 HN26       -0.3080   -2.4600    7.6660 hn        1 CD2      0.162000
     43 HN2A       -0.2000   -3.7540    6.8030 hn        1 CD2      0.162000
@<TRIPOS>BOND
     1    1    4 1   
     2    1   28 1   
     3    2    3 1   
     4    2   29 1   
     5    3   30 1   
     6    4   31 1   
     7    5    6 1   
     8    5   10 1   
     9    6    7 1   
    10    7    8 1   
    11    7   32 1   
    12    9   10 1   
    13    9   33 1   
    14   11   16 1   
    15   12   13 1   
    16   13   34 1   
    17   14   15 1   
    18   14   35 1   
    19   16   36 1   
    20   17   18 1   
    21   17   19 1   
    22   18   21 1   
    23   19   20 1   
    24   20   21 1   
    25   22   25 1   
    26   22   27 1   
    27   23   24 1   
    28   23   26 1   
    29   23   38 1   
    30   23   39 1   
    31   24   40 1   
    32   24   41 1   
    33   26   42 1   
    34   26   43 1   
@<TRIPOS>SUBSTRUCTURE
     1 CD2         1 TEMP              0 ****  ****    0 ROOT
