@<TRIPOS>MOLECULE
CD2
   44    47     1     0     0
SMALL
bcc


@<TRIPOS>ATOM
      1 C1          0.1540   -0.2920   -0.0110 ca        1 CD2     -0.120000
      2 C2          1.4190   -0.9080    0.1360 ca        1 CD2     -0.130000
      3 C3          2.0470   -0.9160    1.3580 ca        1 CD2     -0.106000
      4 C4         -0.4690    0.3070    1.0550 ca        1 CD2     -0.167300
      5 C5          0.1570    0.3180    2.3420 ca        1 CD2      0.398600
      6 C6          1.4340   -0.3080    2.4830 ca        1 CD2     -0.154300
      7 C7          2.0560   -0.2990    3.7640 ca        1 CD2     -0.039000
      8 C8          1.4120    0.2990    4.8250 cp        1 CD2     -0.269800
      9 C9          0.1340    0.9120    4.5820 ca        1 CD2      0.426200
     10 N10        -0.4730    0.9290    3.4120 nb        1 CD2     -0.659000
     11 C11         1.9850    0.3330    6.1780 cp        1 CD2      0.462800
     12 N12         3.3290    0.4880    6.3170 nb        1 CD2     -0.659000
     13 C13         3.8230    0.5220    7.5650 ca        1 CD2      0.399200
     14 C14         3.0410    0.4050    8.7270 ca        1 CD2     -0.238300
     15 C15         1.6570    0.2340    8.5830 ca        1 CD2     -0.069500
     16 C16         1.1200    0.1970    7.2880 ca        1 CD2     -0.213300
     17 C17         0.8130    0.0930    9.7550 cc        1 CD2      0.339800
     18 C18         1.2450   -0.3310   11.0650 cc        1 CD2     -0.239300
     19 N19        -0.5390    0.3520    9.7800 nd        1 CD2     -0.472800
     20 N20        -0.9630    0.1430   11.0200 na        1 CD2      0.166400
     21 C21         0.0810   -0.3030   11.8570 cd        1 CD2     -0.190900
     22 C22        -0.0710   -0.6370   13.2720 c         1 CD2      0.689700
     23 C23        -3.1200   -1.1080   11.3630 c3        1 CD2      0.147800
     24 C24        -2.3610    0.2340   11.4190 c3        1 CD2      0.034300
     25 O25         0.8850   -1.4050   13.8690 oh        1 CD2     -0.565100
     26 N26        -2.5320   -2.1180   12.2030 n8        1 CD2     -0.935800
     27 O27        -0.9770   -0.2890   14.0340 o         1 CD2     -0.510000
     28 H1         -0.3280   -0.2990   -1.0010 ha        1 CD2      0.136000
     29 H2          1.8910   -1.3770   -0.7400 ha        1 CD2      0.135000
     30 H3          3.0310   -1.3910    1.4850 ha        1 CD2      0.136000
     31 H4         -1.4530    0.7870    0.9370 ha        1 CD2      0.151000
     32 H7          3.0430   -0.7730    3.8820 ha        1 CD2      0.155000
     33 H9         -0.3930    1.4210    5.4120 h4        1 CD2      0.027100
     34 H13         4.9180    0.6550    7.6370 h4        1 CD2      0.025100
     35 H14         3.5080    0.4530    9.7190 ha        1 CD2      0.145000
     36 H16         0.0410    0.0540    7.1310 ha        1 CD2      0.161000
     37 H18         2.2530   -0.5970   11.3630 ha        1 CD2      0.168000
     38 H23        -3.1230   -1.4920   10.3030 h1        1 CD2      0.043200
     39 H23A       -4.1890   -0.8610   11.6370 h1        1 CD2      0.043200
     40 H24        -2.3730    0.6400   12.4730 h1        1 CD2      0.090700
     41 H24A       -2.8870    0.9600   10.7360 h1        1 CD2      0.090700
     42 HN26       -2.5130   -1.8320   13.1630 hn        1 CD2      0.366800
     43 HN2A       -3.0220   -2.9840   12.1130 hn        1 CD2      0.366800
     44 H263        1.5290   -1.7100   13.2130 ho        1 CD2      0.435000
@<TRIPOS>BOND
     1    1    2 ar  
     2    1    4 ar  
     3    1   28 1   
     4    2    3 ar  
     5    2   29 1   
     6    3    6 ar  
     7    3   30 1   
     8    4    5 ar  
     9    4   31 1   
    10    5    6 ar  
    11    5   10 ar  
    12    6    7 ar  
    13    7    8 ar  
    14    7   32 1   
    15    8    9 ar  
    16    8   11 1   
    17    9   10 ar  
    18    9   33 1   
    19   11   12 ar  
    20   11   16 ar  
    21   12   13 ar  
    22   13   14 ar  
    23   13   34 1   
    24   14   15 ar  
    25   14   35 1   
    26   15   16 ar  
    27   15   17 1   
    28   16   36 1   
    29   17   18 1   
    30   17   19 2   
    31   18   21 2   
    32   18   37 1   
    33   19   20 1   
    34   20   21 1   
    35   20   24 1   
    36   21   22 1   
    37   22   25 1   
    38   22   27 2   
    39   23   24 1   
    40   23   26 1   
    41   23   38 1   
    42   23   39 1   
    43   24   40 1   
    44   24   41 1   
    45   25   44 1   
    46   26   42 1   
    47   26   43 1   
@<TRIPOS>SUBSTRUCTURE
     1 CD2         1 TEMP              0 ****  ****    0 ROOT
