@<TRIPOS>MOLECULE
CD2
   43    46     1     0     0
SMALL
bcc


@<TRIPOS>ATOM
      1 C1         -7.2000   -1.8240    0.4180 ca        1 CD2     -0.132000
      2 C2         -7.3440   -0.4560    0.7460 ca        1 CD2     -0.139000
      3 C3         -6.2780    0.4010    0.6210 ca        1 CD2     -0.106000
      4 C4         -6.0010   -2.3200   -0.0300 ca        1 CD2     -0.166300
      5 C5         -4.8700   -1.4540   -0.1730 ca        1 CD2      0.392600
      6 C6         -5.0230   -0.0740    0.1620 ca        1 CD2     -0.151300
      7 C7         -3.8980    0.7870    0.0210 ca        1 CD2     -0.059000
      8 C8         -2.7000    0.2720   -0.4230 cp        1 CD2     -0.239800
      9 C9         -2.6460   -1.1310   -0.7420 ca        1 CD2      0.430200
     10 N10        -3.6650   -1.9610   -0.6290 nb        1 CD2     -0.668000
     11 C11        -1.4940    1.0980   -0.5820 cp        1 CD2      0.433800
     12 N12        -1.6380    2.3720   -1.0400 nb        1 CD2     -0.685000
     13 C13        -0.5180    3.1010   -1.1760 ca        1 CD2      0.386200
     14 C14         0.7720    2.6360   -0.8760 ca        1 CD2     -0.239300
     15 C15         0.9210    1.3250   -0.3960 ca        1 CD2     -0.024500
     16 C16        -0.2400    0.5450   -0.2480 ca        1 CD2     -0.226300
     17 C17         2.2330    0.8140   -0.0640 cc        1 CD2      0.288800
     18 C18         3.4410    1.5950    0.0620 cc        1 CD2     -0.277300
     19 N19         2.5160   -0.5100    0.1830 nd        1 CD2     -0.561800
     20 N20         3.8210   -0.5820    0.4560 na        1 CD2      0.126400
     21 C21         4.4520    0.6750    0.3960 cd        1 CD2     -0.121900
     22 C22         5.9170    0.9930    0.6500 c         1 CD2      0.938200
     23 C23         4.5210   -2.8380   -0.4140 c3        1 CD2      0.140800
     24 C24         4.4780   -1.8400    0.7610 c3        1 CD2     -0.014700
     25 O25         6.6860    0.0740    1.0460 o         1 CD2     -0.809800
     26 N26         3.2680   -3.2140   -1.0130 n3        1 CD2     -0.909800
     27 O27         6.2630    2.1850    0.4450 o         1 CD2     -0.809800
     28 H1         -8.0680   -2.4910    0.5280 ha        1 CD2      0.127000
     29 H2         -8.3180   -0.0910    1.1020 ha        1 CD2      0.127000
     30 H3         -6.3760    1.4680    0.8730 ha        1 CD2      0.133000
     31 H4         -5.8910   -3.3860   -0.2850 ha        1 CD2      0.145000
     32 H7         -4.0050    1.8540    0.2690 ha        1 CD2      0.153000
     33 H9         -1.6980   -1.5660   -1.1140 h4        1 CD2      0.034100
     34 H13        -0.6680    4.1280   -1.5530 h4        1 CD2      0.011100
     35 H14         1.6480    3.2840   -1.0140 ha        1 CD2      0.156000
     36 H16        -0.1740   -0.4820    0.1380 ha        1 CD2      0.157000
     37 H18         3.5700    2.6640   -0.0620 ha        1 CD2      0.169000
     38 H23         5.1960   -2.4270   -1.2170 h1        1 CD2      0.053200
     39 H23A        5.0010   -3.7750   -0.0090 h1        1 CD2      0.053200
     40 H24         5.5410   -1.5950    1.0690 h1        1 CD2      0.093700
     41 H24A        3.9440   -2.3190    1.6300 h1        1 CD2      0.093700
     42 HN26        2.5770   -3.3790   -0.3070 hn        1 CD2      0.347800
     43 HN2A        2.9290   -2.4870   -1.6140 hn        1 CD2      0.347800
@<TRIPOS>BOND
     1    1    2 ar  
     2    1    4 ar  
     3    1   28 1   
     4    2    3 ar  
     5    2   29 1   
     6    3    6 ar  
     7    3   30 1   
     8    4    5 ar  
     9    4   31 1   
    10    5    6 ar  
    11    5   10 ar  
    12    6    7 ar  
    13    7    8 ar  
    14    7   32 1   
    15    8    9 ar  
    16    8   11 1   
    17    9   10 ar  
    18    9   33 1   
    19   11   12 ar  
    20   11   16 ar  
    21   12   13 ar  
    22   13   14 ar  
    23   13   34 1   
    24   14   15 ar  
    25   14   35 1   
    26   15   16 ar  
    27   15   17 1   
    28   16   36 1   
    29   17   18 1   
    30   17   19 2   
    31   18   21 2   
    32   18   37 1   
    33   19   20 1   
    34   20   21 1   
    35   20   24 1   
    36   21   22 1   
    37   22   25 1   
    38   22   27 1   
    39   23   24 1   
    40   23   26 1   
    41   23   38 1   
    42   23   39 1   
    43   24   40 1   
    44   24   41 1   
    45   26   42 1   
    46   26   43 1   
@<TRIPOS>SUBSTRUCTURE
     1 CD2         1 TEMP              0 ****  ****    0 ROOT
