@<TRIPOS>MOLECULE
CD2
   44    47     1     0     0
SMALL
bcc


@<TRIPOS>ATOM
      1 C1          0.1550   -0.1830    0.0370 ca        1 CD2     -0.120000
      2 C2          1.3270   -0.9590    0.1970 ca        1 CD2     -0.130000
      3 C3          1.9400   -1.0430    1.4230 ca        1 CD2     -0.106000
      4 C4         -0.3900    0.5000    1.0960 ca        1 CD2     -0.167300
      5 C5          0.2240    0.4360    2.3880 ca        1 CD2      0.398600
      6 C6          1.4060   -0.3530    2.5410 ca        1 CD2     -0.154300
      7 C7          2.0160   -0.4180    3.8260 ca        1 CD2     -0.039000
      8 C8          1.4510    0.2670    4.8800 cp        1 CD2     -0.269800
      9 C9          0.2670    1.0430    4.6240 ca        1 CD2      0.426200
     10 N10        -0.3260    1.1310    3.4500 nb        1 CD2     -0.659000
     11 C11         2.0140    0.2320    6.2360 cp        1 CD2      0.461800
     12 N12         3.3660    0.2060    6.3830 nb        1 CD2     -0.658000
     13 C13         3.8520    0.1780    7.6340 ca        1 CD2      0.399200
     14 C14         3.0540    0.1690    8.7920 ca        1 CD2     -0.235300
     15 C15         1.6610    0.1890    8.6390 ca        1 CD2     -0.070500
     16 C16         1.1320    0.2190    7.3410 ca        1 CD2     -0.215300
     17 C17         0.7990    0.1810    9.8080 cc        1 CD2      0.335800
     18 C18         1.2060    0.4870   11.1630 cc        1 CD2     -0.204300
     19 N19        -0.5410   -0.1190    9.7880 nd        1 CD2     -0.479800
     20 N20        -0.9900   -0.0220   11.0370 na        1 CD2      0.124400
     21 C21         0.0400    0.3370   11.9320 cd        1 CD2     -0.201900
     22 C22        -0.0990    0.5330   13.3790 c         1 CD2      0.668700
     23 C23        -2.8610   -1.6990   11.1920 c3        1 CD2      0.143800
     24 C24        -2.3790   -0.2480   11.4050 c3        1 CD2      0.040300
     25 O25        -0.7420   -0.4020   14.1350 oh        1 CD2     -0.583100
     26 N26        -2.0460   -2.6630   11.8880 n3        1 CD2     -0.938800
     27 O27         0.3360    1.4860   14.0220 o         1 CD2     -0.467000
     28 H1         -0.3170   -0.1320   -0.9560 ha        1 CD2      0.136000
     29 H2          1.7380   -1.4920   -0.6730 ha        1 CD2      0.135000
     30 H3          2.8530   -1.6430    1.5600 ha        1 CD2      0.136000
     31 H4         -1.3010    1.1050    0.9690 ha        1 CD2      0.151000
     32 H7          2.9310   -1.0170    3.9530 ha        1 CD2      0.155000
     33 H9         -0.1920    1.6230    5.4470 h4        1 CD2      0.026100
     34 H13         4.9550    0.1610    7.7140 h4        1 CD2      0.026100
     35 H14         3.5190    0.1440    9.7860 ha        1 CD2      0.147000
     36 H16         0.0450    0.2240    7.1740 ha        1 CD2      0.160000
     37 H18         2.1910    0.7840   11.5080 ha        1 CD2      0.182000
     38 H23        -2.9170   -1.8940   10.0810 h1        1 CD2      0.051200
     39 H23A       -3.9110   -1.7420   11.6000 h1        1 CD2      0.051200
     40 H24        -2.4910    0.0420   12.4880 h1        1 CD2      0.081200
     41 H24A       -3.0320    0.4260   10.7790 h1        1 CD2      0.081200
     42 HN26       -2.5550   -3.5070   12.0540 hn        1 CD2      0.365300
     43 HN2A       -1.2120   -2.8720   11.3770 hn        1 CD2      0.365300
     44 H263       -0.9550   -1.1890   13.6090 ho        1 CD2      0.453000
@<TRIPOS>BOND
     1    1    2 ar  
     2    1    4 ar  
     3    1   28 1   
     4    2    3 ar  
     5    2   29 1   
     6    3    6 ar  
     7    3   30 1   
     8    4    5 ar  
     9    4   31 1   
    10    5    6 ar  
    11    5   10 ar  
    12    6    7 ar  
    13    7    8 ar  
    14    7   32 1   
    15    8    9 ar  
    16    8   11 1   
    17    9   10 ar  
    18    9   33 1   
    19   11   12 ar  
    20   11   16 ar  
    21   12   13 ar  
    22   13   14 ar  
    23   13   34 1   
    24   14   15 ar  
    25   14   35 1   
    26   15   16 ar  
    27   15   17 1   
    28   16   36 1   
    29   17   18 1   
    30   17   19 2   
    31   18   21 2   
    32   18   37 1   
    33   19   20 1   
    34   20   21 1   
    35   20   24 1   
    36   21   22 1   
    37   22   25 1   
    38   22   27 2   
    39   23   24 1   
    40   23   26 1   
    41   23   38 1   
    42   23   39 1   
    43   24   40 1   
    44   24   41 1   
    45   25   44 1   
    46   26   42 1   
    47   26   43 1   
@<TRIPOS>SUBSTRUCTURE
     1 CD2         1 TEMP              0 ****  ****    0 ROOT
