@<TRIPOS>MOLECULE
CD2
   44    47     1     0     0
SMALL
bcc


@<TRIPOS>ATOM
      1 C1          0.1240    0.1990    0.0040 ca        1 CD2     -0.119000
      2 C2          1.4530    0.6690    0.1220 ca        1 CD2     -0.130000
      3 C3          2.0960    0.6310    1.3350 ca        1 CD2     -0.106000
      4 C4         -0.5470   -0.3030    1.0920 ca        1 CD2     -0.168300
      5 C5          0.0930   -0.3580    2.3710 ca        1 CD2      0.398600
      6 C6          1.4350    0.1210    2.4820 ca        1 CD2     -0.154300
      7 C7          2.0720    0.0680    3.7540 ca        1 CD2     -0.038000
      8 C8          1.3810   -0.4310    4.8370 cp        1 CD2     -0.269800
      9 C9          0.0370   -0.8980    4.6240 ca        1 CD2      0.425200
     10 N10        -0.5860   -0.8700    3.4630 nb        1 CD2     -0.659000
     11 C11         1.9660   -0.5010    6.1830 cp        1 CD2      0.461800
     12 N12         3.2850   -0.8090    6.3080 nb        1 CD2     -0.658000
     13 C13         3.7910   -0.8720    7.5500 ca        1 CD2      0.399200
     14 C14         3.0450   -0.6400    8.7190 ca        1 CD2     -0.235300
     15 C15         1.6880   -0.3150    8.5890 ca        1 CD2     -0.071500
     16 C16         1.1400   -0.2420    7.3000 ca        1 CD2     -0.215300
     17 C17         0.8840   -0.0550    9.7690 cc        1 CD2      0.335800
     18 C18         1.3910    0.2810   11.0820 cc        1 CD2     -0.204300
     19 N19        -0.4890   -0.0920    9.8020 nd        1 CD2     -0.479800
     20 N20        -0.8650    0.1960   11.0460 na        1 CD2      0.124400
     21 C21         0.2470    0.4250   11.8840 cd        1 CD2     -0.201900
     22 C22         0.2000    0.7680   13.3090 c         1 CD2      0.668700
     23 C23        -3.0140   -1.0690   11.3910 c3        1 CD2      0.143800
     24 C24        -2.2570    0.2750   11.4590 c3        1 CD2      0.040300
     25 O25        -0.5810    0.0440   14.1600 oh        1 CD2     -0.583100
     26 N26        -2.3720   -2.1070   12.1570 n3        1 CD2     -0.938800
     27 O27         0.8310    1.6720   13.8540 o         1 CD2     -0.467000
     28 H1         -0.3690    0.2400   -0.9790 ha        1 CD2      0.136000
     29 H2          1.9620    1.0630   -0.7700 ha        1 CD2      0.136000
     30 H3          3.1310    0.9920    1.4390 ha        1 CD2      0.137000
     31 H4         -1.5810   -0.6690    0.9970 ha        1 CD2      0.150000
     32 H7          3.1090    0.4280    3.8490 ha        1 CD2      0.155000
     33 H9         -0.5310   -1.3250    5.4720 h4        1 CD2      0.025100
     34 H13         4.8650   -1.1270    7.6120 h4        1 CD2      0.026100
     35 H14         3.5210   -0.7160    9.7060 ha        1 CD2      0.147000
     36 H16         0.0840    0.0250    7.1510 ha        1 CD2      0.160000
     37 H18         2.4270    0.4100   11.3790 ha        1 CD2      0.183000
     38 H23        -4.0370   -0.8730   11.8220 h1        1 CD2      0.051200
     39 H23A       -3.1470   -1.3450   10.3040 h1        1 CD2      0.051200
     40 H24        -2.2720    0.6740   12.5130 h1        1 CD2      0.081200
     41 H24A       -2.7930    1.0050   10.7870 h1        1 CD2      0.081200
     42 HN26       -3.0260   -2.8200   12.4110 hn        1 CD2      0.365300
     43 HN2A       -1.6130   -2.5170   11.6510 hn        1 CD2      0.365300
     44 H263       -0.9590   -0.7290   13.7130 ho        1 CD2      0.453000
@<TRIPOS>BOND
     1    1    2 ar  
     2    1    4 ar  
     3    1   28 1   
     4    2    3 ar  
     5    2   29 1   
     6    3    6 ar  
     7    3   30 1   
     8    4    5 ar  
     9    4   31 1   
    10    5    6 ar  
    11    5   10 ar  
    12    6    7 ar  
    13    7    8 ar  
    14    7   32 1   
    15    8    9 ar  
    16    8   11 1   
    17    9   10 ar  
    18    9   33 1   
    19   11   12 ar  
    20   11   16 ar  
    21   12   13 ar  
    22   13   14 ar  
    23   13   34 1   
    24   14   15 ar  
    25   14   35 1   
    26   15   16 ar  
    27   15   17 1   
    28   16   36 1   
    29   17   18 1   
    30   17   19 2   
    31   18   21 2   
    32   18   37 1   
    33   19   20 1   
    34   20   21 1   
    35   20   24 1   
    36   21   22 1   
    37   22   25 1   
    38   22   27 2   
    39   23   24 1   
    40   23   26 1   
    41   23   38 1   
    42   23   39 1   
    43   24   40 1   
    44   24   41 1   
    45   25   44 1   
    46   26   42 1   
    47   26   43 1   
@<TRIPOS>SUBSTRUCTURE
     1 CD2         1 TEMP              0 ****  ****    0 ROOT
