@<TRIPOS>MOLECULE
CD6
   38    33     1     0     0
SMALL
bcc


@<TRIPOS>ATOM
      1 CAA        -4.1500    3.9480   -1.1990 c1        1 CD6     -0.161000
      2 OAE        -4.7230    3.3030    2.3070 o         1 CD6     -0.542000
      3 OAF         2.0360   -0.7040   -0.7730 o         1 CD6     -0.402000
      4 OAG         2.4130    2.5440    0.0580 o         1 CD6     -0.285000
      5 OAH        -4.9900    1.3230    1.4330 o         1 CD6     -0.542000
      6 CAI         3.2210   -5.5690   -0.2390 c1        1 CD6     -0.137500
      7 CAJ         2.3660   -5.1240   -1.2350 c1        1 CD6     -0.137500
      8 CAK         3.3650   -4.8370    0.9280 c1        1 CD6     -0.137500
      9 CAL         1.6540   -3.9470   -1.0630 c1        1 CD6     -0.137500
     10 CAM         2.6530   -3.6600    1.1010 c1        1 CD6     -0.109000
     11 CAN        -1.6930    3.9770   -1.1510 c3        1 CD6     -0.215000
     12 CAP         0.7710   -2.1980    0.5560 c3        1 CD6     -0.169000
     13 NAQ        -1.5990    2.1020    1.4390 n1        1 CD6     -0.210000
     14 NAS         0.5960    0.3360    0.6630 n         1 CD6     -0.324000
     15 SAU        -0.5760    3.9740   -0.0670 ss        1 CD6     -0.083000
     16 CAW        -3.0020    3.5530   -0.6110 c2        1 CD6     -0.136000
     17 CAX        -4.3150    2.3780    1.5560 c2        1 CD6      0.391000
     18 CAY         1.1820   -0.8210    0.0810 c2        1 CD6      0.311000
     19 CAZ         1.6280    1.9590   -0.6650 c1        1 CD6      0.187000
     20 CBA        -3.0310    2.5510    0.7740 c2        1 CD6      0.004000
     21 CBB         1.7980   -3.2160    0.1050 c1        1 CD6     -0.077000
     22 CBD        -0.3370    2.6000    0.7900 c2        1 CD6     -0.116000
     23 CBE         0.3530    1.4520   -0.1150 c2        1 CD6     -0.047000
     24 HAA        -4.1220    4.5210   -1.9910 DU        1 CD6      0.091000
     25 HAAA       -5.0110    3.6610   -0.8330 ha        1 CD6      0.163000
     26 HAI         3.7270   -6.3940   -0.3630 ha        1 CD6      0.120750
     27 HAJ         2.2650   -5.6400   -2.0570 ha        1 CD6      0.120750
     28 HAK         3.9660   -5.1500    1.6290 ha        1 CD6      0.120750
     29 HAL         1.0520   -3.6340   -1.7640 ha        1 CD6      0.120750
     30 HAM         2.7540   -3.1450    1.9230 ha        1 CD6      0.203000
     31 HAN        -1.4050    3.4630   -1.9310 h1        1 CD6      0.120000
     32 HANA       -1.7890    4.8670   -1.5460 h1        1 CD6      0.120000
     33 HAP        -0.1020   -2.4270    0.1780 hc        1 CD6      0.148000
     34 HAPA        0.7150   -2.2030    1.5310 hc        1 CD6      0.148000
     35 HNAS        0.3980    0.3480    1.5520 hn        1 CD6      0.237000
     36 HAZ         1.8250    1.8550   -1.6180 ha        1 CD6      0.082000
     37 HBD         0.3540    2.7410    1.4660 h4        1 CD6      0.121000
     38 HBE        -0.2470    1.2130   -0.8500 h4        1 CD6      0.157000
@<TRIPOS>BOND
     1    1   16 1   
     2    1   25 1   
     3    2   17 1   
     4    3   18 1   
     5    4   19 1   
     6    5   17 1   
     7    6    8 1   
     8    6   26 1   
     9    7    9 1   
    10    7   27 1   
    11    8   28 1   
    12    9   29 1   
    13   10   21 1   
    14   10   30 1   
    15   11   15 1   
    16   11   16 1   
    17   11   31 1   
    18   11   32 1   
    19   12   18 1   
    20   12   21 1   
    21   12   33 1   
    22   12   34 1   
    23   13   20 1   
    24   14   18 1   
    25   14   23 1   
    26   14   35 1   
    27   15   22 1   
    28   16   20 1   
    29   17   20 1   
    30   19   36 1   
    31   22   23 1   
    32   22   37 1   
    33   23   38 1   
@<TRIPOS>SUBSTRUCTURE
     1 CD6         1 TEMP              0 ****  ****    0 ROOT
