@<TRIPOS>MOLECULE
CD6
   39    39     1     0     0
SMALL
bcc


@<TRIPOS>ATOM
      1 CAA        -0.2680    1.5580    0.5300 c2        1 CD6     -0.530000
      2 OAE        -0.3790    3.9170    3.0090 o         1 CD6     -0.424000
      3 OAF         1.9590    0.6780    5.4160 o         1 CD6     -0.218000
      4 OAH        -0.8710    2.5710    1.2720 os        1 CD6     -0.064000
      5 CAI         4.0900    5.1860    8.9160 c3        1 CD6     -0.022000
      6 CAJ         5.3880    5.1790    8.3080 c1        1 CD6     -0.163000
      7 CAK         2.9710    5.4460    7.9680 c2        1 CD6     -0.101000
      8 CAL         6.4860    5.1820    7.8290 c1        1 CD6     -0.226000
      9 CAM         2.7800    4.8390    6.8320 c1        1 CD6     -0.134000
     10 CAN         2.1840    1.1700    0.0120 c3        1 CD6     -0.210000
     11 CAP         1.6770    3.0960    5.5020 c3        1 CD6     -0.155000
     12 NAQ         2.4640    2.8630    2.4890 n2        1 CD6     -0.280000
     13 NAS         3.8310    1.8620    4.7460 ny        1 CD6     -0.097000
     14 SAU         3.8040    1.0870    0.7740 ss        1 CD6     -0.039000
     15 CAW         1.0860    1.2840    1.0360 c3        1 CD6     -0.035000
     16 CAX         0.0200    3.1300    2.1320 c2        1 CD6      0.239000
     17 CAY         2.3990    1.8080    5.2460 c2        1 CD6      0.292000
     18 CAZ         7.3790    3.1940    6.0560 c1        1 CD6      0.277000
     19 CBA         1.3450    2.4610    1.9730 c2        1 CD6     -0.045000
     20 CBB         2.5470    4.2830    5.6750 c2        1 CD6     -0.158000
     21 CBD         3.6680    2.1390    2.2350 c3        1 CD6     -0.131000
     22 CBE         4.0110    1.1940    3.4140 c3        1 CD6     -0.128000
     23 HAA         1.0780    0.3470    1.6720 hc        1 CD6      0.108000
     24 HAAA       -0.6760    1.3980   -0.4520 h4        1 CD6      0.163000
     25 HAL         7.4690    5.2120    7.4270 ha        1 CD6      0.236000
     26 HAM         2.9120    4.7500    4.7380 ha        1 CD6      0.174000
     27 HAN         2.1570    2.0320   -0.6950 h1        1 CD6      0.124000
     28 HANA        2.0870    0.2210   -0.5700 h1        1 CD6      0.124000
     29 HAP         0.9710    3.2860    4.6190 hc        1 CD6      0.194000
     30 HAPA        1.0250    2.9220    6.4040 hc        1 CD6      0.194000
     31 HNAS        4.1270    2.8430    4.6690 hn        1 CD6      0.250500
     32 HAZ         5.0880    0.8800    3.3300 hx        1 CD6      0.146000
     33 HBD         3.3510    0.2790    3.3890 hx        1 CD6      0.146000
     34 HBE         4.4910    2.9020    2.1320 h2        1 CD6      0.128000
     35 HAI         3.9100    4.1950    9.4280 hc        1 CD6      0.115500
     36 HAJ         4.0780    5.9770    9.7210 hc        1 CD6      0.115500
     37 HAS2        4.4350    1.3970    5.4310 hn        1 CD6      0.250500
     38 OAG         6.4130    2.6350    5.6830 o         1 CD6     -0.279000
     39 HAK         2.2440    6.2130    8.2990 ha        1 CD6      0.161000
@<TRIPOS>BOND
     1    1    4 1   
     2    1   15 1   
     3    1   24 1   
     4    2   16 1   
     5    3   17 1   
     6    4   16 1   
     7    5    6 1   
     8    5    7 1   
     9    5   35 1   
    10    5   36 1   
    11    6    8 1   
    12    7    9 1   
    13    7   39 1   
    14    8   25 1   
    15    9   20 1   
    16   10   14 1   
    17   10   15 1   
    18   10   27 1   
    19   10   28 1   
    20   11   17 1   
    21   11   20 1   
    22   11   29 1   
    23   11   30 1   
    24   12   19 1   
    25   12   21 1   
    26   13   17 1   
    27   13   22 1   
    28   13   31 1   
    29   13   37 1   
    30   14   21 1   
    31   15   19 1   
    32   15   23 1   
    33   16   19 1   
    34   18   38 1   
    35   20   26 1   
    36   21   22 1   
    37   21   34 1   
    38   22   32 1   
    39   22   33 1   
@<TRIPOS>SUBSTRUCTURE
     1 CD6         1 TEMP              0 ****  ****    0 ROOT
