@<TRIPOS>MOLECULE
CD6
   38    39     1     0     0
SMALL
bcc


@<TRIPOS>ATOM
      1 CAA        -3.0580    1.6280    0.1930 c2        1 CD6     -0.160000
      2 OAE        -0.3200    2.3910   -1.2930 o         1 CD6     -0.802300
      3 OAF        -0.1290   -0.1010    2.6580 o         1 CD6     -0.633100
      4 OAH        -1.5360    1.9680   -3.1390 o         1 CD6     -0.802300
      5 CAI         5.0630    0.8240   -0.7420 ca        1 CD6     -0.139000
      6 CAJ         3.9130    1.2190   -1.4250 ca        1 CD6     -0.142500
      7 CAK         5.0040    0.5640    0.6270 ca        1 CD6     -0.142500
      8 CAL         2.7030    1.3550   -0.7460 ca        1 CD6     -0.117000
      9 CAM         3.7980    0.6980    1.3120 ca        1 CD6     -0.117000
     10 CAN        -3.7240   -0.6460   -0.5270 c3        1 CD6      0.070900
     11 CAP         1.3540    1.2670    1.3490 c3        1 CD6     -0.130100
     12 NAQ        -0.8920   -0.7050   -1.4600 n2        1 CD6     -0.613900
     13 NAS         0.7420   -1.0850    0.7700 n         1 CD6     -0.523900
     14 SAU        -2.9000   -2.1950   -0.2190 ss        1 CD6     -0.458200
     15 CAW        -2.8040    0.5130   -0.4990 ce        1 CD6     -0.230800
     16 CAX        -1.1010    1.6960   -2.0000 c         1 CD6      0.852300
     17 CAY         0.5980   -0.0150    1.6450 c         1 CD6      0.669100
     18 CAZ         0.1450   -3.4910    0.6390 c         1 CD6      0.564900
     19 CBA        -1.5790    0.3770   -1.3220 ce        1 CD6      0.441600
     20 CBB         2.6410    1.0910    0.6300 ca        1 CD6     -0.088300
     21 CBD        -1.1660   -1.8880   -0.7120 c3        1 CD6      0.236600
     22 CBE        -0.3210   -2.0420    0.6070 c3        1 CD6     -0.017300
     23 HAA        -3.9590    1.7480    0.8070 ha        1 CD6      0.125500
     24 HAAA       -2.3610    2.4810    0.1730 ha        1 CD6      0.125500
     25 HAK         5.9080    0.2500    1.1670 ha        1 CD6      0.123000
     26 HAL         1.7840    1.6780   -1.2800 ha        1 CD6      0.163500
     27 HAM         3.7510    0.4900    2.3910 ha        1 CD6      0.163500
     28 HAN        -4.2190   -0.7080   -1.5290 h1        1 CD6      0.069200
     29 HANA       -4.5190   -0.5640    0.2550 h1        1 CD6      0.069200
     30 HAP         0.6510    1.8980    0.7190 hc        1 CD6      0.105200
     31 HAPA        1.5240    1.7960    2.3240 hc        1 CD6      0.105200
     32 HNAS        1.3190   -0.9370   -0.0310 hn        1 CD6      0.324500
     33 HAZ        -0.7080   -4.2100    0.6410 h4        1 CD6     -0.007800
     34 HBD        -0.9340   -2.7510   -1.3980 h2        1 CD6      0.081700
     35 HBE        -1.0360   -1.9190    1.4840 h1        1 CD6      0.122700
     36 HAI         6.0140    0.7160   -1.2810 ha        1 CD6      0.115000
     37 OAG         1.3100   -3.8790    0.6640 o         1 CD6     -0.525100
     38 HAJ         3.9550    1.4240   -2.5050 ha        1 CD6      0.123000
@<TRIPOS>BOND
     1    1   15 2   
     2    1   23 1   
     3    1   24 1   
     4    2   16 1   
     5    3   17 2   
     6    4   16 1   
     7    5    6 ar  
     8    5    7 ar  
     9    5   36 1   
    10    6    8 ar  
    11    6   38 1   
    12    7    9 ar  
    13    7   25 1   
    14    8   20 ar  
    15    8   26 1   
    16    9   20 ar  
    17    9   27 1   
    18   10   14 1   
    19   10   15 1   
    20   10   28 1   
    21   10   29 1   
    22   11   17 1   
    23   11   20 1   
    24   11   30 1   
    25   11   31 1   
    26   12   19 2   
    27   12   21 1   
    28   13   17 1   
    29   13   22 1   
    30   13   32 1   
    31   14   21 1   
    32   15   19 1   
    33   16   19 1   
    34   18   22 1   
    35   18   33 1   
    36   18   37 2   
    37   21   22 1   
    38   21   34 1   
    39   22   35 1   
@<TRIPOS>SUBSTRUCTURE
     1 CD6         1 TEMP              0 ****  ****    0 ROOT
