@<TRIPOS>MOLECULE
CD6
   39    39     1     0     0
SMALL
bcc


@<TRIPOS>ATOM
      1 CAA        -0.2460    1.4580    0.6480 c2        1 CD6     -0.528000
      2 OAE        -0.1890    4.2910    2.5690 o         1 CD6     -0.427000
      3 OAF         1.9550    1.7110    5.4970 o         1 CD6     -0.201000
      4 OAH        -0.7810    2.6360    1.1620 os        1 CD6     -0.064000
      5 CAI         4.3450    4.5400    9.0180 c3        1 CD6     -0.025000
      6 CAJ         5.1790    5.1710    8.0380 c1        1 CD6     -0.171000
      7 CAK         3.0220    4.0800    8.5140 c2        1 CD6     -0.099000
      8 CAL         5.8930    5.7100    7.2430 c1        1 CD6     -0.214000
      9 CAM         2.4820    4.4200    7.3800 c1        1 CD6     -0.192000
     10 CAN         2.1710    0.8190    0.2250 c3        1 CD6     -0.207000
     11 CAP         2.0120    4.1080    4.9650 c3        1 CD6     -0.152000
     12 NAQ         2.5830    2.9860    2.2780 n2        1 CD6     -0.288000
     13 NAS         3.9820    2.4700    4.6730 n4        1 CD6     -0.103000
     14 SAU         3.7930    0.8020    0.9900 ss        1 CD6     -0.043000
     15 CAW         1.0960    1.2160    1.1990 c3        1 CD6     -0.036000
     16 CAX         0.1530    3.3120    1.8840 c2        1 CD6      0.241000
     17 CAY         2.5340    2.7060    5.0900 c2        1 CD6      0.302000
     18 CAZ         7.8940    1.8210    5.6640 c1        1 CD6      0.283000
     19 CBA         1.4350    2.5480    1.8640 c2        1 CD6     -0.040000
     20 CBB         1.8880    4.7830    6.2790 c2        1 CD6     -0.101000
     21 CBD         3.7490    2.1700    2.1680 c3        1 CD6     -0.128000
     22 CBE         4.1000    1.5110    3.5260 c3        1 CD6     -0.128000
     23 HAA         1.0400    0.4420    2.0240 hc        1 CD6      0.111000
     24 HAAA       -0.6840    1.1110   -0.2710 h4        1 CD6      0.165000
     25 HAL         6.5250    6.2090    6.5520 ha        1 CD6      0.227000
     26 HAM         1.2330    5.6770    6.2580 ha        1 CD6      0.178000
     27 HAN         2.1880    1.5090   -0.6510 h1        1 CD6      0.124000
     28 HANA        2.0130   -0.2250   -0.1390 h1        1 CD6      0.124000
     29 HAP         0.9950    4.0380    4.4490 hc        1 CD6      0.190000
     30 HAPA        2.6440    4.7450    4.2830 hc        1 CD6      0.190000
     31 HNAS        4.4020    3.3640    4.4020 hn        1 CD6      0.244500
     32 HAZ         5.1650    1.1460    3.4970 hx        1 CD6      0.145000
     33 HBD         3.4080    0.6440    3.7280 hx        1 CD6      0.145000
     34 HBE         4.5960    2.8520    1.8690 h2        1 CD6      0.127000
     35 HAI         4.8930    3.6540    9.4540 hc        1 CD6      0.117000
     36 HAJ         4.1630    5.2640    9.8660 hc        1 CD6      0.117000
     37 HAS2        4.5010    2.0890    5.4700 hn        1 CD6      0.244500
     38 OAG         6.7590    1.9700    5.3940 o         1 CD6     -0.280000
     39 HAK         2.4790    3.4090    9.2070 ha        1 CD6      0.152000
@<TRIPOS>BOND
     1    1    4 1   
     2    1   15 1   
     3    1   24 1   
     4    2   16 1   
     5    3   17 1   
     6    4   16 1   
     7    5    6 1   
     8    5    7 1   
     9    5   35 1   
    10    5   36 1   
    11    6    8 1   
    12    7    9 1   
    13    7   39 1   
    14    8   25 1   
    15    9   20 1   
    16   10   14 1   
    17   10   15 1   
    18   10   27 1   
    19   10   28 1   
    20   11   17 1   
    21   11   20 1   
    22   11   29 1   
    23   11   30 1   
    24   12   19 1   
    25   12   21 1   
    26   13   17 1   
    27   13   22 1   
    28   13   31 1   
    29   13   37 1   
    30   14   21 1   
    31   15   19 1   
    32   15   23 1   
    33   16   19 1   
    34   18   38 1   
    35   20   26 1   
    36   21   22 1   
    37   21   34 1   
    38   22   32 1   
    39   22   33 1   
@<TRIPOS>SUBSTRUCTURE
     1 CD6         1 TEMP              0 ****  ****    0 ROOT
