@<TRIPOS>MOLECULE
CD8
   40    38     1     0     0
SMALL
bcc


@<TRIPOS>ATOM
      1 CAA         0.1580    0.6850   -0.3960 c1        1 CD8     -0.029000
      2 OAF         0.1790    3.6320    0.4700 o         1 CD8     -0.510500
      3 OAG         4.8170    3.4110    4.9920 o         1 CD8     -0.269000
      4 OAH         7.9520    2.8740    1.4610 o         1 CD8     -0.176000
      5 OAI         0.6380    3.2420    2.6500 o         1 CD8     -0.510500
      6 CAJ         3.8480    9.3350    4.9910 c1        1 CD8     -0.068000
      7 CAK         4.7250    6.8150    3.2430 c2        1 CD8     -0.183000
      8 CAL         2.9310    9.3510    6.0630 c2        1 CD8     -0.554000
      9 CAM         4.0920    5.6920    3.3400 c1        1 CD8     -0.038000
     10 CAN         2.5300    8.2270    6.6510 c1        1 CD8      0.405000
     11 CAO         2.2460   -0.3870    0.2090 c3        1 CD8     -0.236000
     12 NAQ         2.9830    2.0840    1.5280 n2        1 CD8     -0.245000
     13 NAS         2.9540    2.2500    4.2340 ny        1 CD8     -0.137000
     14 OAT         2.7010   -0.0210    4.0920 oh        1 CD8     -0.328000
     15 SAV         3.5590   -0.6210    1.3810 ss        1 CD8     -0.004000
     16 CAX         1.1700    0.5870    0.6580 c3        1 CD8     -0.200000
     17 CAY         0.7640    3.0550    1.3980 c2        1 CD8      0.384000
     18 CAZ         3.8390    3.4650    4.2450 c2        1 CD8      0.332000
     19 CBA         7.0870    2.2700    1.9670 c1        1 CD8      0.180000
     20 CBB         1.7700    1.8900    1.1270 c2        1 CD8     -0.062000
     21 CBC         3.3940    4.5830    3.4190 c2        1 CD8     -0.212000
     22 CBE         3.7850    1.0400    2.0660 c3        1 CD8     -0.161000
     23 CBF         3.5970    0.9740    3.6480 c3        1 CD8      0.141000
     24 HAA         0.5800    0.1390    1.5250 hc        1 CD8      0.163000
     25 HAAA       -0.3460    1.6570   -0.5180 ha        1 CD8      0.104000
     26 HAC         4.8820    0.6790    5.4030 hc        1 CD8      0.116667
     27 HACA        2.2590   -0.4220    3.3210 ho        1 CD8      0.255000
     28 HACB        5.2820   -0.3300    3.9480 hc        1 CD8      0.116667
     29 HAJ         2.5100   10.3080    6.4500 ha        1 CD8      0.179000
     30 HAK         5.4900    6.9960    2.4720 ha        1 CD8      0.189500
     31 HAL         4.1270   10.3110    4.5690 ha        1 CD8      0.061000
     32 HAM         4.5210    7.6760    3.9300 ha        1 CD8      0.189500
     33 HAN         2.4440    4.4680    2.8460 ha        1 CD8      0.232000
     34 HAO         2.6820   -0.0420   -0.7600 h1        1 CD8      0.136500
     35 HAOA        1.8050   -1.4030    0.0470 h1        1 CD8      0.136500
     36 HNAS        2.0680    2.4720    3.7110 hn        1 CD8      0.275000
     37 HBA         5.7140    1.4420    3.9710 hc        1 CD8      0.116667
     38 HBE         4.8680    1.3040    1.8820 h2        1 CD8      0.169000
     39 HAS2        2.7040    2.0200    5.2000 hn        1 CD8      0.275000
     40 CAC         4.9570    0.6840    4.2900 c3        1 CD8     -0.233000
@<TRIPOS>BOND
     1    1   16 1   
     2    1   25 1   
     3    2   17 1   
     4    3   18 1   
     5    4   19 1   
     6    5   17 1   
     7    6    8 1   
     8    6   31 1   
     9    7    9 1   
    10    7   30 1   
    11    7   32 1   
    12    8   10 1   
    13    8   29 1   
    14    9   21 1   
    15   11   15 1   
    16   11   16 1   
    17   11   34 1   
    18   11   35 1   
    19   12   20 1   
    20   12   22 1   
    21   13   18 1   
    22   13   23 1   
    23   13   36 1   
    24   13   39 1   
    25   14   23 1   
    26   14   27 1   
    27   15   22 1   
    28   16   20 1   
    29   16   24 1   
    30   17   20 1   
    31   18   21 1   
    32   21   33 1   
    33   22   23 1   
    34   22   38 1   
    35   23   40 1   
    36   26   40 1   
    37   28   40 1   
    38   37   40 1   
@<TRIPOS>SUBSTRUCTURE
     1 CD8         1 TEMP              0 ****  ****    0 ROOT
