@<TRIPOS>MOLECULE
CD8
   39    40     1     0     0
SMALL
bcc


@<TRIPOS>ATOM
      1 CAA         4.3980   -0.5980    0.9160 c2        1 CD8     -0.168000
      2 OAF         2.8480   -3.5060   -0.9540 o         1 CD8     -0.798300
      3 OAG        -2.3290    1.7480   -1.2280 o         1 CD8     -0.625100
      4 OAH        -0.3690    3.6650    0.3600 o         1 CD8     -0.537100
      5 OAI         2.5300   -3.0540    1.2280 o         1 CD8     -0.798300
      6 CAJ        -5.5700   -1.8790    0.0150 ca        1 CD8     -0.114000
      7 CAK        -5.2950   -1.2790   -1.2140 ca        1 CD8     -0.142500
      8 CAL        -4.7620   -1.6090    1.1190 ca        1 CD8     -0.142500
      9 CAM        -4.2110   -0.4110   -1.3400 ca        1 CD8     -0.084000
     10 CAN        -3.6730   -0.7450    0.9980 ca        1 CD8     -0.084000
     11 CAO         3.8110    0.6680   -1.1260 c3        1 CD8      0.069900
     12 NAQ         1.2290   -0.8160   -0.7330 n2        1 CD8     -0.621900
     13 NAS        -1.1210    0.5920    0.3500 n         1 CD8     -0.549900
     14 OAT         0.9640    1.2940    1.2470 os        1 CD8     -0.389600
     15 SAV         2.3600    1.6210   -1.5180 ss        1 CD8     -0.436200
     16 CAX         3.5760   -0.3900   -0.1180 ce        1 CD8     -0.221800
     17 CAY         2.5930   -2.7480    0.0100 c         1 CD8      0.850300
     18 CAZ        -2.2480    0.7920   -0.4240 c         1 CD8      0.673700
     19 CBA        -0.1050    2.7400   -0.4040 c         1 CD8      0.596900
     20 CBB         2.3760   -1.2370   -0.3200 ce        1 CD8      0.459600
     21 CBC        -3.3940   -0.1470   -0.2340 ca        1 CD8     -0.130600
     22 CBE         0.9680    0.5520   -1.0350 c3        1 CD8      0.244600
     23 CBF         0.1320    1.2950    0.0830 c3        1 CD8      0.201200
     24 HAA         5.2870    0.0190    1.0940 ha        1 CD8      0.125000
     25 HAAA        4.2080   -1.4130    1.6350 ha        1 CD8      0.125000
     26 HAC        -0.2680    2.6090    2.3430 h1        1 CD8      0.038700
     27 HACA       -0.2370    0.8600    2.8990 h1        1 CD8      0.038700
     28 HACB        1.2430    1.9150    3.1300 h1        1 CD8      0.038700
     29 HAJ        -6.4220   -2.5670    0.1120 ha        1 CD8      0.126000
     30 HAK        -5.9300   -1.4910   -2.0860 ha        1 CD8      0.131000
     31 HAL        -4.9780   -2.0820    2.0880 ha        1 CD8      0.131000
     32 HAM        -3.9890    0.0770   -2.3030 ha        1 CD8      0.148500
     33 HAN        -3.0470   -0.5390    1.8800 ha        1 CD8      0.148500
     34 HAO         4.1760    0.2030   -2.0770 h1        1 CD8      0.066200
     35 HAOA        4.5770    1.4050   -0.7780 h1        1 CD8      0.066200
     36 HNAS       -0.9980   -0.3010    0.7800 hn        1 CD8      0.335500
     37 HBA        -0.0060    2.8750   -1.5020 h4        1 CD8      0.027200
     38 HBE         0.3180    0.5580   -1.9590 h2        1 CD8      0.087700
     39 CAC         0.3650    1.6980    2.4680 c3        1 CD8      0.117700
@<TRIPOS>BOND
     1    1   16 2   
     2    1   24 1   
     3    1   25 1   
     4    2   17 1   
     5    3   18 2   
     6    4   19 2   
     7    5   17 1   
     8    6    7 ar  
     9    6    8 ar  
    10    6   29 1   
    11    7    9 ar  
    12    7   30 1   
    13    8   10 ar  
    14    8   31 1   
    15    9   21 ar  
    16    9   32 1   
    17   10   21 ar  
    18   10   33 1   
    19   11   15 1   
    20   11   16 1   
    21   11   34 1   
    22   11   35 1   
    23   12   20 2   
    24   12   22 1   
    25   13   18 1   
    26   13   23 1   
    27   13   36 1   
    28   14   23 1   
    29   14   39 1   
    30   15   22 1   
    31   16   20 1   
    32   17   20 1   
    33   18   21 1   
    34   19   23 1   
    35   19   37 1   
    36   22   23 1   
    37   22   38 1   
    38   26   39 1   
    39   27   39 1   
    40   28   39 1   
@<TRIPOS>SUBSTRUCTURE
     1 CD8         1 TEMP              0 ****  ****    0 ROOT
