@<TRIPOS>MOLECULE
CD8
   39    34     1     0     0
SMALL
bcc


@<TRIPOS>ATOM
      1 CAA        -5.0810    2.1720   -2.0640 c1        1 CD8     -0.170000
      2 CAC         0.5900    2.6320    1.5270 c3        1 CD8     -0.081000
      3 OAF        -2.3120    3.7230   -4.1030 o         1 CD8     -0.532000
      4 OAG         2.2480   -1.0490   -0.8890 o         1 CD8     -0.379000
      5 OAH         2.5540    1.0470    0.1950 o         1 CD8     -0.291000
      6 OAI        -2.7110    5.0290   -2.4150 o         1 CD8     -0.532000
      7 CAJ         3.6320   -4.6270    2.2220 c1        1 CD8     -0.122000
      8 CAK         2.5000   -4.0810    2.8170 c1        1 CD8     -0.122000
      9 CAL         4.1190   -4.0920    1.0380 c1        1 CD8     -0.122000
     10 CAM         1.8550   -2.9990    2.2240 c1        1 CD8     -0.100000
     11 CAN         3.4750   -3.0120    0.4460 c1        1 CD8     -0.122000
     12 CAO        -3.6650    0.4280   -0.9950 c3        1 CD8     -0.192000
     13 NAQ        -0.9810    2.1150   -1.4690 n1        1 CD8     -0.212000
     14 NAS         0.5010   -0.6850    0.5840 n         1 CD8     -0.353000
     15 OAT        -0.0590    1.3790    1.4190 os        1 CD8     -0.267000
     16 SAV        -2.3740    0.3780   -0.1070 ss        1 CD8     -0.102000
     17 CAX        -3.8330    1.7380   -1.6690 c2        1 CD8     -0.133000
     18 CAY        -2.5170    3.8790   -2.8770 c2        1 CD8      0.389000
     19 CAZ         1.7400   -1.3330    0.1750 c2        1 CD8      0.346000
     20 CBA         1.4770    1.2340   -0.3310 c1        1 CD8      0.208000
     21 CBB        -2.4440    2.6990   -1.9470 c2        1 CD8      0.010000
     22 CBC         2.3410   -2.4660    1.0410 c1        1 CD8     -0.108000
     23 CBE        -0.9440    0.7690   -0.8010 c2        1 CD8     -0.110000
     24 CBF         0.2730    0.6670    0.2580 c2        1 CD8      0.152000
     25 HAA        -5.8680    1.6140   -1.9000 DU        1 CD8      0.090000
     26 HAAA       -5.1800    3.0440   -2.5110 ha        1 CD8      0.161000
     27 HAC         1.5320    2.4940    1.7580 h1        1 CD8      0.091333
     28 HACA        0.1550    3.1660    2.2280 h1        1 CD8      0.091333
     29 HACB        0.5290    3.1070    0.6680 h1        1 CD8      0.091333
     30 HAJ         4.1200   -5.3480    2.6700 ha        1 CD8      0.134500
     31 HAK         2.1580   -4.4570    3.6500 ha        1 CD8      0.134500
     32 HAL         4.9180   -4.4770    0.6190 ha        1 CD8      0.134500
     33 HAM         1.0470   -2.6340    2.6260 ha        1 CD8      0.155000
     34 HAN         3.8180   -2.6370   -0.3880 ha        1 CD8      0.134500
     35 HAO        -3.7770   -0.2610   -1.6760 h1        1 CD8      0.105500
     36 HAOA       -4.4120    0.2160   -0.4030 h1        1 CD8      0.105500
     37 HNAS       -0.1560   -1.1730    1.0020 hn        1 CD8      0.247000
     38 HBA         1.4250    1.7130   -1.1810 ha        1 CD8      0.138000
     39 HBE        -0.6870    0.0890   -1.4400 h4        1 CD8      0.129000
@<TRIPOS>BOND
     1    1   17 1   
     2    1   26 1   
     3    2   15 1   
     4    2   27 1   
     5    2   28 1   
     6    2   29 1   
     7    3   18 1   
     8    4   19 1   
     9    5   20 1   
    10    6   18 1   
    11    7    8 1   
    12    7   30 1   
    13    8   31 1   
    14    9   11 1   
    15    9   32 1   
    16   10   22 1   
    17   10   33 1   
    18   11   34 1   
    19   12   16 1   
    20   12   17 1   
    21   12   35 1   
    22   12   36 1   
    23   13   21 1   
    24   14   19 1   
    25   14   24 1   
    26   14   37 1   
    27   15   24 1   
    28   16   23 1   
    29   17   21 1   
    30   18   21 1   
    31   19   22 1   
    32   20   38 1   
    33   23   24 1   
    34   23   39 1   
@<TRIPOS>SUBSTRUCTURE
     1 CD8         1 TEMP              0 ****  ****    0 ROOT
