@<TRIPOS>MOLECULE
CD9
   35    38     1     0     0
SMALL
bcc


@<TRIPOS>ATOM
      1 C1          0.7650    0.1740   -0.0810 ca        1 CD9     -0.176000
      2 C2          2.1120    0.2070    0.2890 ca        1 CD9      0.048400
      3 C3          2.5300    0.1430    1.6260 ca        1 CD9     -0.133000
      4 C4          1.5310    0.0500    2.5970 ca        1 CD9      0.070600
      5 C5          0.1450    0.0080    2.2260 ca        1 CD9     -0.163300
      6 C6         -0.2280    0.0710    0.9000 ca        1 CD9     -0.092000
      7 C7         -0.6800   -0.1080    3.4660 c3        1 CD9     -0.106100
      8 C8          0.3830   -0.1430    4.5810 c         1 CD9      0.691500
      9 O9          0.1510   -0.2510    5.7930 o         1 CD9     -0.628500
     10 N10         1.6590    0.0050    4.0030 n         1 CD9     -0.356000
     11 C11         2.9090   -0.1060    4.7100 c3        1 CD9      0.136300
     12 C12         3.5070   -1.4870    4.7600 ca        1 CD9     -0.107300
     13 C13         2.7240   -2.5490    5.2190 ca        1 CD9     -0.134000
     14 C14         3.2140   -3.8620    5.2940 ca        1 CD9     -0.145000
     15 C15         4.5220   -4.0410    4.8910 ca        1 CD9      0.039100
     16 C16         5.3270   -2.9630    4.4440 ca        1 CD9      0.065100
     17 C17         4.8570   -1.6620    4.3730 ca        1 CD9     -0.068600
     18 C18         5.7390   -0.4920    3.9470 c         1 CD9      0.921200
     19 O19         6.6910   -0.1730    4.7020 o         1 CD9     -0.814300
     20 O20         5.4380    0.1110    2.8760 o         1 CD9     -0.814300
     21 O21         6.5920   -3.4540    4.1100 os        1 CD9     -0.309900
     22 C22         6.5740   -4.8690    4.3700 c3        1 CD9      0.318200
     23 O23         5.2610   -5.2230    4.8550 os        1 CD9     -0.356900
     24 Cl24        3.2910    0.3280   -0.9360 cl        1 CD9     -0.101400
     25 H1          0.4790    0.2250   -1.1400 ha        1 CD9      0.132000
     26 H3          3.6090    0.1540    1.9030 ha        1 CD9      0.242000
     27 H6         -1.2880    0.0390    0.6100 ha        1 CD9      0.124000
     28 H17        -1.3540    0.7690    3.6180 hc        1 CD9      0.080200
     29 H27        -1.2840   -1.0470    3.4930 hc        1 CD9      0.080200
     30 H111        3.6420    0.6040    4.2180 h1        1 CD9      0.094700
     31 H211        2.7170    0.2350    5.7700 h1        1 CD9      0.094700
     32 H13         1.6890   -2.3550    5.5430 ha        1 CD9      0.131000
     33 H14         2.5940   -4.6910    5.6520 ha        1 CD9      0.133000
     34 H122        7.3230   -5.1000    5.1680 h2        1 CD9      0.051700
     35 H222        6.7590   -5.4140    3.4110 h2        1 CD9      0.051700
@<TRIPOS>BOND
     1    1    2 ar  
     2    1    6 ar  
     3    1   25 1   
     4    2    3 ar  
     5    2   24 1   
     6    3    4 ar  
     7    3   26 1   
     8    4    5 ar  
     9    4   10 1   
    10    5    6 ar  
    11    5    7 1   
    12    6   27 1   
    13    7    8 1   
    14    7   28 1   
    15    7   29 1   
    16    8    9 2   
    17    8   10 1   
    18   10   11 1   
    19   11   12 1   
    20   11   30 1   
    21   11   31 1   
    22   12   13 ar  
    23   12   17 ar  
    24   13   14 ar  
    25   13   32 1   
    26   14   15 ar  
    27   14   33 1   
    28   15   16 ar  
    29   15   23 1   
    30   16   17 ar  
    31   16   21 1   
    32   17   18 1   
    33   18   19 1   
    34   18   20 1   
    35   21   22 1   
    36   22   23 1   
    37   22   34 1   
    38   22   35 1   
@<TRIPOS>SUBSTRUCTURE
     1 CD9         1 TEMP              0 ****  ****    0 ROOT
