@<TRIPOS>MOLECULE
CD9
   35    28     1     0     0
SMALL
bcc


@<TRIPOS>ATOM
      1 C1         -3.6630    2.8420    0.6260 c1        1 CD9     -0.176000
      2 C2         -2.4710    3.0090    1.3380 c1        1 CD9     -0.030000
      3 C3         -1.2700    2.5620    0.7980 c1        1 CD9     -0.133000
      4 C4         -1.2530    1.9440   -0.4610 c1        1 CD9      0.078000
      5 C5         -2.4420    1.7770   -1.1710 c1        1 CD9     -0.156000
      6 C6         -3.6480    2.2260   -0.6290 c2        1 CD9     -0.092000
      7 C7         -2.0880    1.3750   -2.5890 c2        1 CD9     -0.142000
      8 C8         -0.6290    1.0350   -2.5170 c1        1 CD9      0.299000
      9 O9          0.0840    0.7480   -3.4610 o         1 CD9     -0.353000
     10 N10        -0.1990    1.2270   -1.1690 n1        1 CD9     -0.259000
     11 C11         1.1330    0.9400   -0.6490 c3        1 CD9      0.013000
     12 C12         1.2320   -0.5680   -0.2720 c1        1 CD9     -0.100000
     13 C13         0.8760   -1.5380   -1.2030 c1        1 CD9     -0.139500
     14 C14         1.1260   -2.8900   -0.9370 c1        1 CD9     -0.139500
     15 C15         1.7360   -3.2680    0.2690 c1        1 CD9     -0.006000
     16 C16         2.0910   -2.3010    1.1980 c1        1 CD9      0.020000
     17 C17         1.8410   -0.9450    0.9320 c2        1 CD9     -0.048000
     18 C18         2.1690    0.0990    1.9690 c2        1 CD9      0.370000
     19 O19         1.3830    0.2900    2.9430 o         1 CD9     -0.549000
     20 O20         3.2770    0.7170    1.9180 o         1 CD9     -0.549000
     21 O21         2.7100   -2.9560    2.3000 o         1 CD9     -0.216500
     22 C22         2.6810   -4.3390    2.0560 c3        1 CD9      0.096000
     23 O23         2.0800   -4.5430    0.8060 o         1 CD9     -0.216500
     24 CL24       -2.5870    3.5530    2.9930 cl        1 CD9     -0.023000
     25 H1         -4.5170    3.1600    1.0100 ha        1 CD9      0.132000
     26 H3         -0.4420    2.6780    1.2930 ha        1 CD9      0.242000
     27 H6         -4.4760    2.1470   -1.1460 ha        1 CD9      0.124000
     28 H17        -2.3010    2.0840   -3.2290 ha        1 CD9      0.119500
     29 H27        -2.6320    0.6190   -2.9320 ha        1 CD9      0.119500
     30 H111        1.8090    1.1520   -1.3410 h1        1 CD9      0.134000
     31 H211        1.2960    1.4790    0.1360 h1        1 CD9      0.134000
     32 H13         0.4910   -1.2680   -2.0750 ha        1 CD9      0.132000
     33 H14         0.8440   -3.5780   -1.5840 ha        1 CD9      0.132000
     34 H122        3.6180   -4.6880    2.0300 h2        1 CD9      0.091000
     35 H222        2.1390   -4.7790    2.7510 h2        1 CD9      0.091000
@<TRIPOS>BOND
     1    1    6 1   
     2    1   25 1   
     3    2    3 1   
     4    3   26 1   
     5    4    5 1   
     6    5    6 1   
     7    6   27 1   
     8    7    8 1   
     9    7   28 1   
    10    7   29 1   
    11    8    9 1   
    12   10   11 1   
    13   11   12 1   
    14   11   30 1   
    15   11   31 1   
    16   12   17 1   
    17   13   14 1   
    18   13   32 1   
    19   14   33 1   
    20   15   16 1   
    21   16   17 1   
    22   17   18 1   
    23   18   19 1   
    24   18   20 1   
    25   21   22 1   
    26   22   23 1   
    27   22   34 1   
    28   22   35 1   
@<TRIPOS>SUBSTRUCTURE
     1 CD9         1 TEMP              0 ****  ****    0 ROOT
