@<TRIPOS>MOLECULE
CD9
   35    38     1     0     0
SMALL
bcc


@<TRIPOS>ATOM
      1 C1          4.2850    0.9600    0.0760 ca        1 CD9     -0.176000
      2 C2          3.1700    1.3720   -0.6590 ca        1 CD9      0.048400
      3 C3          2.0340    0.5650   -0.8220 ca        1 CD9     -0.133000
      4 C4          2.0590   -0.6930   -0.2160 ca        1 CD9      0.070600
      5 C5          3.1970   -1.1200    0.5460 ca        1 CD9     -0.163300
      6 C6          4.2960   -0.2980    0.6870 ca        1 CD9     -0.092000
      7 C7          2.9290   -2.4890    1.0810 c3        1 CD9     -0.106100
      8 C8          1.5130   -2.7910    0.5540 c         1 CD9      0.691500
      9 O9          0.8710   -3.8270    0.7700 o         1 CD9     -0.628500
     10 N10         1.0820   -1.7120   -0.2440 n         1 CD9     -0.356000
     11 C11        -0.2380   -1.5700   -0.8040 c3        1 CD9      0.136300
     12 C12        -1.2340   -0.8400    0.0580 ca        1 CD9     -0.107300
     13 C13        -1.4330   -1.2650    1.3730 ca        1 CD9     -0.134000
     14 C14        -2.3450   -0.6340    2.2340 ca        1 CD9     -0.145000
     15 C15        -3.0410    0.4300    1.6980 ca        1 CD9      0.039100
     16 C16        -2.8580    0.8520    0.3570 ca        1 CD9      0.065100
     17 C17        -1.9660    0.2340   -0.5040 ca        1 CD9     -0.068600
     18 C18        -1.8100    0.6490   -1.9630 c         1 CD9      0.921200
     19 O19        -2.7840    0.4560   -2.7330 o         1 CD9     -0.814300
     20 O20        -0.6960    1.1310   -2.3210 o         1 CD9     -0.814300
     21 O21        -3.6960    1.9430    0.1100 os        1 CD9     -0.309900
     22 C22        -4.4260    2.1940    1.3230 c3        1 CD9      0.318200
     23 O23        -3.9970    1.2370    2.3160 os        1 CD9     -0.356900
     24 CL24        3.1940    2.9140   -1.3830 cl        1 CD9     -0.101400
     25 H1          5.1550    1.6230    0.1810 ha        1 CD9      0.132000
     26 H3          1.1470    0.9140   -1.3980 ha        1 CD9      0.242000
     27 H6          5.1700   -0.6210    1.2700 ha        1 CD9      0.124000
     28 H17         3.6460   -3.2510    0.6890 hc        1 CD9      0.080200
     29 H27         2.9300   -2.5220    2.1970 hc        1 CD9      0.080200
     30 H111       -0.1290   -1.0290   -1.7940 h1        1 CD9      0.094700
     31 H211       -0.6280   -2.6130   -0.9910 h1        1 CD9      0.094700
     32 H13        -0.8640   -2.1290    1.7520 ha        1 CD9      0.131000
     33 H14        -2.4940   -0.9710    3.2650 ha        1 CD9      0.133000
     34 H122       -4.1760    3.2210    1.6890 h2        1 CD9      0.051700
     35 H222       -5.5160    2.0410    1.1290 h2        1 CD9      0.051700
@<TRIPOS>BOND
     1    1    2 ar  
     2    1    6 ar  
     3    1   25 1   
     4    2    3 ar  
     5    2   24 1   
     6    3    4 ar  
     7    3   26 1   
     8    4    5 ar  
     9    4   10 1   
    10    5    6 ar  
    11    5    7 1   
    12    6   27 1   
    13    7    8 1   
    14    7   28 1   
    15    7   29 1   
    16    8    9 2   
    17    8   10 1   
    18   10   11 1   
    19   11   12 1   
    20   11   30 1   
    21   11   31 1   
    22   12   13 ar  
    23   12   17 ar  
    24   13   14 ar  
    25   13   32 1   
    26   14   15 ar  
    27   14   33 1   
    28   15   16 ar  
    29   15   23 1   
    30   16   17 ar  
    31   16   21 1   
    32   17   18 1   
    33   18   19 1   
    34   18   20 1   
    35   21   22 1   
    36   22   23 1   
    37   22   34 1   
    38   22   35 1   
@<TRIPOS>SUBSTRUCTURE
     1 CD9         1 TEMP              0 ****  ****    0 ROOT
