@<TRIPOS>MOLECULE
CD9
   35    38     1     0     0
SMALL
bcc


@<TRIPOS>ATOM
      1 C1          0.7630    0.1950   -0.0700 ca        1 CD9     -0.176000
      2 C2          2.1100    0.2300    0.3020 ca        1 CD9      0.048400
      3 C3          2.5250    0.1570    1.6390 ca        1 CD9     -0.133000
      4 C4          1.5240    0.0530    2.6080 ca        1 CD9      0.070600
      5 C5          0.1400    0.0100    2.2340 ca        1 CD9     -0.163300
      6 C6         -0.2320    0.0810    0.9070 ca        1 CD9     -0.092000
      7 C7         -0.6870   -0.1190    3.4720 c3        1 CD9     -0.106100
      8 C8          0.3740   -0.1590    4.5880 c         1 CD9      0.691500
      9 O9          0.1400   -0.2780    5.7990 o         1 CD9     -0.628500
     10 N10         1.6500   -0.0020    4.0140 n         1 CD9     -0.356000
     11 C11         2.9000   -0.1150    4.7220 c3        1 CD9      0.136300
     12 C12         3.5010   -1.4950    4.7610 ca        1 CD9     -0.107300
     13 C13         2.7210   -2.5630    5.2100 ca        1 CD9     -0.134000
     14 C14         3.2150   -3.8760    5.2750 ca        1 CD9     -0.145000
     15 C15         4.5240   -4.0460    4.8730 ca        1 CD9      0.039100
     16 C16         5.3270   -2.9620    4.4370 ca        1 CD9      0.065100
     17 C17         4.8530   -1.6620    4.3750 ca        1 CD9     -0.068600
     18 C18         5.7320   -0.4860    3.9610 c         1 CD9      0.921200
     19 O19         6.6820   -0.1710    4.7200 o         1 CD9     -0.814300
     20 O20         5.4310    0.1250    2.8950 o         1 CD9     -0.814300
     21 O21         6.5940   -3.4470    4.1000 os        1 CD9     -0.309900
     22 C22         6.5800   -4.8640    4.3480 c3        1 CD9      0.318200
     23 O23         5.2670   -5.2270    4.8280 os        1 CD9     -0.356900
     24 CL24        3.2900    0.3640   -0.9200 cl        1 CD9     -0.101400
     25 H1          0.4790    0.2540   -1.1300 ha        1 CD9      0.132000
     26 H3          3.6030    0.1690    1.9190 ha        1 CD9      0.242000
     27 H6         -1.2900    0.0490    0.6160 ha        1 CD9      0.124000
     28 H17        -1.2880   -1.0600    3.4900 hc        1 CD9      0.080200
     29 H27        -1.3650    0.7550    3.6290 hc        1 CD9      0.080200
     30 H111        2.7040    0.2160    5.7850 h1        1 CD9      0.094700
     31 H211        3.6310    0.6010    4.2370 h1        1 CD9      0.094700
     32 H13         1.6850   -2.3740    5.5340 ha        1 CD9      0.131000
     33 H14         2.5970   -4.7090    5.6250 ha        1 CD9      0.133000
     34 H122        7.3280   -5.1000    5.1450 h2        1 CD9      0.051700
     35 H222        6.7670   -5.4000    3.3850 h2        1 CD9      0.051700
@<TRIPOS>BOND
     1    1    2 ar  
     2    1    6 ar  
     3    1   25 1   
     4    2    3 ar  
     5    2   24 1   
     6    3    4 ar  
     7    3   26 1   
     8    4    5 ar  
     9    4   10 1   
    10    5    6 ar  
    11    5    7 1   
    12    6   27 1   
    13    7    8 1   
    14    7   28 1   
    15    7   29 1   
    16    8    9 2   
    17    8   10 1   
    18   10   11 1   
    19   11   12 1   
    20   11   30 1   
    21   11   31 1   
    22   12   13 ar  
    23   12   17 ar  
    24   13   14 ar  
    25   13   32 1   
    26   14   15 ar  
    27   14   33 1   
    28   15   16 ar  
    29   15   23 1   
    30   16   17 ar  
    31   16   21 1   
    32   17   18 1   
    33   18   19 1   
    34   18   20 1   
    35   21   22 1   
    36   22   23 1   
    37   22   34 1   
    38   22   35 1   
@<TRIPOS>SUBSTRUCTURE
     1 CD9         1 TEMP              0 ****  ****    0 ROOT
