@<TRIPOS>MOLECULE
CDA
   51    53     1     0     0
SMALL
bcc


@<TRIPOS>ATOM
      1 N1          1.4020   -1.0560   -1.1250 nb        1 CDA     -0.645000
      2 C2          2.5370   -0.8250   -1.8310 ca        1 CDA      0.324600
      3 C3          3.8120   -0.7590   -1.2410 ca        1 CDA     -0.207300
      4 C4          3.9160   -0.9390    0.1430 ca        1 CDA     -0.091000
      5 C5          2.7600   -1.1800    0.8820 ca        1 CDA     -0.216300
      6 C6          1.5270   -1.2290    0.2010 ca        1 CDA      0.401200
      7 C11         2.3850   -0.6300   -3.3470 c3        1 CDA      0.337300
      8 C12         1.5270    0.6690   -3.5940 c3        1 CDA      0.159800
      9 F13         1.8380   -1.7320   -3.9720 f         1 CDA     -0.238300
     10 F1          3.6080   -0.5450   -3.9900 f         1 CDA     -0.238300
     11 N18         1.4030    1.0440   -4.9730 nu        1 CDA     -0.772200
     12 C21         0.3420    0.6040   -5.7600 cc        1 CDA      0.602200
     13 C22         0.5840    0.6780   -7.2550 c         1 CDA      0.549200
     14 N23        -0.5070    0.4220   -8.0970 n         1 CDA     -0.347000
     15 C24        -1.7510    0.0590   -7.5350 cc        1 CDA     -0.076600
     16 C25        -1.8480   -0.0410   -6.1610 cd        1 CDA      0.061600
     17 N26        -0.8360    0.2280   -5.2710 nd        1 CDA     -0.562300
     18 O28         1.7040    0.8950   -7.7730 o         1 CDA     -0.685500
     19 C29        -2.9290   -0.2060   -8.4040 c3        1 CDA     -0.062900
     20 C33        -0.3780    0.6990   -9.4980 c3        1 CDA      0.021000
     21 C34         0.2420   -0.4220  -10.3360 c         1 CDA      0.519100
     22 N37         1.4680   -1.0790   -9.7730 ny        1 CDA     -0.669800
     23 O38        -0.1510   -0.7750  -11.4360 o         1 CDA     -0.406100
     24 C39         2.2380   -1.8610  -10.7860 c3        1 CDA      0.076500
     25 C40         3.4510   -2.5370  -10.2000 ca        1 CDA      0.289600
     26 C43         4.6140   -2.6670  -11.0020 ca        1 CDA      0.056600
     27 C44         5.7280   -3.3600  -10.4720 ca        1 CDA     -0.111000
     28 C45         5.6400   -3.8760   -9.1880 ca        1 CDA     -0.180300
     29 N46         3.3770   -3.0430   -8.9420 nb        1 CDA     -0.674000
     30 F47         4.6610   -2.1430  -12.2430 f         1 CDA     -0.112900
     31 C50         4.4440   -3.6890   -8.4560 ca        1 CDA      0.411200
     32 H3          4.7050   -0.5750   -1.8550 ha        1 CDA      0.159000
     33 H4          4.8990   -0.8920    0.6340 ha        1 CDA      0.154000
     34 H5          2.7980   -1.3300    1.9700 ha        1 CDA      0.159000
     35 H6          0.5830   -1.4180    0.7460 h4        1 CDA      0.037100
     36 H121        2.0570    1.5140   -3.0680 h1        1 CDA      0.113200
     37 H122        0.5190    0.5090   -3.1190 h1        1 CDA      0.113200
     38 H18         2.2730    1.1290   -5.4670 hn        1 CDA      0.445800
     39 H25        -2.7950   -0.3520   -5.6800 h4        1 CDA      0.200000
     40 H291       -2.6820   -0.9140   -9.2330 hc        1 CDA      0.067033
     41 H292       -3.3180    0.7470   -8.8460 hc        1 CDA      0.067033
     42 H293       -3.7480   -0.6620   -7.7920 hc        1 CDA      0.067033
     43 H331       -1.3890    0.9170   -9.9590 h1        1 CDA      0.135700
     44 H332        0.2930    1.6040   -9.6470 h1        1 CDA      0.135700
     45 H37         2.0790   -0.3520   -9.3530 hn        1 CDA      0.487800
     46 H391        1.5480   -2.6410  -11.2270 hx        1 CDA      0.122200
     47 H392        2.5520   -1.1550  -11.6100 hx        1 CDA      0.122200
     48 H44         6.6380   -3.4750  -11.0830 ha        1 CDA      0.182000
     49 H45         6.4820   -4.4240   -8.7370 ha        1 CDA      0.177000
     50 H50         4.3400   -4.0810   -7.4260 h4        1 CDA      0.054100
     51 H372        1.1780   -1.7060   -9.0080 hn        1 CDA      0.487800
@<TRIPOS>BOND
     1    1    2 ar  
     2    1    6 ar  
     3    2    3 ar  
     4    2    7 1   
     5    3    4 ar  
     6    3   32 1   
     7    4    5 ar  
     8    4   33 1   
     9    5    6 ar  
    10    5   34 1   
    11    6   35 1   
    12    7    8 1   
    13    7    9 1   
    14    7   10 1   
    15    8   11 1   
    16    8   36 1   
    17    8   37 1   
    18   11   12 1   
    19   11   38 1   
    20   12   13 1   
    21   12   17 2   
    22   13   14 1   
    23   13   18 2   
    24   14   15 1   
    25   14   20 1   
    26   15   16 2   
    27   15   19 1   
    28   16   17 1   
    29   16   39 1   
    30   19   40 1   
    31   19   41 1   
    32   19   42 1   
    33   20   21 1   
    34   20   43 1   
    35   20   44 1   
    36   21   22 1   
    37   21   23 2   
    38   22   24 1   
    39   22   45 1   
    40   22   51 1   
    41   24   25 1   
    42   24   46 1   
    43   24   47 1   
    44   25   26 ar  
    45   25   29 ar  
    46   26   27 ar  
    47   26   30 1   
    48   27   28 ar  
    49   27   48 1   
    50   28   31 ar  
    51   28   49 1   
    52   29   31 ar  
    53   31   50 1   
@<TRIPOS>SUBSTRUCTURE
     1 CDA         1 TEMP              0 ****  ****    0 ROOT
