@<TRIPOS>MOLECULE
CDA
   50    45     1     0     0
SMALL
bcc


@<TRIPOS>ATOM
      1 N1          3.2770    5.0860    3.1690 n1        1 CDA     -0.119000
      2 C2          2.0220    5.2230    2.6450 c1        1 CDA     -0.085000
      3 C3          1.7250    6.3060    1.8280 c1        1 CDA     -0.142000
      4 C4          2.6880    7.2350    1.5470 c1        1 CDA     -0.123500
      5 C5          3.9450    7.0970    2.0730 c1        1 CDA     -0.123500
      6 C6          4.2400    6.0140    2.8890 c1        1 CDA     -0.070000
      7 C11         0.9270    4.1350    2.9320 c3        1 CDA      0.282000
      8 C12         0.3780    3.5920    1.5960 c3        1 CDA     -0.071000
      9 F13        -0.0690    4.6810    3.6340 f         1 CDA     -0.161000
     10 F1          1.4720    3.1230    3.6380 f         1 CDA     -0.161000
     11 N18         0.4310    2.1360    1.6080 n3        1 CDA     -0.257000
     12 C21        -0.7560    1.3720    1.3670 c2        1 CDA      0.044000
     13 C22        -0.7430    0.3450    0.4260 c2        1 CDA      0.289000
     14 N23        -1.8610   -0.3650    0.1900 n2        1 CDA     -0.215000
     15 C24        -2.9980   -0.0800    0.8690 c1        1 CDA     -0.011000
     16 C25        -3.0090    0.9440    1.8070 c1        1 CDA     -0.150000
     17 N26        -1.8880    1.6560    2.0420 n1        1 CDA     -0.144000
     18 O28         0.2860    0.0890   -0.1880 o         1 CDA     -0.376000
     19 C29        -4.2600   -0.8730    0.6010 c3        1 CDA     -0.191000
     20 C33        -1.8810   -1.3550   -0.8810 c3        1 CDA     -0.063000
     21 C34        -0.9810   -2.5120   -0.5180 c2        1 CDA      0.282000
     22 N37        -0.3670   -3.2920   -1.5520 n         1 CDA     -0.335000
     23 O38        -0.8670   -2.8410    0.6210 o         1 CDA     -0.364000
     24 C39         0.1270   -4.6090   -1.2620 c3        1 CDA      0.011000
     25 C40         0.1820   -5.4450   -2.5710 c2        1 CDA     -0.068000
     26 C43         1.4060   -5.9540   -3.0260 c2        1 CDA      0.039000
     27 C44         1.4610   -6.6530   -4.2000 c1        1 CDA     -0.124000
     28 C45         0.3230   -6.8530   -4.9260 c1        1 CDA     -0.123500
     29 N46        -0.9470   -5.6450   -3.2950 n1        1 CDA     -0.122000
     30 F47         2.4890   -5.8160   -2.2940 f         1 CDA     -0.095000
     31 C50        -0.8930   -6.3450   -4.4710 c1        1 CDA     -0.123500
     32 H3          0.8200    6.4040    1.4500 ha        1 CDA      0.164000
     33 H4          2.4780    8.0020    0.9670 ha        1 CDA      0.152250
     34 H5          4.6250    7.7520    1.8760 ha        1 CDA      0.152250
     35 H6          5.1530    5.9140    3.2710 ha        1 CDA      0.166000
     36 H121        0.9190    3.9300    0.8630 h1        1 CDA      0.138500
     37 H122       -0.5660    3.8900    1.4770 h1        1 CDA      0.138500
     38 H18         1.2460    1.7020    1.7290 hn        1 CDA      0.234000
     39 H25        -3.8330    1.1500    2.2980 ha        1 CDA      0.175000
     40 H291       -4.0720   -1.8260    0.7010 hc        1 CDA      0.104667
     41 H292       -4.5710   -0.6940   -0.3120 hc        1 CDA      0.104667
     42 H293       -4.9610   -0.6050    1.2470 hc        1 CDA      0.104667
     43 H331       -2.7820   -1.6760   -1.0060 h1        1 CDA      0.137500
     44 H332       -1.5640   -0.9460   -1.7070 h1        1 CDA      0.137500
     45 H37        -0.2730   -2.9510   -2.3720 hn        1 CDA      0.252000
     46 H391       -0.4700   -5.0460   -0.6200 h1        1 CDA      0.125000
     47 H392        1.0140   -4.5430   -0.8840 h1        1 CDA      0.125000
     48 H44         2.3300   -7.0150   -4.5250 ha        1 CDA      0.156000
     49 H45         0.3600   -7.3480   -5.7560 ha        1 CDA      0.152250
     50 H50        -1.7130   -6.4890   -4.9950 ha        1 CDA      0.152250
@<TRIPOS>BOND
     1    1    6 1   
     2    2    3 1   
     3    2    7 1   
     4    3   32 1   
     5    4    5 1   
     6    4   33 1   
     7    5   34 1   
     8    6   35 1   
     9    7    8 1   
    10    7    9 1   
    11    7   10 1   
    12    8   11 1   
    13    8   36 1   
    14    8   37 1   
    15   11   12 1   
    16   11   38 1   
    17   12   13 1   
    18   12   17 1   
    19   13   14 1   
    20   13   18 1   
    21   14   20 1   
    22   15   16 1   
    23   15   19 1   
    24   16   39 1   
    25   19   40 1   
    26   19   41 1   
    27   19   42 1   
    28   20   21 1   
    29   20   43 1   
    30   20   44 1   
    31   21   22 1   
    32   21   23 1   
    33   22   24 1   
    34   22   45 1   
    35   24   25 1   
    36   24   46 1   
    37   24   47 1   
    38   25   26 1   
    39   25   29 1   
    40   26   27 1   
    41   26   30 1   
    42   27   48 1   
    43   28   31 1   
    44   28   49 1   
    45   31   50 1   
@<TRIPOS>SUBSTRUCTURE
     1 CDA         1 TEMP              0 ****  ****    0 ROOT
