@<TRIPOS>MOLECULE
CDA
   52    54     1     0     0
SMALL
bcc


@<TRIPOS>ATOM
      1 N1          1.3530   -1.5880   -1.0670 nb        1 CDA     -0.676000
      2 C2          2.2170   -0.5420   -0.9920 ca        1 CDA      0.296600
      3 C3          2.7280   -0.0400    0.2150 ca        1 CDA     -0.175300
      4 C4          2.3210   -0.6510    1.4090 ca        1 CDA     -0.081000
      5 C5          1.4400   -1.7270    1.3530 ca        1 CDA     -0.188300
      6 C6          0.9810   -2.1590    0.0870 ca        1 CDA      0.411200
      7 C11         2.6780    0.0640   -2.3190 c3        1 CDA      0.378300
      8 C12         1.4130    0.2750   -3.2400 c3        1 CDA      0.052800
      9 F13         3.6100   -0.7130   -2.9770 f         1 CDA     -0.220800
     10 F1          3.3580    1.2560   -2.1740 f         1 CDA     -0.220800
     11 N18         1.7990    0.8990   -4.5440 n4        1 CDA     -0.685000
     12 C21         0.6960    0.9250   -5.5160 cc        1 CDA      0.321200
     13 C22         0.9800    0.3210   -6.8390 c         1 CDA      0.591200
     14 N23        -0.0610    0.4060   -7.7940 n         1 CDA     -0.316000
     15 C24        -1.2840    0.9660   -7.4440 cc        1 CDA      0.127400
     16 C25        -1.4440    1.4820   -6.1450 cd        1 CDA     -0.029400
     17 N26        -0.4740    1.4770   -5.1970 nd        1 CDA     -0.392300
     18 O28         2.0480   -0.2530   -7.1410 o         1 CDA     -0.661500
     19 C29        -2.4160    1.0390   -8.4050 c3        1 CDA     -0.110900
     20 C33         0.2390   -0.0390   -9.1390 c3        1 CDA      0.013000
     21 C34         0.3970   -1.5600   -9.2250 c         1 CDA      0.513100
     22 N37         1.7810   -2.0920   -9.4130 n4        1 CDA     -0.662800
     23 O38        -0.5180   -2.3650   -9.1550 o         1 CDA     -0.371100
     24 C39         2.1970   -2.0460  -10.8560 c3        1 CDA      0.087500
     25 C40         3.5320   -2.7010  -11.0860 ca        1 CDA      0.260600
     26 C43         3.7440   -3.4190  -12.2900 ca        1 CDA      0.073600
     27 C44         5.0250   -3.9710  -12.5330 ca        1 CDA     -0.105000
     28 C45         6.0150   -3.7940  -11.5790 ca        1 CDA     -0.163300
     29 N46         4.5080   -2.5390  -10.1520 nb        1 CDA     -0.683000
     30 F47         2.7490   -3.5700  -13.1860 f         1 CDA     -0.107900
     31 C50         5.7080   -3.0740  -10.3980 ca        1 CDA      0.412200
     32 H3          3.4320    0.8060    0.2260 ha        1 CDA      0.171000
     33 H4          2.7040   -0.2830    2.3750 ha        1 CDA      0.174000
     34 H5          1.1020   -2.2400    2.2670 ha        1 CDA      0.176000
     35 H6          0.2810   -3.0110   -0.0020 h4        1 CDA      0.047100
     36 H121        0.6830    0.9450   -2.7050 hx        1 CDA      0.148700
     37 H122        0.9370   -0.7250   -3.4440 hx        1 CDA      0.148700
     38 H18         2.5810    0.3580   -4.9570 hn        1 CDA      0.483300
     39 H25        -2.4060    1.9370   -5.8310 h4        1 CDA      0.238000
     40 H291       -2.1850    1.7530   -9.2400 hc        1 CDA      0.105700
     41 H292       -3.3370    1.4130   -7.8830 hc        1 CDA      0.105700
     42 H293       -2.6520    0.0320   -8.8380 hc        1 CDA      0.105700
     43 H331       -0.6030    0.2390   -9.8450 h1        1 CDA      0.135200
     44 H332        1.1840    0.4800   -9.4850 h1        1 CDA      0.135200
     45 H37         1.8230   -3.0720   -9.0930 hn        1 CDA      0.490300
     46 H391        2.2510   -0.9620  -11.1650 hx        1 CDA      0.116700
     47 H392        1.4060   -2.5760  -11.4670 hx        1 CDA      0.116700
     48 H44         5.2100   -4.5270  -13.4690 ha        1 CDA      0.194000
     49 H45         7.0280   -4.2030  -11.7270 ha        1 CDA      0.188000
     50 H50         6.4760   -2.9210   -9.6130 h4        1 CDA      0.057100
     51 H182        2.1250    1.8640   -4.3710 hn        1 CDA      0.483300
     52 H372        2.4460   -1.5390   -8.8400 hn        1 CDA      0.490300
@<TRIPOS>BOND
     1    1    2 ar  
     2    1    6 ar  
     3    2    3 ar  
     4    2    7 1   
     5    3    4 ar  
     6    3   32 1   
     7    4    5 ar  
     8    4   33 1   
     9    5    6 ar  
    10    5   34 1   
    11    6   35 1   
    12    7    8 1   
    13    7    9 1   
    14    7   10 1   
    15    8   11 1   
    16    8   36 1   
    17    8   37 1   
    18   11   12 1   
    19   11   38 1   
    20   11   51 1   
    21   12   13 1   
    22   12   17 2   
    23   13   14 1   
    24   13   18 2   
    25   14   15 1   
    26   14   20 1   
    27   15   16 2   
    28   15   19 1   
    29   16   17 1   
    30   16   39 1   
    31   19   40 1   
    32   19   41 1   
    33   19   42 1   
    34   20   21 1   
    35   20   43 1   
    36   20   44 1   
    37   21   22 1   
    38   21   23 2   
    39   22   24 1   
    40   22   45 1   
    41   22   52 1   
    42   24   25 1   
    43   24   46 1   
    44   24   47 1   
    45   25   26 ar  
    46   25   29 ar  
    47   26   27 ar  
    48   26   30 1   
    49   27   28 ar  
    50   27   48 1   
    51   28   31 ar  
    52   28   49 1   
    53   29   31 ar  
    54   31   50 1   
@<TRIPOS>SUBSTRUCTURE
     1 CDA         1 TEMP              0 ****  ****    0 ROOT
