@<TRIPOS>MOLECULE
CDA
   50    52     1     0     0
SMALL
bcc


@<TRIPOS>ATOM
      1 N1          0.3640   -0.5340   -6.2600 nb        1 CDA     -0.639000
      2 C2         -0.7330   -0.0470   -5.6300 ca        1 CDA      0.335600
      3 C3         -2.0000    0.0240   -6.2390 ca        1 CDA     -0.212300
      4 C4         -2.1370   -0.4300   -7.5530 ca        1 CDA     -0.095000
      5 C5         -1.0180   -0.9320   -8.2160 ca        1 CDA     -0.230300
      6 C6          0.2090   -0.9620   -7.5240 ca        1 CDA      0.395200
      7 C11        -0.5530    0.4400   -4.1790 c3        1 CDA      0.329300
      8 C12        -0.1140   -0.7920   -3.3000 c3        1 CDA      0.166800
      9 F13        -1.7090    1.0240   -3.6910 f         1 CDA     -0.232800
     10 F1          0.3380    1.4870   -4.0880 f         1 CDA     -0.232800
     11 N18        -0.1340   -0.5810   -1.8850 nh        1 CDA     -0.773200
     12 C21         0.9820   -0.0500   -1.2150 cc        1 CDA      0.551200
     13 C22         0.6750    0.5530    0.1430 c         1 CDA      0.560200
     14 N23         1.7670    1.0320    0.8760 n         1 CDA     -0.321000
     15 C24         3.0670    0.8580    0.3850 cc        1 CDA     -0.013600
     16 C25         3.2420    0.2910   -0.8640 cd        1 CDA     -0.008400
     17 N26         2.2230   -0.1490   -1.6760 nd        1 CDA     -0.562300
     18 O28        -0.4820    0.6480    0.6060 o         1 CDA     -0.654500
     19 C29         4.2410    1.2840    1.1970 c3        1 CDA     -0.068900
     20 C33         1.5340    1.6600    2.1550 c3        1 CDA      0.003000
     21 C34         1.5160    0.6710    3.3350 c         1 CDA      0.639100
     22 N37         0.5180   -0.2840    3.3310 n         1 CDA     -0.526900
     23 O38         2.4080    0.7290    4.2030 o         1 CDA     -0.603100
     24 C39         0.2790   -1.1140    4.4730 c3        1 CDA      0.033700
     25 C40        -0.8050   -0.6670    5.4360 ca        1 CDA      0.353600
     26 C43        -1.0450   -1.4950    6.5740 ca        1 CDA      0.007600
     27 C44        -2.0380   -1.1210    7.4980 ca        1 CDA     -0.124000
     28 C45        -2.7540    0.0500    7.2630 ca        1 CDA     -0.224300
     29 N46        -1.5090    0.4640    5.2210 nb        1 CDA     -0.648000
     30 F47        -0.3270   -2.6250    6.7610 f         1 CDA     -0.129900
     31 C50        -2.4550    0.8050    6.1150 ca        1 CDA      0.390200
     32 H3         -2.8590    0.4340   -5.6890 ha        1 CDA      0.161000
     33 H4         -3.1150   -0.3860   -8.0550 ha        1 CDA      0.145000
     34 H5         -1.0810   -1.2950   -9.2500 ha        1 CDA      0.149000
     35 H6          1.1240   -1.3500   -8.0080 h4        1 CDA      0.030100
     36 H121        0.9080   -1.1050   -3.6520 h1        1 CDA      0.099200
     37 H122       -0.8520   -1.6160   -3.5180 h1        1 CDA      0.099200
     38 H18        -1.0010   -0.2130   -1.5350 hn        1 CDA      0.434800
     39 H25         4.2500    0.1550   -1.2910 h4        1 CDA      0.177000
     40 H291        5.1760    0.8600    0.7550 hc        1 CDA      0.065367
     41 H292        4.3280    2.4000    1.2030 hc        1 CDA      0.065367
     42 H293        4.1530    0.9270    2.2560 hc        1 CDA      0.065367
     43 H331        2.3440    2.4160    2.3620 h1        1 CDA      0.098200
     44 H332        0.5400    2.1960    2.1190 h1        1 CDA      0.098200
     45 H37        -0.2560   -0.1350    2.7150 hn        1 CDA      0.337500
     46 H391       -0.0150   -2.1400    4.1020 h1        1 CDA      0.084700
     47 H392        1.2360   -1.2100    5.0690 h1        1 CDA      0.084700
     48 H44        -2.2330   -1.7470    8.3800 ha        1 CDA      0.155000
     49 H45        -3.5370    0.3800    7.9590 ha        1 CDA      0.150000
     50 H50        -3.0010    1.7390    5.8920 h4        1 CDA      0.029100
@<TRIPOS>BOND
     1    1    2 ar  
     2    1    6 ar  
     3    2    3 ar  
     4    2    7 1   
     5    3    4 ar  
     6    3   32 1   
     7    4    5 ar  
     8    4   33 1   
     9    5    6 ar  
    10    5   34 1   
    11    6   35 1   
    12    7    8 1   
    13    7    9 1   
    14    7   10 1   
    15    8   11 1   
    16    8   36 1   
    17    8   37 1   
    18   11   12 1   
    19   11   38 1   
    20   12   13 1   
    21   12   17 2   
    22   13   14 1   
    23   13   18 2   
    24   14   15 1   
    25   14   20 1   
    26   15   16 2   
    27   15   19 1   
    28   16   17 1   
    29   16   39 1   
    30   19   40 1   
    31   19   41 1   
    32   19   42 1   
    33   20   21 1   
    34   20   43 1   
    35   20   44 1   
    36   21   22 1   
    37   21   23 2   
    38   22   24 1   
    39   22   45 1   
    40   24   25 1   
    41   24   46 1   
    42   24   47 1   
    43   25   26 ar  
    44   25   29 ar  
    45   26   27 ar  
    46   26   30 1   
    47   27   28 ar  
    48   27   48 1   
    49   28   31 ar  
    50   28   49 1   
    51   29   31 ar  
    52   31   50 1   
@<TRIPOS>SUBSTRUCTURE
     1 CDA         1 TEMP              0 ****  ****    0 ROOT
