@<TRIPOS>MOLECULE
CDB
   55    50     1     0     0
SMALL
bcc


@<TRIPOS>ATOM
      1 N1         -1.1860   -2.0920    6.9610 n2        1 CDB     -0.063000
      2 C2         -0.5310   -2.2610    5.7330 c1        1 CDB     -0.053000
      3 C3          0.7030   -2.8940    5.6860 c1        1 CDB     -0.106000
      4 C4          1.2870   -3.3580    6.8460 c1        1 CDB     -0.081500
      5 C5          0.6410   -3.1910    8.0620 c1        1 CDB     -0.081500
      6 C6         -0.6100   -2.5500    8.1110 c1        1 CDB      0.037000
      7 C11        -1.2520   -1.8780    4.4190 c3        1 CDB      0.278000
      8 C12        -0.9330   -0.4120    4.0700 c3        1 CDB     -0.065000
      9 F13        -2.5140   -2.0200    4.5740 f         1 CDB     -0.129000
     10 F1         -0.8100   -2.7160    3.3630 f         1 CDB     -0.129000
     11 N18        -1.2440   -0.1810    2.7240 n3        1 CDB     -0.284000
     12 C21        -0.8330    1.0950    2.0760 c2        1 CDB      0.152000
     13 C22        -0.2770    1.0820    0.7430 c2        1 CDB      0.333000
     14 N23         0.0660    2.2640    0.1270 n2        1 CDB     -0.182000
     15 C24        -0.1200    3.4420    0.7750 c1        1 CDB      0.126000
     16 C25        -0.6810    3.4470    2.1170 c1        1 CDB     -0.200000
     17 N26        -1.0190    2.2610    2.7220 n2        1 CDB     -0.092000
     18 O28        -0.1190    0.0520    0.1840 o         1 CDB     -0.261000
     19 C29         0.3220    4.7230    0.1350 c3        1 CDB     -0.211000
     20 C33         0.6770    2.2470   -1.1380 c3        1 CDB     -0.088000
     21 C34        -0.2950    1.6110   -2.1810 c2        1 CDB      0.278000
     22 N37         0.1930    1.2760   -3.5380 n         1 CDB     -0.307000
     23 O38        -1.4600    1.4500   -1.9010 o         1 CDB     -0.365000
     24 C39        -0.4690    0.3440   -4.2920 c3        1 CDB      0.003000
     25 C40         0.3950   -0.0450   -5.5300 c2        1 CDB     -0.090000
     26 C43         0.0060   -1.1140   -6.3360 c2        1 CDB      0.046000
     27 C44         0.7160   -1.4200   -7.4470 c1        1 CDB     -0.040000
     28 C45         1.8220   -0.6760   -7.7820 c1        1 CDB     -0.081500
     29 N46         1.4850    0.6940   -5.8550 n1        1 CDB     -0.156000
     30 F47        -1.1110   -1.8100   -6.0330 f         1 CDB     -0.088000
     31 C50         2.2070    0.3920   -6.9740 c1        1 CDB     -0.081500
     32 C1          0.3170   -2.5850   -8.2780 c3        1 CDB     -0.195000
     33 H1         -1.9750   -1.6870    6.9930 hn        1 CDB      0.306000
     34 H3          1.1510   -3.0090    4.8440 ha        1 CDB      0.204000
     35 H4          2.0770   -3.7620    6.8150 ha        1 CDB      0.192750
     36 H5          1.0410   -3.5090    8.8590 ha        1 CDB      0.192750
     37 H6         -1.0450   -2.4370    8.9270 ha        1 CDB      0.234000
     38 H121       -1.4920    0.2160    4.6670 h1        1 CDB      0.147500
     39 H122        0.0810   -0.2290    4.2280 h1        1 CDB      0.147500
     40 H18        -1.7760   -0.7570    2.2870 hn        1 CDB      0.310000
     41 H25        -0.8260    4.3380    2.6200 ha        1 CDB      0.219000
     42 H26        -1.3550    2.2630    3.5250 hn        1 CDB      0.277000
     43 H291       -0.1070    4.8070   -0.7890 hc        1 CDB      0.137333
     44 H292        0.0330    5.5280    0.7270 hc        1 CDB      0.137333
     45 H293        1.2780    4.7200    0.0460 hc        1 CDB      0.137333
     46 H331        0.8920    3.1730   -1.4120 h1        1 CDB      0.160500
     47 H332        1.5540    1.6840   -1.0970 h1        1 CDB      0.160500
     48 H37         0.9680    1.6480   -3.8480 hn        1 CDB      0.236000
     49 H391       -1.3600    0.7340   -4.6090 h1        1 CDB      0.136500
     50 H392       -0.6360   -0.4500   -3.7510 h1        1 CDB      0.136500
     51 H45         2.3030   -0.8830   -8.5390 ha        1 CDB      0.192750
     52 H50         3.0730    0.9820   -7.2330 ha        1 CDB      0.192750
     53 H11        -0.5490   -2.4320   -8.6390 hc        1 CDB      0.106333
     54 H12         0.9980   -2.7130   -9.0490 hc        1 CDB      0.106333
     55 H13         0.2980   -3.4030   -7.7130 hc        1 CDB      0.106333
@<TRIPOS>BOND
     1    1    6 1   
     2    1   33 1   
     3    2    3 1   
     4    2    7 1   
     5    3   34 1   
     6    4    5 1   
     7    4   35 1   
     8    5   36 1   
     9    6   37 1   
    10    7    8 1   
    11    7    9 1   
    12    7   10 1   
    13    8   11 1   
    14    8   38 1   
    15    8   39 1   
    16   11   12 1   
    17   11   40 1   
    18   12   13 1   
    19   12   17 1   
    20   13   14 1   
    21   13   18 1   
    22   14   20 1   
    23   15   16 1   
    24   15   19 1   
    25   16   41 1   
    26   17   42 1   
    27   19   43 1   
    28   19   44 1   
    29   19   45 1   
    30   20   21 1   
    31   20   46 1   
    32   20   47 1   
    33   21   22 1   
    34   21   23 1   
    35   22   24 1   
    36   22   48 1   
    37   24   25 1   
    38   24   49 1   
    39   24   50 1   
    40   25   26 1   
    41   25   29 1   
    42   26   27 1   
    43   26   30 1   
    44   27   32 1   
    45   28   31 1   
    46   28   51 1   
    47   31   52 1   
    48   32   53 1   
    49   32   54 1   
    50   32   55 1   
@<TRIPOS>SUBSTRUCTURE
     1 CDB         1 TEMP              0 ****  ****    0 ROOT
