@<TRIPOS>MOLECULE
CDB
   56    58     1     0     0
SMALL
bcc


@<TRIPOS>ATOM
      1 N1         -0.2250   -0.5480    0.1630 na        1 CDB     -0.062100
      2 C2          1.0930   -0.1990   -0.0330 ca        1 CDB     -0.100600
      3 C3          1.9650   -0.1180    1.0550 ca        1 CDB     -0.102000
      4 C4          1.4900   -0.3860    2.3550 ca        1 CDB      0.008000
      5 C5          0.1530   -0.7280    2.5340 ca        1 CDB     -0.108000
      6 C6         -0.6950   -0.8080    1.4100 ca        1 CDB      0.024700
      7 C11         1.6320    0.0120   -1.4680 c3        1 CDB      0.466900
      8 C12         2.1070    1.5140   -1.6320 c3        1 CDB     -0.030700
      9 F13         0.7070   -0.3070   -2.4390 f         1 CDB     -0.187300
     10 F1          2.6570   -0.8680   -1.7280 f         1 CDB     -0.187300
     11 N18         2.7270    1.7300   -2.9170 nu        1 CDB     -0.342100
     12 C21         3.1440    2.9280   -3.3990 cc        1 CDB      0.361800
     13 C22         3.7980    2.9090   -4.7980 c         1 CDB      0.599200
     14 N23         4.2950    4.1170   -5.2950 n         1 CDB     -0.333000
     15 C24         4.1170    5.3140   -4.5750 cc        1 CDB      0.068400
     16 C25         3.5020    5.2910   -3.3450 cd        1 CDB     -0.162100
     17 N26         3.0310    4.1120   -2.7550 na        1 CDB     -0.195400
     18 O28         3.8780    1.8490   -5.4290 o         1 CDB     -0.535500
     19 C29         4.5950    6.6110   -5.1330 c3        1 CDB     -0.087900
     20 C33         5.0010    4.0980   -6.5580 c3        1 CDB      0.017000
     21 C34         4.1070    4.3630   -7.7750 c         1 CDB      0.503100
     22 N37         4.7130    4.0190   -9.0980 ny        1 CDB     -0.659800
     23 O38         2.9780    4.8270   -7.7520 o         1 CDB     -0.381100
     24 C39         4.0710    4.7480  -10.2500 c3        1 CDB      0.088500
     25 C40         4.7640    4.4560  -11.5540 ca        1 CDB      0.260600
     26 C43         4.7690    5.4590  -12.5550 ca        1 CDB      0.060600
     27 C44         5.3400    5.1600  -13.8250 ca        1 CDB     -0.027300
     28 C45         5.8800    3.8890  -14.0050 ca        1 CDB     -0.178300
     29 N46         5.3050    3.2240  -11.7460 nb        1 CDB     -0.708000
     30 F47         4.2390    6.6730  -12.3000 f         1 CDB     -0.110900
     31 C50         5.8470    2.9590  -12.9400 ca        1 CDB      0.424200
     32 C1          5.3410    6.1670  -14.9060 c3        1 CDB     -0.083800
     33 H1         -0.8330   -0.6500   -0.6410 hn        1 CDB      0.360700
     34 H3          3.0310    0.1180    0.8910 ha        1 CDB      0.200000
     35 H4          2.1830   -0.3350    3.2200 ha        1 CDB      0.220000
     36 H5         -0.2620   -0.9540    3.5370 ha        1 CDB      0.232000
     37 H6         -1.7700   -1.0940    1.5040 h4        1 CDB      0.243000
     38 H121        2.8440    1.7320   -0.8060 h1        1 CDB      0.103700
     39 H122        1.1960    2.1700   -1.5200 h1        1 CDB      0.103700
     40 H18         2.8800    0.9220   -3.5060 hn        1 CDB      0.366700
     41 H25         3.3460    6.2120   -2.7460 h4        1 CDB      0.237000
     42 H26         2.6080    4.1870   -1.8450 hn        1 CDB      0.342700
     43 H291        5.7150    6.6520   -5.1320 hc        1 CDB      0.097700
     44 H292        4.2150    6.7610   -6.1750 hc        1 CDB      0.097700
     45 H293        4.2210    7.4620   -4.5050 hc        1 CDB      0.097700
     46 H331        5.4950    3.0820   -6.6740 h1        1 CDB      0.140700
     47 H332        5.8070    4.8950   -6.5450 h1        1 CDB      0.140700
     48 H37         4.6040    3.0030   -9.2620 hn        1 CDB      0.483300
     49 H391        2.9910    4.4180  -10.3040 hx        1 CDB      0.126200
     50 H392        4.1050    5.8560  -10.0320 hx        1 CDB      0.126200
     51 H45         6.3320    3.6030  -14.9690 ha        1 CDB      0.190000
     52 H50         6.2780    1.9450  -13.0630 h4        1 CDB      0.059100
     53 H11         4.3650    6.1320  -15.4570 hc        1 CDB      0.083033
     54 H12         6.1630    5.9680  -15.6390 hc        1 CDB      0.083033
     55 H13         5.4700    7.1990  -14.4930 hc        1 CDB      0.083033
     56 H372        5.7200    4.2260   -9.0960 hn        1 CDB      0.483300
@<TRIPOS>BOND
     1    1    2 1   
     2    1    6 2   
     3    1   33 1   
     4    2    3 ar  
     5    2    7 1   
     6    3    4 ar  
     7    3   34 1   
     8    4    5 ar  
     9    4   35 1   
    10    5    6 ar  
    11    5   36 1   
    12    6   37 1   
    13    7    8 1   
    14    7    9 1   
    15    7   10 1   
    16    8   11 1   
    17    8   38 1   
    18    8   39 1   
    19   11   12 2   
    20   11   40 1   
    21   12   13 1   
    22   12   17 1   
    23   13   14 1   
    24   13   18 2   
    25   14   15 1   
    26   14   20 1   
    27   15   16 2   
    28   15   19 1   
    29   16   17 1   
    30   16   41 1   
    31   17   42 1   
    32   19   43 1   
    33   19   44 1   
    34   19   45 1   
    35   20   21 1   
    36   20   46 1   
    37   20   47 1   
    38   21   22 1   
    39   21   23 2   
    40   22   24 1   
    41   22   48 1   
    42   22   56 1   
    43   24   25 1   
    44   24   49 1   
    45   24   50 1   
    46   25   26 ar  
    47   25   29 ar  
    48   26   27 ar  
    49   26   30 1   
    50   27   28 ar  
    51   27   32 1   
    52   28   31 ar  
    53   28   51 1   
    54   29   31 ar  
    55   31   52 1   
    56   32   53 1   
    57   32   54 1   
    58   32   55 1   
@<TRIPOS>SUBSTRUCTURE
     1 CDB         1 TEMP              0 ****  ****    0 ROOT
