@<TRIPOS>MOLECULE
CDB
   57    59     1     0     0
SMALL
bcc


@<TRIPOS>ATOM
      1 N1          0.6130   -1.3260   -0.3980 na        1 CDB     -0.061100
      2 C2          1.2890   -0.1470   -0.1480 ca        1 CDB     -0.118600
      3 C3          0.8380    0.7160    0.8490 ca        1 CDB     -0.090000
      4 C4         -0.3190    0.3900    1.5960 ca        1 CDB      0.008000
      5 C5         -0.9890   -0.7970    1.3260 ca        1 CDB     -0.089000
      6 C6         -0.4960   -1.6520    0.3130 ca        1 CDB      0.046700
      7 C11         2.6180    0.1330   -0.8790 c3        1 CDB      0.470900
      8 C12         2.5740    1.5390   -1.6290 c3        1 CDB      0.044800
      9 F13         2.9610   -0.8450   -1.7900 f         1 CDB     -0.184300
     10 F1          3.6790    0.1160   -0.0010 f         1 CDB     -0.184300
     11 N18         3.8970    1.8120   -2.2870 n4        1 CDB     -0.692000
     12 C21         3.9990    3.0660   -3.0430 cc        1 CDB      0.016200
     13 C22         4.3030    2.9370   -4.4930 c         1 CDB      0.622200
     14 N23         4.5980    4.1530   -5.2120 n         1 CDB     -0.255000
     15 C24         4.4960    5.3580   -4.5960 cc        1 CDB      0.239400
     16 C25         4.1310    5.4110   -3.1910 cd        1 CDB     -0.132100
     17 N26         3.9190    4.3030   -2.4660 na        1 CDB      0.013700
     18 O28         4.3210    1.8500   -5.0730 o         1 CDB     -0.498500
     19 C29         4.7650    6.6510   -5.2670 c3        1 CDB     -0.145900
     20 C33         5.0690    4.0220   -6.5950 c3        1 CDB     -0.034000
     21 C34         3.9780    4.2180   -7.6570 c         1 CDB      0.512100
     22 N37         4.3370    3.8560   -9.0480 n4        1 CDB     -0.660800
     23 O38         2.8630    4.6590   -7.4100 o         1 CDB     -0.387100
     24 C39         3.8080    4.8530  -10.0740 c3        1 CDB      0.106500
     25 C40         4.2290    4.4460  -11.4540 ca        1 CDB      0.228600
     26 C43         4.7190    5.4290  -12.3490 ca        1 CDB      0.078600
     27 C44         4.9770    5.0600  -13.7020 ca        1 CDB     -0.025300
     28 C45         4.7570    3.7310  -14.0580 ca        1 CDB     -0.158300
     29 N46         4.0410    3.1450  -11.8180 nb        1 CDB     -0.703000
     30 F47         4.9240    6.6900  -11.9210 f         1 CDB     -0.110900
     31 C50         4.3020    2.8090  -13.0820 ca        1 CDB      0.429200
     32 C1          5.4450    6.0590  -14.6840 c3        1 CDB     -0.088800
     33 H1          0.9770   -1.9720   -1.0890 hn        1 CDB      0.364700
     34 H3          1.3960    1.6350    1.0920 ha        1 CDB      0.185000
     35 H4         -0.6700    1.0720    2.3990 ha        1 CDB      0.231000
     36 H5         -1.8940   -1.1030    1.8950 ha        1 CDB      0.248000
     37 H6         -0.9940   -2.6250    0.0720 h4        1 CDB      0.258000
     38 H121        2.3530    2.3410   -0.8730 hx        1 CDB      0.143200
     39 H122        1.7670    1.5070   -2.4150 hx        1 CDB      0.143200
     40 H18         4.6450    1.7770   -1.5660 hn        1 CDB      0.510300
     41 H25         4.0330    6.4070   -2.6870 h4        1 CDB      0.284000
     42 H26         3.7070    4.4080   -1.4740 hn        1 CDB      0.374700
     43 H291        4.3480    7.5140   -4.6760 hc        1 CDB      0.148700
     44 H292        4.3130    6.6920   -6.2960 hc        1 CDB      0.148700
     45 H293        5.8790    6.8210   -5.3610 hc        1 CDB      0.148700
     46 H331        5.8840    4.7920   -6.7740 h1        1 CDB      0.163200
     47 H332        5.5240    2.9860   -6.7100 h1        1 CDB      0.163200
     48 H37         5.3540    3.7660   -9.1670 hn        1 CDB      0.493300
     49 H391        2.6810    4.8510   -9.9810 hx        1 CDB      0.126700
     50 H392        4.2150    5.8720   -9.8180 hx        1 CDB      0.126700
     51 H45         4.9340    3.3910  -15.0940 ha        1 CDB      0.201000
     52 H50         4.1360    1.7440  -13.3500 h4        1 CDB      0.068100
     53 H11         6.0500    6.8610  -14.1900 hc        1 CDB      0.090367
     54 H12         4.5630    6.5450  -15.1800 hc        1 CDB      0.090367
     55 H13         6.0680    5.5780  -15.4810 hc        1 CDB      0.090367
     56 H182        4.0840    1.0350   -2.9650 hn        1 CDB      0.510300
     57 H372        3.9100    2.9340   -9.2770 hn        1 CDB      0.493300
@<TRIPOS>BOND
     1    1    2 1   
     2    1    6 2   
     3    1   33 1   
     4    2    3 ar  
     5    2    7 1   
     6    3    4 ar  
     7    3   34 1   
     8    4    5 ar  
     9    4   35 1   
    10    5    6 ar  
    11    5   36 1   
    12    6   37 1   
    13    7    8 1   
    14    7    9 1   
    15    7   10 1   
    16    8   11 1   
    17    8   38 1   
    18    8   39 1   
    19   11   12 1   
    20   11   40 1   
    21   11   56 1   
    22   12   13 1   
    23   12   17 2   
    24   13   14 1   
    25   13   18 2   
    26   14   15 1   
    27   14   20 1   
    28   15   16 2   
    29   15   19 1   
    30   16   17 1   
    31   16   41 1   
    32   17   42 1   
    33   19   43 1   
    34   19   44 1   
    35   19   45 1   
    36   20   21 1   
    37   20   46 1   
    38   20   47 1   
    39   21   22 1   
    40   21   23 2   
    41   22   24 1   
    42   22   48 1   
    43   22   57 1   
    44   24   25 1   
    45   24   49 1   
    46   24   50 1   
    47   25   26 ar  
    48   25   29 ar  
    49   26   27 ar  
    50   26   30 1   
    51   27   28 ar  
    52   27   32 1   
    53   28   31 ar  
    54   28   51 1   
    55   29   31 ar  
    56   31   52 1   
    57   32   53 1   
    58   32   54 1   
    59   32   55 1   
@<TRIPOS>SUBSTRUCTURE
     1 CDB         1 TEMP              0 ****  ****    0 ROOT
