@<TRIPOS>MOLECULE
CDB
   55    57     1     0     0
SMALL
bcc


@<TRIPOS>ATOM
      1 N1         -6.9620    1.0260   -1.6770 na        1 CDB     -0.064100
      2 C2         -6.2470    0.0610   -1.0090 ca        1 CDB     -0.084600
      3 C3         -6.8770   -1.1130   -0.5860 ca        1 CDB     -0.106000
      4 C4         -8.2500   -1.2990   -0.8340 ca        1 CDB      0.009000
      5 C5         -8.9610   -0.3030   -1.5020 ca        1 CDB     -0.116000
      6 C6         -8.2900    0.8600   -1.9230 ca        1 CDB      0.012700
      7 C11        -4.7250    0.2370   -0.7680 c3        1 CDB      0.427900
      8 C12        -4.4640    0.3340    0.7950 c3        1 CDB     -0.004700
      9 F13        -4.2160    1.3600   -1.3920 f         1 CDB     -0.200800
     10 F1         -4.0360   -0.7840   -1.3730 f         1 CDB     -0.200800
     11 N18        -3.1530   -0.0290    1.2150 nh        1 CDB     -0.371100
     12 C21        -2.0150    0.7300    1.1060 cc        1 CDB      0.309800
     13 C22        -0.7240    0.0840    1.6490 c         1 CDB      0.602200
     14 N23         0.4470    0.8370    1.5630 n         1 CDB     -0.289000
     15 C24         0.4410    2.0960    0.9650 cc        1 CDB      0.134400
     16 C25        -0.7420    2.6480    0.5030 cd        1 CDB     -0.233100
     17 N26        -1.9520    1.9570    0.5520 na        1 CDB     -0.149400
     18 O28        -0.7850   -1.0400    2.1630 o         1 CDB     -0.541500
     19 C29         1.7060    2.8720    0.8190 c3        1 CDB     -0.092900
     20 C33         1.7090    0.1770    1.8780 c3        1 CDB     -0.022000
     21 C34         2.4510   -0.3620    0.6330 c         1 CDB      0.638100
     22 N37         3.4760   -1.2470    0.8810 n         1 CDB     -0.492900
     23 O38         2.0730   -0.0430   -0.5110 o         1 CDB     -0.605100
     24 C39         4.4480   -1.5450   -0.1420 c3        1 CDB      0.024700
     25 C40         5.7000   -0.6900   -0.1330 ca        1 CDB      0.330600
     26 C43         6.7930   -1.1280   -0.9330 ca        1 CDB      0.018600
     27 C44         7.9820   -0.3600   -0.9620 ca        1 CDB     -0.045300
     28 C45         8.0180    0.8040   -0.1910 ca        1 CDB     -0.212300
     29 N46         5.7540    0.4430    0.6020 nb        1 CDB     -0.691000
     30 F47         6.6880   -2.2680   -1.6500 f         1 CDB     -0.121900
     31 C50         6.8900    1.1610    0.5670 ca        1 CDB      0.394200
     32 C1          9.1360   -0.7790   -1.7860 c3        1 CDB     -0.070800
     33 H1         -6.4830    1.8490   -2.0160 hn        1 CDB      0.355700
     34 H3         -6.2880   -1.9020   -0.0840 ha        1 CDB      0.204000
     35 H4         -8.7520   -2.2310   -0.5070 ha        1 CDB      0.215000
     36 H5        -10.0420   -0.4090   -1.7200 ha        1 CDB      0.224000
     37 H6         -8.8130    1.6760   -2.4710 h4        1 CDB      0.234000
     38 H121       -5.1910   -0.3630    1.3050 h1        1 CDB      0.108200
     39 H122       -4.7080    1.3950    1.0930 h1        1 CDB      0.108200
     40 H18        -3.0150   -0.9620    1.5730 hn        1 CDB      0.359700
     41 H25        -0.7860    3.6580    0.0560 h4        1 CDB      0.219000
     42 H26        -2.7580    2.4020    0.1490 hn        1 CDB      0.326700
     43 H291        1.5070    3.8480    0.3090 hc        1 CDB      0.101033
     44 H292        2.1630    3.0820    1.8200 hc        1 CDB      0.101033
     45 H293        2.4400    2.2890    0.1980 hc        1 CDB      0.101033
     46 H331        2.3800    0.9260    2.3910 h1        1 CDB      0.120700
     47 H332        1.4920   -0.6700    2.5950 h1        1 CDB      0.120700
     48 H37         3.8150   -1.3030    1.8180 hn        1 CDB      0.318500
     49 H391        4.7620   -2.6220   -0.0010 h1        1 CDB      0.098700
     50 H392        3.9640   -1.4430   -1.1570 h1        1 CDB      0.098700
     51 H45         8.9200    1.4330   -0.1730 ha        1 CDB      0.165000
     52 H50         6.8960    2.0750    1.1880 h4        1 CDB      0.030100
     53 H11         9.2580   -1.8910   -1.7550 hc        1 CDB      0.068033
     54 H12         8.9690   -0.4790   -2.8530 hc        1 CDB      0.068033
     55 H13        10.0810   -0.3020   -1.4280 hc        1 CDB      0.068033
@<TRIPOS>BOND
     1    1    2 1   
     2    1    6 2   
     3    1   33 1   
     4    2    3 ar  
     5    2    7 1   
     6    3    4 ar  
     7    3   34 1   
     8    4    5 ar  
     9    4   35 1   
    10    5    6 ar  
    11    5   36 1   
    12    6   37 1   
    13    7    8 1   
    14    7    9 1   
    15    7   10 1   
    16    8   11 1   
    17    8   38 1   
    18    8   39 1   
    19   11   12 2   
    20   11   40 1   
    21   12   13 1   
    22   12   17 1   
    23   13   14 1   
    24   13   18 2   
    25   14   15 1   
    26   14   20 1   
    27   15   16 2   
    28   15   19 1   
    29   16   17 1   
    30   16   41 1   
    31   17   42 1   
    32   19   43 1   
    33   19   44 1   
    34   19   45 1   
    35   20   21 1   
    36   20   46 1   
    37   20   47 1   
    38   21   22 1   
    39   21   23 2   
    40   22   24 1   
    41   22   48 1   
    42   24   25 1   
    43   24   49 1   
    44   24   50 1   
    45   25   26 ar  
    46   25   29 ar  
    47   26   27 ar  
    48   26   30 1   
    49   27   28 ar  
    50   27   32 1   
    51   28   31 ar  
    52   28   51 1   
    53   29   31 ar  
    54   31   52 1   
    55   32   53 1   
    56   32   54 1   
    57   32   55 1   
@<TRIPOS>SUBSTRUCTURE
     1 CDB         1 TEMP              0 ****  ****    0 ROOT
