@<TRIPOS>MOLECULE
CDC
   56    56     1     0     0
SMALL
bcc


@<TRIPOS>ATOM
      1 N1          2.8620   -4.9480   -0.2340 n         1 CDC     -0.284000
      2 C2          4.1890   -4.3490   -0.2970 c2        1 CDC      0.355000
      3 N3          5.0050   -4.2670    0.8960 n2        1 CDC     -0.317000
      4 C4          4.5020   -4.7570    2.1430 c1        1 CDC      0.200000
      5 C5          3.1840   -5.3530    2.2070 c1        1 CDC     -0.320000
      6 C6          2.3600   -5.4320    1.0040 c2        1 CDC      0.073000
      7 O2          4.6110   -3.9400   -1.3380 o         1 CDC     -0.381000
      8 N4          5.2750   -4.6430    3.3090 n3        1 CDC     -0.343000
      9 C1'         2.1370   -5.2290   -1.4630 c3        1 CDC      0.107000
     10 C2'         0.5830   -5.1610   -1.2070 c3        1 CDC      0.005000
     11 O2'        -0.0350   -6.2320   -1.7630 oh        1 CDC     -0.311000
     12 C3'         0.1170   -3.8840   -1.8690 c3        1 CDC     -0.025000
     13 C4'         1.2330   -3.2220   -2.1600 c3        1 CDC     -0.021000
     14 O4'         2.3740   -4.3260   -2.3390 os        1 CDC     -0.276000
     15 O3'        -0.6360   -4.1920   -3.1060 oh        1 CDC     -0.341000
     16 C5'         1.5810   -2.2920   -1.0440 c3        1 CDC      0.014000
     17 O5'         0.6850   -1.1920   -1.0500 os        1 CDC     -0.763000
     18 PA          1.2730    0.2790   -0.8280 p5        1 CDC      2.054000
     19 O1A         1.6950    0.4420    0.6160 o         1 CDC     -0.860500
     20 O2A         2.4660    0.4860   -1.7270 o         1 CDC     -0.860500
     21 O3A         0.1480    1.3590   -1.1780 os        1 CDC     -1.303000
     22 PB          0.0280    2.7930   -0.4470 p5        1 CDC      2.073000
     23 O1B        -1.4490    3.3710   -0.6450 os        1 CDC     -0.761000
     24 O2B         1.0250    3.7450   -1.0480 o         1 CDC     -0.863000
     25 O3B         0.3090    2.6350    1.0150 o         1 CDC     -0.863000
     26 C14        -1.8250    4.6000    0.0730 c3        1 CDC      0.025000
     27 C15        -3.3560    4.8370   -0.0730 c3        1 CDC     -0.137000
     28 N11        -3.7460    5.9940    0.7110 n4        1 CDC      0.056000
     29 C16        -5.2540    6.1360    0.6830 c3        1 CDC     -0.206000
     30 C17        -3.3020    5.8200    2.0840 c3        1 CDC     -0.206000
     31 C18        -3.1440    7.1740    0.1580 c3        1 CDC     -0.206000
     32 H5          2.8380   -5.6880    3.0610 ha        1 CDC      0.196000
     33 H6          1.4690   -5.8340    1.0460 h4        1 CDC      0.217000
     34 H41         6.1290   -4.3290    3.2610 hn        1 CDC      0.207500
     35 H42         4.9370   -4.9150    4.1030 hn        1 CDC      0.207500
     36 H1'         2.3810   -6.1000   -1.8050 h2        1 CDC      0.167000
     37 H2'         0.4020   -5.1270   -0.2500 h1        1 CDC      0.140000
     38 HO'2       -0.5460   -6.6300   -1.1520 ho        1 CDC      0.214000
     39 H3'        -0.4420   -3.3590   -1.2460 h1        1 CDC      0.130000
     40 H4'         1.1180   -2.7150   -3.0000 h1        1 CDC      0.101000
     41 H3T        -1.4880   -3.9040   -3.0190 ho        1 CDC      0.231000
     42 H5'1        2.5000   -1.9670   -1.1620 h1        1 CDC      0.091000
     43 H5'2        1.5090   -2.7590   -0.2020 h1        1 CDC      0.091000
     44 H141       -1.3340    5.3710   -0.3100 h1        1 CDC      0.112000
     45 H142       -1.5940    4.5050    1.0390 h1        1 CDC      0.112000
     46 H151       -3.8380    4.0490    0.2490 hx        1 CDC      0.105000
     47 H152       -3.5720    4.9910   -1.0100 hx        1 CDC      0.105000
     48 H161       -5.5570    6.2620   -0.2490 hx        1 CDC      0.140000
     49 H162       -5.5200    6.9090    1.2190 hx        1 CDC      0.140000
     50 H163       -5.6720    5.3120    1.0590 hx        1 CDC      0.140000
     51 H171       -2.3370    6.0170    2.1450 hx        1 CDC      0.140000
     52 H172       -3.4650    4.8970    2.3660 hx        1 CDC      0.140000
     53 H173       -3.8000    6.4340    2.6700 hx        1 CDC      0.140000
     54 H181       -3.5250    7.9660    0.5880 hx        1 CDC      0.140000
     55 H182       -2.1660    7.1510    0.3150 hx        1 CDC      0.140000
     56 H183       -3.3180    7.2090   -0.8010 hx        1 CDC      0.140000
@<TRIPOS>BOND
     1    1    2 1   
     2    1    6 1   
     3    1    9 1   
     4    2    3 1   
     5    2    7 1   
     6    3    4 1   
     7    4    8 1   
     8    5    6 1   
     9    5   32 1   
    10    6   33 1   
    11    8   34 1   
    12    8   35 1   
    13    9   10 1   
    14    9   14 1   
    15    9   36 1   
    16   10   11 1   
    17   10   12 1   
    18   10   37 1   
    19   11   38 1   
    20   12   13 1   
    21   12   15 1   
    22   12   39 1   
    23   13   14 1   
    24   13   16 1   
    25   13   40 1   
    26   15   41 1   
    27   16   17 1   
    28   16   42 1   
    29   16   43 1   
    30   17   18 1   
    31   18   19 1   
    32   18   20 1   
    33   18   21 1   
    34   21   22 1   
    35   22   23 1   
    36   22   24 1   
    37   22   25 1   
    38   23   26 1   
    39   26   27 1   
    40   26   44 1   
    41   26   45 1   
    42   27   28 1   
    43   27   46 1   
    44   27   47 1   
    45   28   29 1   
    46   28   30 1   
    47   28   31 1   
    48   29   48 1   
    49   29   49 1   
    50   29   50 1   
    51   30   51 1   
    52   30   52 1   
    53   30   53 1   
    54   31   54 1   
    55   31   55 1   
    56   31   56 1   
@<TRIPOS>SUBSTRUCTURE
     1 CDC         1 TEMP              0 ****  ****    0 ROOT
