@<TRIPOS>MOLECULE
CDD
   49    51     1     0     0
SMALL
bcc


@<TRIPOS>ATOM
      1 C1          6.5050   -1.4720   -1.7840 ca        1 CDD     -0.215300
      2 N2          5.2110   -1.4410   -1.2640 na        1 CDD      0.272600
      3 C3          5.0830   -1.3870    0.1270 ca        1 CDD     -0.260600
      4 C4          6.2100   -1.3570    0.9590 ca        1 CDD     -0.051000
      5 C5          7.4920   -1.3820    0.4200 ca        1 CDD     -0.171000
      6 C6          7.6310   -1.4450   -0.9680 ca        1 CDD     -0.070000
      7 C11         3.6710   -1.3740    0.7350 c3        1 CDD      0.482900
      8 C12         3.0110    0.0090    0.3920 c3        1 CDD      0.163800
      9 F13         2.9040   -2.4350    0.3000 f         1 CDD     -0.223300
     10 F14         3.7140   -1.6070    2.0950 f         1 CDD     -0.223300
     11 N15         1.6940    0.1370    0.9600 nh        1 CDD     -0.786200
     12 C18         0.9630    1.3030    0.7370 cc        1 CDD      0.579200
     13 C19        -0.5150    1.2020    1.0730 c         1 CDD      0.562200
     14 N20        -1.2500    2.3950    1.0470 n         1 CDD     -0.323000
     15 C21        -0.6190    3.5670    0.6160 cc        1 CDD      0.050000
     16 C22         0.7200    3.5570    0.2750 cd        1 CDD      0.022600
     17 N23         1.5200    2.4410    0.3320 nd        1 CDD     -0.589300
     18 C24        -2.6410    2.3680    1.4370 c3        1 CDD      0.002000
     19 C25        -3.6280    2.0540    0.2980 c         1 CDD      0.640100
     20 N28        -3.4150    0.9050   -0.4300 n         1 CDD     -0.548900
     21 C29        -4.3540    0.4590   -1.4260 c3        1 CDD      0.131300
     22 C30        -5.2330   -0.6780   -0.9880 ca        1 CDD     -0.153300
     23 C33        -6.6170   -0.5150   -0.9020 ca        1 CDD     -0.087000
     24 C34        -7.4360   -1.5800   -0.5310 ca        1 CDD     -0.146000
     25 C35        -6.8790   -2.8230   -0.2330 ca        1 CDD     -0.101000
     26 C2         -5.5020   -3.0120   -0.3040 ca        1 CDD     -0.165000
     27 C37        -4.6750   -1.9380   -0.6800 ca        1 CDD      0.130900
     28 O42        -1.0780    0.1250    1.3530 o         1 CDD     -0.636500
     29 CL43       -1.4980    5.0210    0.5040 cl        1 CDD     -0.041400
     30 O44        -4.5630    2.8450    0.0670 o         1 CDD     -0.600100
     31 F1         -3.3330   -2.1200   -0.7490 f         1 CDD     -0.139900
     32 O1          4.2370   -1.4430   -2.0020 o         1 CDD     -0.269000
     33 H1          6.5590   -1.5220   -2.8860 h4        1 CDD      0.192000
     34 H4          6.0550   -1.3190    2.0500 ha        1 CDD      0.171000
     35 H5          8.3750   -1.3560    1.0730 ha        1 CDD      0.155000
     36 H6          8.6260   -1.4740   -1.4380 ha        1 CDD      0.159000
     37 H121        3.6730    0.8140    0.8170 h1        1 CDD      0.090700
     38 H122        2.9900    0.0980   -0.7340 h1        1 CDD      0.090700
     39 H15         1.1450   -0.7010    0.9800 hn        1 CDD      0.450800
     40 H22         1.2320    4.4720   -0.0710 h4        1 CDD      0.188000
     41 H241       -2.7710    1.5770    2.2350 h1        1 CDD      0.103200
     42 H242       -2.9370    3.3670    1.8680 h1        1 CDD      0.103200
     43 H28        -2.7850    0.2190   -0.0710 hn        1 CDD      0.335500
     44 H291       -4.9930    1.3330   -1.7430 h1        1 CDD      0.074700
     45 H292       -3.7550    0.1100   -2.3190 h1        1 CDD      0.074700
     46 H33        -7.0610    0.4680   -1.1290 ha        1 CDD      0.146000
     47 H34        -8.5250   -1.4370   -0.4700 ha        1 CDD      0.138000
     48 H35        -7.5270   -3.6610    0.0620 ha        1 CDD      0.138000
     49 H2         -5.0510   -3.9860   -0.0690 ha        1 CDD      0.150000
@<TRIPOS>BOND
     1    1    2 1   
     2    1    6 ar  
     3    1   33 1   
     4    2    3 2   
     5    2   32 1   
     6    3    4 ar  
     7    3    7 1   
     8    4    5 ar  
     9    4   34 1   
    10    5    6 ar  
    11    5   35 1   
    12    6   36 1   
    13    7    8 1   
    14    7    9 1   
    15    7   10 1   
    16    8   11 1   
    17    8   37 1   
    18    8   38 1   
    19   11   12 1   
    20   11   39 1   
    21   12   13 1   
    22   12   17 2   
    23   13   14 1   
    24   13   28 2   
    25   14   15 1   
    26   14   18 1   
    27   15   16 2   
    28   15   29 1   
    29   16   17 1   
    30   16   40 1   
    31   18   19 1   
    32   18   41 1   
    33   18   42 1   
    34   19   20 1   
    35   19   30 2   
    36   20   21 1   
    37   20   43 1   
    38   21   22 1   
    39   21   44 1   
    40   21   45 1   
    41   22   23 ar  
    42   22   27 ar  
    43   23   24 ar  
    44   23   46 1   
    45   24   25 ar  
    46   24   47 1   
    47   25   26 ar  
    48   25   48 1   
    49   26   27 ar  
    50   26   49 1   
    51   27   31 1   
@<TRIPOS>SUBSTRUCTURE
     1 CDD         1 TEMP              0 ****  ****    0 ROOT
