@<TRIPOS>MOLECULE
CDD
   49    44     1     0     0
SMALL
bcc


@<TRIPOS>ATOM
      1 C1         -4.3370   -1.3360   -6.7860 c1        1 CDD     -0.124833
      2 N2         -3.4570   -1.7060   -5.8140 n2        1 CDD      0.371000
      3 C3         -3.7700   -1.5140   -4.5020 c1        1 CDD     -0.220000
      4 C4         -4.9840   -0.9420   -4.1550 c1        1 CDD     -0.124833
      5 C5         -5.8650   -0.5710   -5.1270 c1        1 CDD     -0.124833
      6 C6         -5.5510   -0.7640   -6.4410 c1        1 CDD     -0.124833
      7 C11        -2.7860   -1.9140   -3.4250 c3        1 CDD      0.298000
      8 C12        -1.6320   -0.9340   -3.4060 c3        1 CDD     -0.073000
      9 F13        -2.3230   -3.1440   -3.6770 f         1 CDD     -0.154500
     10 F14        -3.4000   -1.9030   -2.2350 f         1 CDD     -0.154500
     11 N15        -1.0990   -0.8550   -2.0890 n3        1 CDD     -0.259000
     12 C18        -0.2190    0.2020   -1.7430 c2        1 CDD      0.061000
     13 C19         0.6280    0.0700   -0.6550 c2        1 CDD      0.298000
     14 N20         1.4780    1.0580   -0.3430 n2        1 CDD     -0.209000
     15 C21         1.5070    2.1760   -1.0830 c1        1 CDD     -0.018000
     16 C22         0.6590    2.3080   -2.1710 c1        1 CDD     -0.122000
     17 N23        -0.1900    1.3200   -2.4830 n1        1 CDD     -0.153000
     18 C24         2.4220    0.8770    0.7040 c3        1 CDD     -0.062000
     19 C25         1.9180    1.5510    1.9610 c2        1 CDD      0.281000
     20 N28         2.6460    1.4270    3.1720 n         1 CDD     -0.363000
     21 C29         1.9680    1.5030    4.4210 c3        1 CDD      0.008000
     22 C30         2.6810    0.6350    5.4350 c2        1 CDD     -0.145000
     23 C33         2.6050   -0.7460    5.3410 c2        1 CDD     -0.086000
     24 C34         3.2490   -1.5410    6.2760 c1        1 CDD     -0.141000
     25 C35         3.9690   -0.9550    7.3050 c1        1 CDD     -0.124833
     26 C2          4.0450    0.4260    7.3990 c1        1 CDD     -0.124833
     27 C37         3.4010    1.2210    6.4640 c1        1 CDD      0.088000
     28 O42         0.6020   -0.9410    0.0140 o         1 CDD     -0.348000
     29 CL43        2.6410    3.4430   -0.7040 cl        1 CDD      0.029000
     30 O44         0.9230    2.2450    1.9200 o         1 CDD     -0.343000
     31 F1          3.6430    2.4250    6.9980 f         1 CDD     -0.115000
     32 O1         -2.2760   -2.3020   -6.1540 o         1 CDD     -0.428000
     33 H1         -4.1120   -1.4740   -7.7250 ha        1 CDD      0.161167
     34 H4         -5.2070   -0.8050   -3.2150 ha        1 CDD      0.161167
     35 H5         -6.7210   -0.1680   -4.8840 ha        1 CDD      0.161167
     36 H6         -6.1820   -0.4990   -7.1380 ha        1 CDD      0.161167
     37 H121       -0.9350   -1.2390   -4.0240 h1        1 CDD      0.145500
     38 H122       -1.9500   -0.0490   -3.6840 h1        1 CDD      0.145500
     39 H15        -1.3190   -1.4860   -1.4690 hn        1 CDD      0.243000
     40 H22         0.6800    3.1210   -2.7090 ha        1 CDD      0.186000
     41 H241        3.2790    1.2730    0.4430 h1        1 CDD      0.139500
     42 H242        2.5430   -0.0800    0.8730 h1        1 CDD      0.139500
     43 H28         3.5500    1.3150    3.1510 hn        1 CDD      0.224000
     44 H291        1.0470    1.1880    4.3120 h1        1 CDD      0.116500
     45 H292        1.9620    2.4310    4.7330 h1        1 CDD      0.116500
     46 H33         2.0980   -1.1590    4.6170 ha        1 CDD      0.148000
     47 H34         3.1950   -2.5140    6.2100 ha        1 CDD      0.141000
     48 H35         4.4230   -1.5150    7.9640 ha        1 CDD      0.161167
     49 H2          4.5520    0.8380    8.1240 ha        1 CDD      0.161167
@<TRIPOS>BOND
     1    1    6 1   
     2    1   33 1   
     3    2    3 1   
     4    2   32 1   
     5    3    7 1   
     6    4    5 1   
     7    4   34 1   
     8    5   35 1   
     9    6   36 1   
    10    7    8 1   
    11    7    9 1   
    12    7   10 1   
    13    8   11 1   
    14    8   37 1   
    15    8   38 1   
    16   11   12 1   
    17   11   39 1   
    18   12   13 1   
    19   12   17 1   
    20   13   14 1   
    21   13   28 1   
    22   14   18 1   
    23   15   16 1   
    24   15   29 1   
    25   16   40 1   
    26   18   19 1   
    27   18   41 1   
    28   18   42 1   
    29   19   20 1   
    30   19   30 1   
    31   20   21 1   
    32   20   43 1   
    33   21   22 1   
    34   21   44 1   
    35   21   45 1   
    36   22   23 1   
    37   22   27 1   
    38   23   24 1   
    39   23   46 1   
    40   24   47 1   
    41   25   26 1   
    42   25   48 1   
    43   26   49 1   
    44   27   31 1   
@<TRIPOS>SUBSTRUCTURE
     1 CDD         1 TEMP              0 ****  ****    0 ROOT
