@<TRIPOS>MOLECULE
CDD
   50    52     1     0     0
SMALL
bcc


@<TRIPOS>ATOM
      1 C1          2.5890    1.7010   -0.1840 ca        1 CDD     -0.203300
      2 N2          3.7400    0.9280   -0.0380 na        1 CDD      0.268600
      3 C3          4.0320    0.4490    1.2420 ca        1 CDD     -0.265600
      4 C4          3.1960    0.7310    2.3330 ca        1 CDD     -0.050000
      5 C5          2.0480    1.4970    2.1650 ca        1 CDD     -0.159000
      6 C6          1.7520    1.9880    0.8910 ca        1 CDD     -0.062000
      7 C11         5.3140   -0.3670    1.4360 c3        1 CDD      0.483900
      8 C12         5.1480   -1.7350    0.6780 c3        1 CDD      0.164800
      9 F13         6.4400    0.3160    1.0220 f         1 CDD     -0.223800
     10 F14         5.5980   -0.5680    2.7730 f         1 CDD     -0.223800
     11 N15         6.3420   -2.5400    0.7450 nu        1 CDD     -0.787200
     12 C18         6.5030   -3.6420   -0.0620 cc        1 CDD      0.630200
     13 C19         7.9050   -4.2290   -0.0800 c         1 CDD      0.554200
     14 N20         8.0870   -5.4420   -0.7580 n         1 CDD     -0.348000
     15 C21         6.9900   -6.0050   -1.4480 cc        1 CDD     -0.030000
     16 C22         5.7650   -5.3690   -1.4240 cd        1 CDD      0.101600
     17 N23         5.5020   -4.2100   -0.7390 nd        1 CDD     -0.593300
     18 C24         9.3070   -6.1700   -0.5570 c3        1 CDD      0.016000
     19 C25        10.4700   -5.7710   -1.4660 c         1 CDD      0.522100
     20 N28        10.6890   -4.3000   -1.6670 ny        1 CDD     -0.681800
     21 C29        12.0090   -3.9680   -2.2950 c3        1 CDD      0.179100
     22 C30        12.1710   -2.5010   -2.4870 ca        1 CDD     -0.212300
     23 C33        13.2290   -1.8200   -1.8770 ca        1 CDD     -0.067000
     24 C34        13.4260   -0.4620   -2.1210 ca        1 CDD     -0.127000
     25 C35        12.5660    0.2320   -2.9730 ca        1 CDD     -0.061000
     26 C2         11.4980   -0.4210   -3.5870 ca        1 CDD     -0.140000
     27 C37        11.2990   -1.7890   -3.3430 ca        1 CDD      0.129900
     28 O42         8.9030   -3.6680    0.4250 o         1 CDD     -0.676500
     29 Cl43        7.1980   -7.4410   -2.3270 cl        1 CDD     -0.022400
     30 O44        11.2560   -6.5490   -1.9820 o         1 CDD     -0.400100
     31 F1         10.2570   -2.4390   -3.9210 f         1 CDD     -0.149900
     32 O1          4.4520    0.6630   -0.9970 o         1 CDD     -0.287000
     33 H1          2.4020    2.0650   -1.2100 h4        1 CDD      0.199000
     34 H4          3.4740    0.3380    3.3260 ha        1 CDD      0.173000
     35 H5          1.3910    1.7170    3.0180 ha        1 CDD      0.165000
     36 H6          0.8580    2.6070    0.7140 ha        1 CDD      0.170000
     37 H121        4.3000   -2.2970    1.1620 h1        1 CDD      0.105200
     38 H122        4.8820   -1.5050   -0.3950 h1        1 CDD      0.105200
     39 H15         7.1730   -2.1080    1.0960 hn        1 CDD      0.466800
     40 H22         4.8970   -5.7790   -1.9780 h4        1 CDD      0.211000
     41 H241        9.6740   -6.0080    0.5060 h1        1 CDD      0.140200
     42 H242        9.1430   -7.2800   -0.7170 h1        1 CDD      0.140200
     43 H28        10.6040   -3.8240   -0.7500 hn        1 CDD      0.480300
     44 H291       12.0520   -4.5000   -3.2920 hx        1 CDD      0.116200
     45 H292       12.8210   -4.3880   -1.6330 hx        1 CDD      0.116200
     46 H33        13.9180   -2.3620   -1.2100 ha        1 CDD      0.151000
     47 H34        14.2670    0.0630   -1.6400 ha        1 CDD      0.165000
     48 H35        12.7280    1.3060   -3.1660 ha        1 CDD      0.167000
     49 H2         10.8130    0.1190   -4.2610 ha        1 CDD      0.175000
     50 H282        9.9370   -3.9350   -2.2710 hn        1 CDD      0.480300
@<TRIPOS>BOND
     1    1    2 1   
     2    1    6 ar  
     3    1   33 1   
     4    2    3 2   
     5    2   32 1   
     6    3    4 ar  
     7    3    7 1   
     8    4    5 ar  
     9    4   34 1   
    10    5    6 ar  
    11    5   35 1   
    12    6   36 1   
    13    7    8 1   
    14    7    9 1   
    15    7   10 1   
    16    8   11 1   
    17    8   37 1   
    18    8   38 1   
    19   11   12 1   
    20   11   39 1   
    21   12   13 1   
    22   12   17 2   
    23   13   14 1   
    24   13   28 2   
    25   14   15 1   
    26   14   18 1   
    27   15   16 2   
    28   15   29 1   
    29   16   17 1   
    30   16   40 1   
    31   18   19 1   
    32   18   41 1   
    33   18   42 1   
    34   19   20 1   
    35   19   30 2   
    36   20   21 1   
    37   20   43 1   
    38   20   50 1   
    39   21   22 1   
    40   21   44 1   
    41   21   45 1   
    42   22   23 ar  
    43   22   27 ar  
    44   23   24 ar  
    45   23   46 1   
    46   24   25 ar  
    47   24   47 1   
    48   25   26 ar  
    49   25   48 1   
    50   26   27 ar  
    51   26   49 1   
    52   27   31 1   
@<TRIPOS>SUBSTRUCTURE
     1 CDD         1 TEMP              0 ****  ****    0 ROOT
