@<TRIPOS>MOLECULE
CDD
   51    53     1     0     0
SMALL
bcc


@<TRIPOS>ATOM
      1 C1          3.4050    0.9360   -1.6780 ca        1 CDD     -0.176300
      2 N2          4.2730    0.2250   -0.8600 na        1 CDD      0.257600
      3 C3          4.0500    0.2770    0.5190 ca        1 CDD     -0.275600
      4 C4          2.9850    1.0170    1.0600 ca        1 CDD     -0.042000
      5 C5          2.1210    1.7140    0.2220 ca        1 CDD     -0.133000
      6 C6          2.3440    1.6770   -1.1570 ca        1 CDD     -0.047000
      7 C11         5.0520   -0.4170    1.4340 c3        1 CDD      0.497900
      8 C12         5.0610   -1.9610    1.1030 c3        1 CDD      0.036800
      9 F13         6.3260    0.1050    1.3310 f         1 CDD     -0.212800
     10 F14         4.7830   -0.2350    2.7750 f         1 CDD     -0.212800
     11 N15         6.1450   -2.6720    1.8490 n4        1 CDD     -0.683000
     12 C18         6.4130   -4.0040    1.2850 cc        1 CDD      0.337200
     13 C19         7.7550   -4.1960    0.6820 c         1 CDD      0.596200
     14 N20         8.0150   -5.4810    0.1430 n         1 CDD     -0.318000
     15 C21         7.0190   -6.4500    0.1760 cc        1 CDD      0.163000
     16 C22         5.7800   -6.1550    0.7720 cd        1 CDD     -0.007400
     17 N23         5.4790   -4.9520    1.3220 nd        1 CDD     -0.393300
     18 C24         9.3520   -5.7280   -0.3580 c3        1 CDD      0.002000
     19 C25         9.6190   -4.9980   -1.6810 c         1 CDD      0.511100
     20 N28        10.5230   -3.8130   -1.6080 n4        1 CDD     -0.676800
     21 C29        10.7070   -3.1110   -2.9330 c3        1 CDD      0.188100
     22 C30        11.7330   -2.0410   -2.8300 ca        1 CDD     -0.233300
     23 C33        12.8700   -2.0730   -3.6440 ca        1 CDD     -0.061000
     24 C34        13.7800   -1.0170   -3.6230 ca        1 CDD     -0.122000
     25 C35        13.5660    0.0800   -2.7870 ca        1 CDD     -0.048000
     26 C2         12.4470    0.1310   -1.9560 ca        1 CDD     -0.139000
     27 C37        11.5300   -0.9310   -1.9760 ca        1 CDD      0.127900
     28 O42         8.6350   -3.3150    0.6170 o         1 CDD     -0.643500
     29 CL43        7.2660   -7.9780   -0.4830 cl        1 CDD      0.086600
     30 O44         9.1560   -5.3320   -2.7590 o         1 CDD     -0.365100
     31 F1         10.4410   -0.9110   -1.1640 f         1 CDD     -0.152900
     32 O1          5.1860   -0.4570   -1.3240 o         1 CDD     -0.331000
     33 H1          3.6260    0.8750   -2.7610 h4        1 CDD      0.211000
     34 H4          2.8540    1.0430    2.1550 ha        1 CDD      0.181000
     35 H5          1.2830    2.2950    0.6400 ha        1 CDD      0.184000
     36 H6          1.6910    2.2290   -1.8550 ha        1 CDD      0.189000
     37 H121        4.0640   -2.4000    1.3890 hx        1 CDD      0.154700
     38 H122        5.2420   -2.0950   -0.0050 hx        1 CDD      0.154700
     39 H15         7.0180   -2.1130    1.7840 hn        1 CDD      0.486800
     40 H22         4.9710   -6.9170    0.8180 h4        1 CDD      0.249000
     41 H241       10.0910   -5.4070    0.4380 h1        1 CDD      0.140200
     42 H242        9.5050   -6.8330   -0.5620 h1        1 CDD      0.140200
     43 H28        11.4430   -4.1100   -1.2580 hn        1 CDD      0.482300
     44 H291        9.7040   -2.6750   -3.2150 hx        1 CDD      0.121200
     45 H292       10.9950   -3.8870   -3.7010 hx        1 CDD      0.121200
     46 H33        13.0410   -2.9270   -4.3210 ha        1 CDD      0.155000
     47 H34        14.6680   -1.0470   -4.2770 ha        1 CDD      0.175000
     48 H35        14.2860    0.9170   -2.7800 ha        1 CDD      0.177000
     49 H2         12.2710    0.9940   -1.2940 ha        1 CDD      0.179000
     50 H152        5.8810   -2.7590    2.8430 hn        1 CDD      0.486800
     51 H282       10.1290   -3.1330   -0.9260 hn        1 CDD      0.482300
@<TRIPOS>BOND
     1    1    2 1   
     2    1    6 ar  
     3    1   33 1   
     4    2    3 2   
     5    2   32 1   
     6    3    4 ar  
     7    3    7 1   
     8    4    5 ar  
     9    4   34 1   
    10    5    6 ar  
    11    5   35 1   
    12    6   36 1   
    13    7    8 1   
    14    7    9 1   
    15    7   10 1   
    16    8   11 1   
    17    8   37 1   
    18    8   38 1   
    19   11   12 1   
    20   11   39 1   
    21   11   50 1   
    22   12   13 1   
    23   12   17 2   
    24   13   14 1   
    25   13   28 2   
    26   14   15 1   
    27   14   18 1   
    28   15   16 2   
    29   15   29 1   
    30   16   17 1   
    31   16   40 1   
    32   18   19 1   
    33   18   41 1   
    34   18   42 1   
    35   19   20 1   
    36   19   30 2   
    37   20   21 1   
    38   20   43 1   
    39   20   51 1   
    40   21   22 1   
    41   21   44 1   
    42   21   45 1   
    43   22   23 ar  
    44   22   27 ar  
    45   23   24 ar  
    46   23   46 1   
    47   24   25 ar  
    48   24   47 1   
    49   25   26 ar  
    50   25   48 1   
    51   26   27 ar  
    52   26   49 1   
    53   27   31 1   
@<TRIPOS>SUBSTRUCTURE
     1 CDD         1 TEMP              0 ****  ****    0 ROOT
