@<TRIPOS>MOLECULE
CDE
   19    18     1     0     0
SMALL
bcc


@<TRIPOS>ATOM
      1 N          -1.1690   -0.9310   -0.8730 n3        1 CDE     -0.897800
      2 CA         -0.4110    0.2880   -0.6660 c3        1 CDE      0.163500
      3 CB          0.3980    0.3520    0.6530 c3        1 CDE     -0.108700
      4 CG1        -0.5230    0.5720    1.8330 c3        1 CDE     -0.091600
      5 CG2         1.2460   -0.8810    0.8700 c3        1 CDE     -0.091600
      6 C           0.5160    0.5920   -1.8430 c3        1 CDE     -0.091100
      7 H          -1.7100   -1.1400   -0.0560 hn        1 CDE      0.344300
      8 H2         -0.5530   -1.7000   -1.0540 hn        1 CDE      0.344300
      9 HA         -1.1780    1.1230   -0.6180 h1        1 CDE      0.056700
     10 HB          1.0840    1.2430    0.5740 hc        1 CDE      0.053700
     11 HG11        0.0740    0.6750    2.7720 hc        1 CDE      0.034033
     12 HG12       -1.1250    1.5020    1.6930 hc        1 CDE      0.034033
     13 HG13       -1.2260   -0.2860    1.9610 hc        1 CDE      0.034033
     14 HG21        0.6110   -1.7710    1.1020 hc        1 CDE      0.034033
     15 HG22        1.8550   -1.1070   -0.0380 hc        1 CDE      0.034033
     16 HG23        1.9400   -0.7210    1.7300 hc        1 CDE      0.034033
     17 HC1        -0.0600    0.6060   -2.8000 hc        1 CDE      0.038700
     18 HC2         0.9850    1.5930   -1.6950 hc        1 CDE      0.038700
     19 HC3         1.3250   -0.1720   -1.9280 hc        1 CDE      0.038700
@<TRIPOS>BOND
     1    1    2 1   
     2    1    7 1   
     3    1    8 1   
     4    2    3 1   
     5    2    6 1   
     6    2    9 1   
     7    3    4 1   
     8    3    5 1   
     9    3   10 1   
    10    4   11 1   
    11    4   12 1   
    12    4   13 1   
    13    5   14 1   
    14    5   15 1   
    15    5   16 1   
    16    6   17 1   
    17    6   18 1   
    18    6   19 1   
@<TRIPOS>SUBSTRUCTURE
     1 CDE         1 TEMP              0 ****  ****    0 ROOT
