@<TRIPOS>MOLECULE
CDE
   19    18     1     0     0
SMALL
bcc


@<TRIPOS>ATOM
      1 N          -1.6490   -0.1170   -0.7820 n3        1 CDE     -0.902800
      2 CA         -0.2290   -0.0380   -0.7570 c3        1 CDE      0.163500
      3 CB          0.2500   -0.0310    0.6760 c3        1 CDE     -0.060700
      4 CG1         1.5580    0.7240    0.7670 c3        1 CDE     -0.087600
      5 CG2        -0.7830    0.6440    1.5500 c3        1 CDE     -0.087600
      6 C           0.3540   -1.2320   -1.4770 c3        1 CDE     -0.133100
      7 H          -1.9850    0.5730   -1.2820 hn        1 CDE      0.344300
      8 H2         -1.9040   -0.9150   -1.1520 hn        1 CDE      0.344300
      9 HA          0.0600    0.7830   -1.2010 h1        1 CDE      0.058700
     10 HB          0.3830   -0.9490    0.9800 hc        1 CDE      0.041700
     11 HG11        1.8600    0.7440    1.6990 hc        1 CDE      0.035200
     12 HG12        2.2330    0.2760    0.2140 hc        1 CDE      0.035200
     13 HG13        1.4290    1.6400    0.4450 hc        1 CDE      0.035200
     14 HG21       -0.3900    0.8470    2.4250 hc        1 CDE      0.035200
     15 HG22       -1.0780    1.4770    1.1240 hc        1 CDE      0.035200
     16 HG23       -1.5520    0.0480    1.6680 hc        1 CDE      0.035200
     17 HC1         1.3250   -1.1240   -1.5560 hc        1 CDE      0.036033
     18 HC2        -0.0400   -1.2990   -2.3720 hc        1 CDE      0.036033
     19 HC3         0.1560   -2.0480   -0.9710 hc        1 CDE      0.036033
@<TRIPOS>BOND
     1    1    2 1   
     2    1    7 1   
     3    1    8 1   
     4    2    3 1   
     5    2    6 1   
     6    2    9 1   
     7    3    4 1   
     8    3    5 1   
     9    3   10 1   
    10    4   11 1   
    11    4   12 1   
    12    4   13 1   
    13    5   14 1   
    14    5   15 1   
    15    5   16 1   
    16    6   17 1   
    17    6   18 1   
    18    6   19 1   
@<TRIPOS>SUBSTRUCTURE
     1 CDE         1 TEMP              0 ****  ****    0 ROOT
