@<TRIPOS>MOLECULE
CDF
   38    39     1     0     0
SMALL
bcc


@<TRIPOS>ATOM
      1 O3B         0.0000    0.0000    0.0000 o         1 CDF     -0.438500
      2 PB          1.4800    0.0000    0.0000 p5        1 CDF      0.885900
      3 O1B         2.0160    0.0000    1.5170 o         1 CDF     -0.438500
      4 O2B         2.0160   -1.3150   -0.7590 o         1 CDF     -0.438500
      5 O3A         2.0160    1.3140   -0.7600 os        1 CDF     -0.486800
      6 PA          1.6170    2.8730   -0.7150 p5        1 CDF      0.969800
      7 O1A         0.2310    3.0960   -1.5020 o         1 CDF     -0.676000
      8 O2A         1.4600    3.3020    0.6930 o         1 CDF     -0.676000
      9 O5'         2.7770    3.7450   -1.4140 os        1 CDF     -0.497200
     10 C5'         2.7670    5.1730   -1.4420 c3        1 CDF      0.301400
     11 C4'         4.0090    5.6780   -2.1800 c3        1 CDF      0.148100
     12 O4'         3.9360    5.3050   -3.5620 os        1 CDF     -0.383600
     13 C3'         4.0670    7.2180   -2.1150 c3        1 CDF      0.111100
     14 O3'         4.9930    7.6500   -1.1160 oh        1 CDF     -0.588800
     15 C2'         4.5740    7.5900   -3.5350 c3        1 CDF      0.118100
     16 O2'         4.1130    8.8860   -3.9240 oh        1 CDF     -0.533800
     17 C1'         3.9030    6.4810   -4.3860 c3        1 CDF      0.237500
     18 N1          4.6610    6.2590   -5.6190 n         1 CDF      0.014000
     19 C2          4.7800    7.2510   -6.5200 c         1 CDF      0.731900
     20 O2          4.2520    8.3290   -6.2980 o         1 CDF     -0.775500
     21 N3          5.4630    7.0780   -7.6500 nc        1 CDF     -0.778100
     22 C4          6.0460    5.9150   -7.9160 cd        1 CDF     -0.095500
     23 N4          6.7500    5.7470   -9.0870 nz        1 CDF      0.327400
     24 C6          5.2460    5.0500   -5.8470 cc        1 CDF     -0.166400
     25 C5          5.9390    4.8550   -6.9940 cd        1 CDF     -0.269600
     26 H5'1        2.7700    5.5540   -0.4280 h1        1 CDF     -0.016800
     27 H5'2        1.8770    5.5180   -1.9540 h1        1 CDF     -0.016800
     28 H4'         4.9030    5.2580   -1.7350 h1        1 CDF      0.034700
     29 H3'         3.0810    7.6320   -1.9410 h1        1 CDF      0.028700
     30 H1'         2.8790    6.7520   -4.6110 h2        1 CDF      0.046700
     31 HA          4.5920    8.3160   -0.5830 ho        1 CDF      0.378000
     32 H2'         5.6530    7.5190   -3.5910 h1        1 CDF      0.023700
     33 HB          4.7210    9.5390   -3.6190 ho        1 CDF      0.364000
     34 H41N        6.7220    6.5950   -9.6180 hn        1 CDF      0.110467
     35 H42N        6.3390    5.0060   -9.6190 hn        1 CDF      0.110467
     36 H6          5.1500    4.2500   -5.1230 h4        1 CDF      0.144000
     37 H5          6.4110    3.9010   -7.1960 ha        1 CDF      0.078000
     38 H43         7.7010    5.5180   -8.8740 hn        1 CDF      0.110467
@<TRIPOS>BOND
     1    1    2 1   
     2    2    3 1   
     3    2    4 1   
     4    2    5 1   
     5    5    6 1   
     6    6    7 1   
     7    6    8 1   
     8    6    9 1   
     9    9   10 1   
    10   10   11 1   
    11   10   26 1   
    12   10   27 1   
    13   11   12 1   
    14   11   13 1   
    15   11   28 1   
    16   12   17 1   
    17   13   14 1   
    18   13   15 1   
    19   13   29 1   
    20   14   31 1   
    21   15   16 1   
    22   15   17 1   
    23   15   32 1   
    24   16   33 1   
    25   17   18 1   
    26   17   30 1   
    27   18   19 1   
    28   18   24 1   
    29   19   20 2   
    30   19   21 1   
    31   21   22 2   
    32   22   23 1   
    33   22   25 1   
    34   23   34 1   
    35   23   35 1   
    36   23   38 1   
    37   24   25 2   
    38   24   36 1   
    39   25   37 1   
@<TRIPOS>SUBSTRUCTURE
     1 CDF         1 TEMP              0 ****  ****    0 ROOT
