@<TRIPOS>MOLECULE
CDG
   33    34     1     0     0
SMALL
bcc


@<TRIPOS>ATOM
      1 C1         -0.0870   -0.1230    0.0040 c3        1 CDG      0.343900
      2 C2          1.4440   -0.0030   -0.0540 c3        1 CDG      0.098100
      3 C3          1.9980   -0.0320    1.3800 c3        1 CDG      0.121100
      4 C4          1.3320    1.0420    2.2420 c3        1 CDG      0.088100
      5 C5         -0.1970    1.0160    2.1120 c3        1 CDG      0.093100
      6 C6         -0.7700    2.3300    2.6700 c3        1 CDG      0.139400
      7 C7          1.3630    3.3820    2.6210 c3        1 CDG      0.203600
      8 C8          1.6310    3.1810    4.1500 c         1 CDG      0.892600
      9 C9          2.0330    4.6480    2.1100 c3        1 CDG     -0.067100
     10 O1         -0.5920    0.1320   -1.2930 os        1 CDG     -0.402600
     11 O2          1.9320   -1.1110   -0.7950 oh        1 CDG     -0.604800
     12 O3          3.4060    0.0960    1.3270 oh        1 CDG     -0.619800
     13 O4          1.8570    2.2970    1.8180 os        1 CDG     -0.442600
     14 O5         -0.6740    0.9170    0.7700 os        1 CDG     -0.437600
     15 O6         -0.0130    3.4540    2.2530 os        1 CDG     -0.419600
     16 O8A         2.7520    2.7050    4.4710 o         1 CDG     -0.813800
     17 O8B         0.7200    3.5030    4.9560 o         1 CDG     -0.813800
     18 C10        -1.9990   -0.0110   -1.3970 c3        1 CDG      0.125700
     19 H1         -0.4120   -1.1310    0.3850 h2        1 CDG      0.031700
     20 H2          1.7320    0.9580   -0.5630 h1        1 CDG      0.081700
     21 H3          1.8100   -1.0480    1.8310 h1        1 CDG      0.061700
     22 H4          1.6110    0.8800    3.3260 h1        1 CDG      0.100700
     23 H5         -0.6020    0.1370    2.6880 h1        1 CDG      0.028700
     24 H6C1       -0.7880    2.2730    3.7920 h1        1 CDG      0.069700
     25 H6C2       -1.7940    2.5160    2.2540 h1        1 CDG      0.069700
     26 H9C1        3.1150    4.6030    2.3760 hc        1 CDG      0.042700
     27 H9C2        1.5560    5.5250    2.6050 hc        1 CDG      0.042700
     28 H9C3        1.9190    4.7360    1.0050 hc        1 CDG      0.042700
     29 HA          2.8880   -1.1200   -0.6500 ho        1 CDG      0.413000
     30 HB          3.6250    1.0280    1.4740 ho        1 CDG      0.442000
     31 H101       -2.2150    0.1870   -2.4760 h1        1 CDG      0.029367
     32 H102       -2.3090   -1.0500   -1.1190 h1        1 CDG      0.029367
     33 H103       -2.5220    0.7310   -0.7470 h1        1 CDG      0.029367
@<TRIPOS>BOND
     1    1    2 1   
     2    1   10 1   
     3    1   14 1   
     4    1   19 1   
     5    2    3 1   
     6    2   11 1   
     7    2   20 1   
     8    3    4 1   
     9    3   12 1   
    10    3   21 1   
    11    4    5 1   
    12    4   13 1   
    13    4   22 1   
    14    5    6 1   
    15    5   14 1   
    16    5   23 1   
    17    6   15 1   
    18    6   24 1   
    19    6   25 1   
    20    7    8 1   
    21    7    9 1   
    22    7   13 1   
    23    7   15 1   
    24    8   16 1   
    25    8   17 1   
    26    9   26 1   
    27    9   27 1   
    28    9   28 1   
    29   10   18 1   
    30   11   29 1   
    31   12   30 1   
    32   18   31 1   
    33   18   32 1   
    34   18   33 1   
@<TRIPOS>SUBSTRUCTURE
     1 CDG         1 TEMP              0 ****  ****    0 ROOT
