@<TRIPOS>MOLECULE
CDG
   33    34     1     0     0
SMALL
bcc


@<TRIPOS>ATOM
      1 C1         -0.8790   -1.3540   -1.3620 c3        1 CDG      0.343900
      2 C2          0.6200   -1.3540   -1.3620 c3        1 CDG      0.098100
      3 C3          1.1910   -1.3540    0.0190 c3        1 CDG      0.121100
      4 C4          0.6070   -0.2490    0.8890 c3        1 CDG      0.088100
      5 C5         -0.8860   -0.2620    0.8850 c3        1 CDG      0.093100
      6 C6         -1.4580    0.8830    1.5890 c3        1 CDG      0.139400
      7 C7          0.6100    2.1940    1.1530 c3        1 CDG      0.203600
      8 C8          1.1240    2.2720    2.4960 c         1 CDG      0.892600
      9 C9          1.1190    3.4920    0.5670 c3        1 CDG     -0.067100
     10 O1         -1.3270   -1.1860   -2.6650 os        1 CDG     -0.402600
     11 O2          1.0850   -2.5300   -2.0590 oh        1 CDG     -0.604800
     12 O3          2.6080   -1.1740   -0.0670 oh        1 CDG     -0.619800
     13 O4          1.1530    1.0230    0.4300 os        1 CDG     -0.442600
     14 O5         -1.4510   -0.2740   -0.5140 os        1 CDG     -0.437600
     15 O6         -0.9290    2.1340    1.1380 os        1 CDG     -0.419600
     16 O8A         2.2730    1.8290    2.7570 o         1 CDG     -0.813800
     17 O8B         0.4240    2.7830    3.4090 o         1 CDG     -0.813800
     18 C10        -2.4660   -1.9550   -2.9810 c3        1 CDG      0.125700
     19 H1         -1.1930   -2.2160   -1.0300 h2        1 CDG      0.031700
     20 H2          0.9360   -0.5600   -1.8350 h1        1 CDG      0.081700
     21 H3          1.0070   -2.2160    0.4380 h1        1 CDG      0.061700
     22 H4          0.9080   -0.3940    1.8060 h1        1 CDG      0.100700
     23 H5         -1.1810   -1.0740    1.3380 h1        1 CDG      0.028700
     24 H6C1       -2.4250    0.8840    1.4540 h1        1 CDG      0.069700
     25 H6C2       -1.2730    0.7890    2.5430 h1        1 CDG      0.069700
     26 H9C1        2.0920    3.5230    0.6420 hc        1 CDG      0.042700
     27 H9C2        0.7310    4.2430    1.0540 hc        1 CDG      0.042700
     28 H9C3        0.8630    3.5460   -0.3740 hc        1 CDG      0.042700
     29 HA          1.2840   -3.1640   -1.4700 ho        1 CDG      0.413000
     30 HB          3.0170   -1.8810    0.2800 ho        1 CDG      0.442000
     31 H101       -3.1530   -1.8140   -2.3020 h1        1 CDG      0.029367
     32 H102       -2.2230   -2.9000   -3.0070 h1        1 CDG      0.029367
     33 H103       -2.8100   -1.6840   -3.8530 h1        1 CDG      0.029367
@<TRIPOS>BOND
     1    1    2 1   
     2    1   10 1   
     3    1   14 1   
     4    1   19 1   
     5    2    3 1   
     6    2   11 1   
     7    2   20 1   
     8    3    4 1   
     9    3   12 1   
    10    3   21 1   
    11    4    5 1   
    12    4   13 1   
    13    4   22 1   
    14    5    6 1   
    15    5   14 1   
    16    5   23 1   
    17    6   15 1   
    18    6   24 1   
    19    6   25 1   
    20    7    8 1   
    21    7    9 1   
    22    7   13 1   
    23    7   15 1   
    24    8   16 1   
    25    8   17 1   
    26    9   26 1   
    27    9   27 1   
    28    9   28 1   
    29   10   18 1   
    30   11   29 1   
    31   12   30 1   
    32   18   31 1   
    33   18   32 1   
    34   18   33 1   
@<TRIPOS>SUBSTRUCTURE
     1 CDG         1 TEMP              0 ****  ****    0 ROOT
