@<TRIPOS>MOLECULE
CDG
   33    34     1     0     0
SMALL
bcc


@<TRIPOS>ATOM
      1 C1         -0.0860   -0.1320    0.0100 c3        1 CDG      0.343900
      2 C2          1.4450   -0.0100   -0.0490 c3        1 CDG      0.098100
      3 C3          1.9990   -0.0320    1.3860 c3        1 CDG      0.121100
      4 C4          1.3320    1.0460    2.2430 c3        1 CDG      0.088100
      5 C5         -0.1970    1.0180    2.1120 c3        1 CDG      0.093100
      6 C6         -0.7710    2.3340    2.6630 c3        1 CDG      0.139400
      7 C7          1.3600    3.3880    2.6100 c3        1 CDG      0.203600
      8 C8          1.6280    3.1950    4.1400 c         1 CDG      0.892600
      9 C9          2.0300    4.6520    2.0930 c3        1 CDG     -0.067100
     10 O1         -0.5900    0.1170   -1.2890 os        1 CDG     -0.402600
     11 O2          1.9340   -1.1210   -0.7830 oh        1 CDG     -0.604800
     12 O3          3.4070    0.0970    1.3330 oh        1 CDG     -0.619800
     13 O4          1.8560    2.3000    1.8130 os        1 CDG     -0.442600
     14 O5         -0.6730    0.9120    0.7700 os        1 CDG     -0.437600
     15 O6         -0.0150    3.4570    2.2410 os        1 CDG     -0.419600
     16 O8A         2.7480    2.7190    4.4640 o         1 CDG     -0.813800
     17 O8B         0.7170    3.5230    4.9440 o         1 CDG     -0.813800
     18 C10        -1.9980   -0.0280   -1.3920 c3        1 CDG      0.125700
     19 H1         -0.4100   -1.1380    0.3960 h2        1 CDG      0.031700
     20 H2          1.7320    0.9480   -0.5620 h1        1 CDG      0.081700
     21 H3          1.8120   -1.0450    1.8430 h1        1 CDG      0.061700
     22 H4          1.6110    0.8900    3.3270 h1        1 CDG      0.100700
     23 H5         -0.6020    0.1420    2.6920 h1        1 CDG      0.028700
     24 H6C1       -1.7960    2.5180    2.2460 h1        1 CDG      0.069700
     25 H6C2       -0.7890    2.2840    3.7850 h1        1 CDG      0.069700
     26 H9C1        3.1120    4.6090    2.3590 hc        1 CDG      0.042700
     27 H9C2        1.5520    5.5310    2.5850 hc        1 CDG      0.042700
     28 H9C3        1.9160    4.7340    0.9870 hc        1 CDG      0.042700
     29 HA          2.8900   -1.1290   -0.6390 ho        1 CDG      0.413000
     30 HB          3.6250    1.0300    1.4760 ho        1 CDG      0.442000
     31 H101       -2.5210    0.7170   -0.7460 h1        1 CDG      0.029367
     32 H102       -2.3060   -1.0650   -1.1100 h1        1 CDG      0.029367
     33 H103       -2.2130    0.1650   -2.4730 h1        1 CDG      0.029367
@<TRIPOS>BOND
     1    1    2 1   
     2    1   10 1   
     3    1   14 1   
     4    1   19 1   
     5    2    3 1   
     6    2   11 1   
     7    2   20 1   
     8    3    4 1   
     9    3   12 1   
    10    3   21 1   
    11    4    5 1   
    12    4   13 1   
    13    4   22 1   
    14    5    6 1   
    15    5   14 1   
    16    5   23 1   
    17    6   15 1   
    18    6   24 1   
    19    6   25 1   
    20    7    8 1   
    21    7    9 1   
    22    7   13 1   
    23    7   15 1   
    24    8   16 1   
    25    8   17 1   
    26    9   26 1   
    27    9   27 1   
    28    9   28 1   
    29   10   18 1   
    30   11   29 1   
    31   12   30 1   
    32   18   31 1   
    33   18   32 1   
    34   18   33 1   
@<TRIPOS>SUBSTRUCTURE
     1 CDG         1 TEMP              0 ****  ****    0 ROOT
