@<TRIPOS>MOLECULE
CDG
   33    34     1     0     0
SMALL
bcc


@<TRIPOS>ATOM
      1 C1          0.3130   -0.3830    2.3880 c3        1 CDG      0.312900
      2 C2         -0.9940    0.3170    1.9770 c3        1 CDG      0.078100
      3 C3         -1.6520   -0.5230    0.8740 c3        1 CDG      0.157100
      4 C4         -0.6860   -0.6380   -0.3140 c3        1 CDG      0.119100
      5 C5          0.6780   -1.1690    0.1600 c3        1 CDG      0.093100
      6 C6          1.7040   -0.9580   -0.9620 c3        1 CDG      0.142400
      7 C7          0.3210    0.6710   -2.0410 c3        1 CDG      0.209600
      8 C8         -0.1300   -0.2490   -3.2250 c         1 CDG      0.907600
      9 C9          0.4010    2.1340   -2.4690 c3        1 CDG     -0.059100
     10 O1          0.9730    0.4810    3.2990 os        1 CDG     -0.436600
     11 O2         -1.8930    0.3730    3.0740 oh        1 CDG     -0.618800
     12 O3         -2.8690    0.0430    0.4330 oh        1 CDG     -0.569800
     13 O4         -0.5460    0.6490   -0.9000 os        1 CDG     -0.425600
     14 O5          1.2180   -0.5050    1.3120 os        1 CDG     -0.437600
     15 O6          1.6110    0.3400   -1.5200 os        1 CDG     -0.437600
     16 O8A        -0.2190   -1.4940   -3.0220 o         1 CDG     -0.823800
     17 O8B        -0.3660    0.3120   -4.3250 o         1 CDG     -0.823800
     18 C10         2.2650    0.0400    3.6870 c3        1 CDG      0.131700
     19 H1          0.1190   -1.3860    2.8630 h2        1 CDG      0.027700
     20 H2         -0.7740    1.3510    1.5920 h1        1 CDG      0.096700
     21 H3         -1.8580   -1.5590    1.2720 h1        1 CDG      0.029700
     22 H4         -1.1070   -1.3530   -1.0820 h1        1 CDG      0.124700
     23 H5          0.5870   -2.2620    0.4110 h1        1 CDG      0.030700
     24 H6C1        2.7480   -1.0100   -0.5540 h1        1 CDG      0.068200
     25 H6C2        1.5290   -1.7370   -1.7530 h1        1 CDG      0.068200
     26 H9C1        1.1220    2.2110   -3.3150 hc        1 CDG      0.041700
     27 H9C2       -0.6100    2.4510   -2.8170 hc        1 CDG      0.041700
     28 H9C3        0.7330    2.7750   -1.6210 hc        1 CDG      0.041700
     29 HA         -1.4560    0.9040    3.7500 ho        1 CDG      0.412000
     30 HB         -3.3360    0.3360    1.2260 ho        1 CDG      0.401000
     31 H101        2.5900    0.7860    4.4540 h1        1 CDG      0.032700
     32 H102        2.2110   -0.9850    4.1310 h1        1 CDG      0.032700
     33 H103        2.9600    0.0430    2.8120 h1        1 CDG      0.032700
@<TRIPOS>BOND
     1    1    2 1   
     2    1   10 1   
     3    1   14 1   
     4    1   19 1   
     5    2    3 1   
     6    2   11 1   
     7    2   20 1   
     8    3    4 1   
     9    3   12 1   
    10    3   21 1   
    11    4    5 1   
    12    4   13 1   
    13    4   22 1   
    14    5    6 1   
    15    5   14 1   
    16    5   23 1   
    17    6   15 1   
    18    6   24 1   
    19    6   25 1   
    20    7    8 1   
    21    7    9 1   
    22    7   13 1   
    23    7   15 1   
    24    8   16 1   
    25    8   17 1   
    26    9   26 1   
    27    9   27 1   
    28    9   28 1   
    29   10   18 1   
    30   11   29 1   
    31   12   30 1   
    32   18   31 1   
    33   18   32 1   
    34   18   33 1   
@<TRIPOS>SUBSTRUCTURE
     1 CDG         1 TEMP              0 ****  ****    0 ROOT
