@<TRIPOS>MOLECULE
CDH
   48    47     1     0     0
SMALL
bcc


@<TRIPOS>ATOM
      1 O43         0.8950    1.2430    1.0110 o         1 CDH     -0.451000
      2 C31         1.8990    0.6410    0.6450 c         1 CDH      0.614100
      3 O42         2.2000    0.7990   -0.6760 oh        1 CDH     -0.566100
      4 C30         2.7780   -0.2130    1.5670 c3        1 CDH      0.045900
      5 C32         2.5200   -1.6800    1.3120 c2        1 CDH     -0.180400
      6 C37         2.1070   -2.4670    2.3110 c2        1 CDH     -0.142000
      7 C33         2.7050   -2.1790   -0.0700 c3        1 CDH     -0.073900
      8 N29         4.1810    0.1400    1.4520 ns        1 CDH     -0.538900
      9 C13         4.8120    0.8850    2.4130 c         1 CDH      0.655100
     10 O18         4.2210    1.3810    3.3940 o         1 CDH     -0.589100
     11 C12         6.3210    1.1690    2.2000 c3        1 CDH      0.065500
     12 C16         7.1660   -0.0990    2.3480 c3        1 CDH     -0.038300
     13 S           7.5430   -0.4900    4.0300 sh        1 CDH     -0.344900
     14 N30         6.7790    2.2410    3.1470 ny        1 CDH     -0.670800
     15 C25         7.0420    3.5770    2.5100 c         1 CDH      0.569100
     16 O25         6.5800    3.8000    1.4000 o         1 CDH     -0.437100
     17 C24         7.8300    4.5470    3.3570 c3        1 CDH     -0.157400
     18 C23         8.8320    5.3350    2.5250 c3        1 CDH     -0.081400
     19 C22        10.2760    4.9550    2.7910 c3        1 CDH     -0.099400
     20 C21        10.7660    3.7040    2.0650 c3        1 CDH     -0.011500
     21 N31        10.9490    3.9150    0.5910 nz        1 CDH     -0.835600
     22 C20         9.7520    2.5460    2.3080 c         1 CDH      0.902600
     23 O20         9.0120    2.2000    1.3400 o         1 CDH     -0.806300
     24 O21         9.6660    2.0730    3.4670 o         1 CDH     -0.806300
     25 H30         2.4390    0.0450    2.6250 h1        1 CDH      0.133700
     26 H371        1.9510   -2.1000    3.3360 ha        1 CDH      0.134500
     27 H372        1.8850   -3.5330    2.1580 ha        1 CDH      0.134500
     28 H331        3.7100   -1.9000   -0.4740 hc        1 CDH      0.051700
     29 H332        2.6190   -3.2940   -0.1070 hc        1 CDH      0.051700
     30 H333        1.9190   -1.7520   -0.7450 hc        1 CDH      0.051700
     31 H29         2.9410    0.2320   -0.9240 ho        1 CDH      0.422000
     32 H121        6.4750    1.5640    1.1450 hx        1 CDH      0.148700
     33 H161        6.6140   -0.9680    1.9130 h1        1 CDH      0.116200
     34 H162        8.1110    0.0460    1.7570 h1        1 CDH      0.116200
     35 HS          8.8550   -0.2340    4.0300 hs        1 CDH      0.255800
     36 H30N        7.6640    1.9050    3.6060 hn        1 CDH      0.496300
     37 H241        7.0770    5.2520    3.8100 hc        1 CDH      0.111200
     38 H242        8.3600    4.0220    4.2000 hc        1 CDH      0.111200
     39 H231        8.7110    6.4240    2.7840 hc        1 CDH      0.073700
     40 H232        8.5900    5.2320    1.4340 hc        1 CDH      0.073700
     41 H221       10.9340    5.8300    2.5360 hc        1 CDH      0.087200
     42 H222       10.4190    4.7480    3.8890 hc        1 CDH      0.087200
     43 H211       11.7660    3.4010    2.4950 hx        1 CDH      0.121700
     44 H311       11.7670    3.3990    0.2640 hn        1 CDH      0.459800
     45 H312       10.1080    3.5350    0.1130 hn        1 CDH      0.459800
     46 H292        4.7200   -0.3370    0.7670 hn        1 CDH      0.323500
     47 H302        6.0590    2.3630    3.8810 hn        1 CDH      0.496300
     48 H313       11.0550    4.9050    0.3710 hn        1 CDH      0.459800
@<TRIPOS>BOND
     1    1    2 2   
     2    2    3 1   
     3    2    4 1   
     4    3   31 1   
     5    4    5 1   
     6    4    8 1   
     7    4   25 1   
     8    5    6 2   
     9    5    7 1   
    10    6   26 1   
    11    6   27 1   
    12    7   28 1   
    13    7   29 1   
    14    7   30 1   
    15    8    9 1   
    16    8   46 1   
    17    9   10 2   
    18    9   11 1   
    19   11   12 1   
    20   11   14 1   
    21   11   32 1   
    22   12   13 1   
    23   12   33 1   
    24   12   34 1   
    25   13   35 1   
    26   14   15 1   
    27   14   36 1   
    28   14   47 1   
    29   15   16 2   
    30   15   17 1   
    31   17   18 1   
    32   17   37 1   
    33   17   38 1   
    34   18   19 1   
    35   18   39 1   
    36   18   40 1   
    37   19   20 1   
    38   19   41 1   
    39   19   42 1   
    40   20   21 1   
    41   20   22 1   
    42   20   43 1   
    43   21   44 1   
    44   21   45 1   
    45   21   48 1   
    46   22   23 1   
    47   22   24 1   
@<TRIPOS>SUBSTRUCTURE
     1 CDH         1 TEMP              0 ****  ****    0 ROOT
