@<TRIPOS>MOLECULE
CDH
   48    47     1     0     0
SMALL
bcc


@<TRIPOS>ATOM
      1 O43         2.9460    0.9470   -0.7510 o         1 CDH     -0.487000
      2 C31         2.3630    0.7230    0.3090 c         1 CDH      0.606100
      3 O42         1.0490    1.0700    0.3210 oh        1 CDH     -0.552100
      4 C30         2.9810    0.1390    1.5850 c3        1 CDH      0.045900
      5 C32         2.1920   -1.0770    2.0180 c2        1 CDH     -0.173400
      6 C37         1.8050   -1.2120    3.2900 c2        1 CDH     -0.157000
      7 C33         1.8960   -2.0780    0.9680 c3        1 CDH     -0.071900
      8 N29         4.3860   -0.1730    1.4090 n         1 CDH     -0.508900
      9 C13         5.3640    0.7030    1.8010 c         1 CDH      0.665100
     10 O18         5.1350    1.7200    2.4870 o         1 CDH     -0.608100
     11 C12         6.8160    0.3820    1.3540 c3        1 CDH      0.059500
     12 C16         7.2790   -0.9890    1.8470 c3        1 CDH     -0.046300
     13 S           7.5080   -0.9920    3.6000 sh        1 CDH     -0.313900
     14 N30         7.7560    1.4450    1.8230 n4        1 CDH     -0.677800
     15 C25         7.3500    2.8410    1.4240 c         1 CDH      0.589100
     16 O25         7.0180    3.0050    0.2580 o         1 CDH     -0.445100
     17 C24         7.4250    3.8920    2.4990 c3        1 CDH     -0.148400
     18 C23         8.3440    5.0350    2.0880 c3        1 CDH     -0.081400
     19 C22         9.4950    5.2530    3.0530 c3        1 CDH     -0.096400
     20 C21        10.7280    4.3900    2.7850 c3        1 CDH     -0.012500
     21 N31        11.5430    4.8780    1.6240 n4        1 CDH     -0.834600
     22 C20        10.2670    2.9250    2.5140 c         1 CDH      0.902600
     23 O20        10.2780    2.5280    1.3080 o         1 CDH     -0.802800
     24 O21         9.8300    2.2560    3.4780 o         1 CDH     -0.802800
     25 H30         2.9020    0.9470    2.3810 h1        1 CDH      0.118700
     26 H371        2.0410   -0.4720    4.0680 ha        1 CDH      0.133500
     27 H372        1.2210   -2.0790    3.6310 ha        1 CDH      0.133500
     28 H331        2.8420   -2.5340    0.5840 hc        1 CDH      0.056700
     29 H332        1.2500   -2.9010    1.3650 hc        1 CDH      0.056700
     30 H333        1.3630   -1.5980    0.1070 hc        1 CDH      0.056700
     31 H29         4.5960   -0.8820    0.7430 hn        1 CDH      0.331500
     32 H121        6.8310    0.4040    0.2180 hx        1 CDH      0.135700
     33 H161        8.2130   -1.2880    1.3090 h1        1 CDH      0.107700
     34 H162        6.5020   -1.7560    1.5960 h1        1 CDH      0.107700
     35 HS          8.7980   -1.2980    3.6620 hs        1 CDH      0.232800
     36 H30N        8.7070    1.2760    1.4260 hn        1 CDH      0.502300
     37 H241        7.7530    3.4580    3.4850 hc        1 CDH      0.118700
     38 H242        6.3680    4.2620    2.6350 hc        1 CDH      0.118700
     39 H231        7.7330    5.9790    2.0510 hc        1 CDH      0.070700
     40 H232        8.7370    4.8600    1.0510 hc        1 CDH      0.070700
     41 H221        9.7760    6.3410    3.0510 hc        1 CDH      0.083200
     42 H222        9.1660    5.0060    4.1020 hc        1 CDH      0.083200
     43 H211       11.3920    4.4010    3.6980 hx        1 CDH      0.118700
     44 H311       11.4020    5.8750    1.4650 hn        1 CDH      0.458800
     45 H312       12.5320    4.6900    1.7920 hn        1 CDH      0.458800
     46 H292        0.6420    0.8050    1.1600 ho        1 CDH      0.438000
     47 H302        7.8490    1.3810    2.8610 hn        1 CDH      0.502300
     48 H313       11.2450    4.3400    0.7860 hn        1 CDH      0.458800
@<TRIPOS>BOND
     1    1    2 2   
     2    2    3 1   
     3    2    4 1   
     4    3   46 1   
     5    4    5 1   
     6    4    8 1   
     7    4   25 1   
     8    5    6 2   
     9    5    7 1   
    10    6   26 1   
    11    6   27 1   
    12    7   28 1   
    13    7   29 1   
    14    7   30 1   
    15    8    9 1   
    16    8   31 1   
    17    9   10 2   
    18    9   11 1   
    19   11   12 1   
    20   11   14 1   
    21   11   32 1   
    22   12   13 1   
    23   12   33 1   
    24   12   34 1   
    25   13   35 1   
    26   14   15 1   
    27   14   36 1   
    28   14   47 1   
    29   15   16 2   
    30   15   17 1   
    31   17   18 1   
    32   17   37 1   
    33   17   38 1   
    34   18   19 1   
    35   18   39 1   
    36   18   40 1   
    37   19   20 1   
    38   19   41 1   
    39   19   42 1   
    40   20   21 1   
    41   20   22 1   
    42   20   43 1   
    43   21   44 1   
    44   21   45 1   
    45   21   48 1   
    46   22   23 1   
    47   22   24 1   
@<TRIPOS>SUBSTRUCTURE
     1 CDH         1 TEMP              0 ****  ****    0 ROOT
