@<TRIPOS>MOLECULE
CDH
   45    42     1     0     0
SMALL
bcc


@<TRIPOS>ATOM
      1 O43        -4.5730   -4.4910    0.4510 o         1 CDH     -0.547000
      2 C31        -3.5860   -4.2290   -0.2780 c1        1 CDH      0.336000
      3 O42        -3.7460   -4.0580   -1.5100 os        1 CDH     -0.585000
      4 C30        -2.1930   -4.1920    0.3180 c3        1 CDH     -0.058000
      5 C32        -1.4160   -5.4300   -0.1240 c2        1 CDH     -0.048000
      6 C37        -0.9460   -5.5230   -1.4140 c1        1 CDH     -0.268000
      7 C33        -1.1610   -6.5700    0.8690 c3        1 CDH     -0.196000
      8 N29        -1.5170   -3.0190   -0.1280 n         1 CDH     -0.316000
      9 C13        -0.8630   -2.1600    0.8240 c2        1 CDH      0.265000
     10 O18        -0.2730   -2.6420    1.7710 o         1 CDH     -0.404000
     11 C12        -1.0120   -0.6480    0.7130 c3        1 CDH     -0.003000
     12 C16        -1.6610   -0.1060    1.9810 c3        1 CDH     -0.247000
     13 S          -3.3600    0.2830    1.6560 sh        1 CDH     -0.141000
     14 N30         0.2710   -0.0550    0.5440 n         1 CDH     -0.359000
     15 C25         0.4020    1.1890   -0.1760 c2        1 CDH      0.304000
     16 O25        -0.5490    1.6390   -0.7920 o         1 CDH     -0.396000
     17 C24         1.7100    2.0090   -0.0670 c3        1 CDH     -0.181000
     18 C23         1.5110    3.3780   -0.7230 c3        1 CDH     -0.151000
     19 C22         2.7470    4.2270   -0.5030 c3        1 CDH     -0.144000
     20 C21         2.5490    5.5840   -1.1510 c3        1 CDH     -0.125000
     21 N31         3.5230    5.7630   -2.2030 n3        1 CDH     -0.323000
     22 C20         2.7190    6.6500   -0.1330 c2        1 CDH      0.306000
     23 O20         1.7940    7.4590    0.0820 o         1 CDH     -0.584000
     24 O21         3.8170    6.7750    0.4720 o         1 CDH     -0.584000
     25 H30        -2.2560   -4.1810    1.2890 h1        1 CDH      0.122000
     26 H371       -1.1100   -4.7920   -2.0520 DU        1 CDH      0.110000
     27 H372       -0.4430   -6.3240   -1.7000 ha        1 CDH      0.082000
     28 H331       -1.6490   -6.3920    1.7090 hc        1 CDH      0.082667
     29 H332       -1.4760   -7.4180    0.4820 hc        1 CDH      0.082667
     30 H333       -0.2070   -6.6330    1.0550 hc        1 CDH      0.082667
     31 H29        -1.4660   -2.8300   -1.0310 hn        1 CDH      0.231000
     32 H121       -1.5700   -0.4340   -0.0520 h1        1 CDH      0.153000
     33 H161       -1.1880    0.7060    2.2710 h1        1 CDH      0.118500
     34 H162       -1.6100   -0.7860    2.6920 h1        1 CDH      0.118500
     35 HS         -3.8350    0.8190    2.6100 hs        1 CDH      0.149000
     36 H30N        1.0010   -0.4210    0.9590 hn        1 CDH      0.237000
     37 H241        1.9410    2.1290    0.8740 hc        1 CDH      0.102500
     38 H242        2.4360    1.5300   -0.5230 hc        1 CDH      0.102500
     39 H231        1.3620    3.2610   -1.6830 hc        1 CDH      0.085000
     40 H232        0.7380    3.8190   -0.3260 hc        1 CDH      0.085000
     41 H221        2.8980    4.3430    0.4580 hc        1 CDH      0.085500
     42 H222        3.5210    3.7850   -0.9020 hc        1 CDH      0.085500
     43 H211        1.6440    5.6360   -1.5300 h1        1 CDH      0.082000
     44 H311        3.9840    6.5480   -2.0640 hn        1 CDH      0.124500
     45 H312        3.0960    5.7990   -3.0120 hn        1 CDH      0.124500
@<TRIPOS>BOND
     1    1    2 1   
     2    2    4 1   
     3    4    5 1   
     4    4    8 1   
     5    4   25 1   
     6    5    6 1   
     7    5    7 1   
     8    6   27 1   
     9    7   28 1   
    10    7   29 1   
    11    7   30 1   
    12    8    9 1   
    13    8   31 1   
    14    9   10 1   
    15    9   11 1   
    16   11   12 1   
    17   11   14 1   
    18   11   32 1   
    19   12   13 1   
    20   12   33 1   
    21   12   34 1   
    22   13   35 1   
    23   14   15 1   
    24   14   36 1   
    25   15   16 1   
    26   15   17 1   
    27   17   18 1   
    28   17   37 1   
    29   17   38 1   
    30   18   19 1   
    31   18   39 1   
    32   18   40 1   
    33   19   20 1   
    34   19   41 1   
    35   19   42 1   
    36   20   21 1   
    37   20   22 1   
    38   20   43 1   
    39   21   44 1   
    40   21   45 1   
    41   22   23 1   
    42   22   24 1   
@<TRIPOS>SUBSTRUCTURE
     1 CDH         1 TEMP              0 ****  ****    0 ROOT
