@<TRIPOS>MOLECULE
CDH
   45    44     1     0     0
SMALL
bcc


@<TRIPOS>ATOM
      1 O43         2.6280   -4.6230   -2.0900 o         1 CDH     -0.823800
      2 C31         3.2980   -3.9240   -1.2910 c         1 CDH      0.922600
      3 O42         3.7060   -4.2850   -0.1520 o         1 CDH     -0.823800
      4 C30         3.6590   -2.4570   -1.7670 c3        1 CDH     -0.012100
      5 C32         2.6020   -1.5240   -1.2230 c2        1 CDH     -0.076400
      6 C37         1.6900   -0.9640   -2.0230 c2        1 CDH     -0.255000
      7 C33         2.6070   -1.3200    0.2460 c3        1 CDH     -0.068900
      8 N29         4.9980   -2.1070   -1.3430 n         1 CDH     -0.514900
      9 C13         5.7890   -1.1930   -1.9670 c         1 CDH      0.635100
     10 O18         5.4550   -0.5800   -3.0090 o         1 CDH     -0.660100
     11 C12         7.1560   -0.8840   -1.2890 c3        1 CDH      0.034700
     12 C16         6.9150    0.2100   -0.2410 c3        1 CDH     -0.006300
     13 S           6.5270    1.8280   -0.8470 sh        1 CDH     -0.431900
     14 N30         8.1610   -0.5710   -2.2680 n         1 CDH     -0.563900
     15 C25         9.5170   -0.6620   -1.9830 c         1 CDH      0.664100
     16 O25         9.8980   -1.1190   -0.8860 o         1 CDH     -0.626100
     17 C24        10.4650   -0.2460   -3.0910 c3        1 CDH     -0.142400
     18 C23        11.9130   -0.2340   -2.6420 c3        1 CDH     -0.073400
     19 C22        12.8340   -0.2270   -3.8450 c3        1 CDH     -0.061400
     20 C21        14.2900    0.1180   -3.5290 c3        1 CDH      0.025500
     21 N31        14.8650   -0.6570   -2.4390 n3        1 CDH     -0.894800
     22 C20        14.4490    1.6670   -3.3810 c         1 CDH      0.886600
     23 O20        15.0720    2.1120   -2.3740 o         1 CDH     -0.848800
     24 O21        13.9850    2.3940   -4.3040 o         1 CDH     -0.848800
     25 H30         3.6280   -2.4380   -2.8950 h1        1 CDH      0.073700
     26 H371        1.6890   -1.1170   -3.1080 ha        1 CDH      0.096500
     27 H372        0.8810   -0.3330   -1.6370 ha        1 CDH      0.096500
     28 H331        2.7880   -2.3030    0.7560 hc        1 CDH      0.040700
     29 H332        1.6390   -0.8930    0.6050 hc        1 CDH      0.040700
     30 H333        3.4290   -0.6160    0.5340 hc        1 CDH      0.040700
     31 H29         5.3270   -2.6040   -0.5430 hn        1 CDH      0.333500
     32 H121        7.5230   -1.7980   -0.7230 h1        1 CDH      0.093700
     33 H161        6.1000   -0.1340    0.4420 h1        1 CDH      0.082200
     34 H162        7.8510    0.3510    0.3590 h1        1 CDH      0.082200
     35 HS          5.6840    1.5050   -1.8270 hs        1 CDH      0.245800
     36 H30N        7.8560   -0.0750   -3.0730 hn        1 CDH      0.325500
     37 H241       10.1840    0.7740   -3.4670 hc        1 CDH      0.062200
     38 H242       10.3390   -0.9700   -3.9400 hc        1 CDH      0.062200
     39 H231       12.1070   -1.1350   -2.0020 hc        1 CDH      0.059700
     40 H232       12.1070    0.6740   -2.0120 hc        1 CDH      0.059700
     41 H221       12.7870   -1.2320   -4.3410 hc        1 CDH      0.035700
     42 H222       12.4780    0.5410   -4.5850 hc        1 CDH      0.035700
     43 H211       14.8930   -0.1520   -4.4480 h1        1 CDH      0.034700
     44 H311       14.2360   -0.6360   -1.6550 hn        1 CDH      0.332300
     45 H312       15.7000   -0.1760   -2.1410 hn        1 CDH      0.332300
@<TRIPOS>BOND
     1    1    2 1   
     2    2    3 1   
     3    2    4 1   
     4    4    5 1   
     5    4    8 1   
     6    4   25 1   
     7    5    6 2   
     8    5    7 1   
     9    6   26 1   
    10    6   27 1   
    11    7   28 1   
    12    7   29 1   
    13    7   30 1   
    14    8    9 1   
    15    8   31 1   
    16    9   10 2   
    17    9   11 1   
    18   11   12 1   
    19   11   14 1   
    20   11   32 1   
    21   12   13 1   
    22   12   33 1   
    23   12   34 1   
    24   13   35 1   
    25   14   15 1   
    26   14   36 1   
    27   15   16 2   
    28   15   17 1   
    29   17   18 1   
    30   17   37 1   
    31   17   38 1   
    32   18   19 1   
    33   18   39 1   
    34   18   40 1   
    35   19   20 1   
    36   19   41 1   
    37   19   42 1   
    38   20   21 1   
    39   20   22 1   
    40   20   43 1   
    41   21   44 1   
    42   21   45 1   
    43   22   23 1   
    44   22   24 1   
@<TRIPOS>SUBSTRUCTURE
     1 CDH         1 TEMP              0 ****  ****    0 ROOT
