@<TRIPOS>MOLECULE
CDH
   48    47     1     0     0
SMALL
bcc


@<TRIPOS>ATOM
      1 O43         0.9050    1.0500    1.0630 o         1 CDH     -0.451000
      2 C31         1.9270    0.4910    0.6780 c         1 CDH      0.614100
      3 O42         2.2070    0.6810   -0.6430 oh        1 CDH     -0.566100
      4 C30         2.8450   -0.3440    1.5780 c3        1 CDH      0.045900
      5 C32         2.6390   -1.8150    1.3020 c2        1 CDH     -0.180400
      6 C37         2.2660   -2.6320    2.2920 c2        1 CDH     -0.142000
      7 C33         2.8290   -2.2860   -0.0900 c3        1 CDH     -0.073900
      8 N29         4.2330    0.0630    1.4540 n         1 CDH     -0.538900
      9 C13         4.8460    0.8170    2.4200 c         1 CDH      0.655100
     10 O18         4.2480    1.2750    3.4140 o         1 CDH     -0.589100
     11 C12         6.3420    1.1590    2.1970 c3        1 CDH      0.065500
     12 C16         7.2350   -0.0780    2.3170 c3        1 CDH     -0.038300
     13 S           7.6440   -0.4790    3.9890 sh        1 CDH     -0.344900
     14 N30         6.7700    2.2340    3.1550 n4        1 CDH     -0.670800
     15 C25         6.9760    3.5880    2.5370 c         1 CDH      0.569100
     16 O25         6.4930    3.8100    1.4350 o         1 CDH     -0.437100
     17 C24         7.7370    4.5730    3.3900 c3        1 CDH     -0.157400
     18 C23         8.6990    5.4110    2.5590 c3        1 CDH     -0.081400
     19 C22        10.1590    5.0810    2.8040 c3        1 CDH     -0.099400
     20 C21        10.6870    3.8600    2.0540 c3        1 CDH     -0.011500
     21 N31        10.8450    4.1000    0.5810 n4        1 CDH     -0.835600
     22 C20         9.7200    2.6620    2.2890 c         1 CDH      0.902600
     23 O20         8.9820    2.3030    1.3240 o         1 CDH     -0.806300
     24 O21         9.6640    2.1680    3.4420 o         1 CDH     -0.806300
     25 H30         2.5090   -0.1140    2.6430 h1        1 CDH      0.133700
     26 H371        2.1070   -2.2880    3.3240 ha        1 CDH      0.134500
     27 H372        2.0830   -3.7030    2.1240 ha        1 CDH      0.134500
     28 H331        3.8180   -1.9630   -0.5000 hc        1 CDH      0.051700
     29 H332        2.7840   -3.4020   -0.1440 hc        1 CDH      0.051700
     30 H333        2.0200   -1.8770   -0.7500 hc        1 CDH      0.051700
     31 H29         2.9660    0.1460   -0.9080 ho        1 CDH      0.422000
     32 H121        6.4700    1.5760    1.1460 hx        1 CDH      0.148700
     33 H161        8.1670    0.1110    1.7180 h1        1 CDH      0.116200
     34 H162        6.7110   -0.9610    1.8750 h1        1 CDH      0.116200
     35 HS          8.9460   -0.1750    3.9790 hs        1 CDH      0.255800
     36 H30N        6.0540    2.3170    3.8990 hn        1 CDH      0.496300
     37 H241        8.2950    4.0560    4.2190 hc        1 CDH      0.111200
     38 H242        6.9620    5.2430    3.8620 hc        1 CDH      0.111200
     39 H231        8.5400    6.4900    2.8370 hc        1 CDH      0.073700
     40 H232        8.4490    5.3160    1.4700 hc        1 CDH      0.073700
     41 H221       10.7810    5.9830    2.5560 hc        1 CDH      0.087200
     42 H222       10.3220    4.8630    3.8970 hc        1 CDH      0.087200
     43 H211       11.7030    3.5880    2.4680 hx        1 CDH      0.121700
     44 H311       10.9110    5.0970    0.3750 hn        1 CDH      0.459800
     45 H312       10.0140    3.6970    0.1070 hn        1 CDH      0.459800
     46 H292        4.7820   -0.3830    0.7560 hn        1 CDH      0.323500
     47 H302        7.6710    1.9240    3.6000 hn        1 CDH      0.496300
     48 H313       11.6780    3.6210    0.2370 hn        1 CDH      0.459800
@<TRIPOS>BOND
     1    1    2 2   
     2    2    3 1   
     3    2    4 1   
     4    3   31 1   
     5    4    5 1   
     6    4    8 1   
     7    4   25 1   
     8    5    6 2   
     9    5    7 1   
    10    6   26 1   
    11    6   27 1   
    12    7   28 1   
    13    7   29 1   
    14    7   30 1   
    15    8    9 1   
    16    8   46 1   
    17    9   10 2   
    18    9   11 1   
    19   11   12 1   
    20   11   14 1   
    21   11   32 1   
    22   12   13 1   
    23   12   33 1   
    24   12   34 1   
    25   13   35 1   
    26   14   15 1   
    27   14   36 1   
    28   14   47 1   
    29   15   16 2   
    30   15   17 1   
    31   17   18 1   
    32   17   37 1   
    33   17   38 1   
    34   18   19 1   
    35   18   39 1   
    36   18   40 1   
    37   19   20 1   
    38   19   41 1   
    39   19   42 1   
    40   20   21 1   
    41   20   22 1   
    42   20   43 1   
    43   21   44 1   
    44   21   45 1   
    45   21   48 1   
    46   22   23 1   
    47   22   24 1   
@<TRIPOS>SUBSTRUCTURE
     1 CDH         1 TEMP              0 ****  ****    0 ROOT
