@<TRIPOS>MOLECULE
CDI
   28    28     1     0     0
SMALL
bcc


@<TRIPOS>ATOM
      1 C4          1.4940   -0.0840    0.3490 c3        1 CDI      0.127400
      2 C3          0.0050   -0.0400   -0.0860 c3        1 CDI      0.285800
      3 OB4        -0.7010   -0.0810    1.1400 os        1 CDI     -0.651200
      4 PB         -2.2260    0.0210    1.5840 p5        1 CDI      1.758500
      5 OB2        -1.8980    0.2350    3.1120 oh        1 CDI     -0.741400
      6 OB3        -3.2710    0.7520    0.8780 o         1 CDI     -0.833300
      7 PA         -3.7550   -1.5400    0.0360 p5        1 CDI      1.755500
      8 OA3        -2.5940   -0.7390   -0.7520 os        1 CDI     -0.615200
      9 OA1        -3.4430   -3.0460   -0.4040 oh        1 CDI     -0.803400
     10 OA2        -5.1840   -1.3820   -0.0950 o         1 CDI     -0.791300
     11 C1         -1.6530   -1.3400   -1.6000 c3        1 CDI      0.158400
     12 C2         -0.2690   -1.3290   -0.9180 c3        1 CDI      0.078100
     13 O1          0.7380   -1.3850   -1.9180 oh        1 CDI     -0.590800
     14 C5         -0.2320    1.2160   -0.9150 c3        1 CDI     -0.133100
     15 O2          1.7670    1.1050    1.0700 oh        1 CDI     -0.597800
     16 OB1        -2.8940   -1.4080    1.3680 os        1 CDI     -0.687800
     17 HC41        1.6670   -0.9780    1.0030 h1        1 CDI      0.043700
     18 HC42        2.1380   -0.1470   -0.5690 h1        1 CDI      0.043700
     19 HB2O       -0.9850    0.1210    3.3830 ho        1 CDI      0.501000
     20 HA1O       -4.1990   -3.6180   -0.5090 ho        1 CDI      0.486000
     21 HC11       -1.9580   -2.3900   -1.8490 h1        1 CDI      0.066700
     22 HC12       -1.6080   -0.7170   -2.5370 h1        1 CDI      0.066700
     23 HC2        -0.1730   -2.2210   -0.2360 h1        1 CDI      0.054700
     24 HO1         0.5920   -2.2020   -2.4120 ho        1 CDI      0.411000
     25 HC51        0.4390    1.1680   -1.8070 hc        1 CDI      0.068367
     26 HC52       -1.2890    1.2900   -1.2700 hc        1 CDI      0.068367
     27 HC53        0.0240    2.1200   -0.3130 hc        1 CDI      0.068367
     28 HO2         2.7080    1.0830    1.2800 ho        1 CDI      0.403000
@<TRIPOS>BOND
     1    1    2 1   
     2    1   15 1   
     3    1   17 1   
     4    1   18 1   
     5    2    3 1   
     6    2   12 1   
     7    2   14 1   
     8    3    4 1   
     9    4    5 1   
    10    4    6 2   
    11    4   16 1   
    12    5   19 1   
    13    7    8 1   
    14    7    9 1   
    15    7   10 2   
    16    7   16 1   
    17    8   11 1   
    18    9   20 1   
    19   11   12 1   
    20   11   21 1   
    21   11   22 1   
    22   12   13 1   
    23   12   23 1   
    24   13   24 1   
    25   14   25 1   
    26   14   26 1   
    27   14   27 1   
    28   15   28 1   
@<TRIPOS>SUBSTRUCTURE
     1 CDI         1 TEMP              0 ****  ****    0 ROOT
