@<TRIPOS>MOLECULE
CDI
   28    28     1     0     0
SMALL
bcc


@<TRIPOS>ATOM
      1 C4         -0.2640   -0.5770   -3.0750 c3        1 CDI      0.134400
      2 C3         -0.3220    0.1760   -1.7180 c3        1 CDI      0.234800
      3 OB4         0.8820   -0.2230   -1.0760 os        1 CDI     -0.665200
      4 PB          1.5770    0.0870    0.3260 p5        1 CDI      1.755500
      5 OB2         2.9220   -0.6500   -0.0470 oh        1 CDI     -0.739400
      6 OB3         1.5360    1.3610    1.0310 o         1 CDI     -0.825300
      7 PA         -0.2020    0.1140    2.3290 p5        1 CDI      1.752500
      8 OA3        -0.7140    0.8140    0.9670 os        1 CDI     -0.614200
      9 OA1        -1.3650   -0.9510    2.5890 oh        1 CDI     -0.802400
     10 OA2         0.0600    0.7380    3.6040 o         1 CDI     -0.788300
     11 C1         -1.9080    0.4760    0.3110 c3        1 CDI      0.155400
     12 C2         -1.5810   -0.3330   -0.9600 c3        1 CDI      0.083100
     13 O1         -2.6640   -0.2140   -1.8710 oh        1 CDI     -0.587800
     14 C5         -0.4010    1.6730   -1.9840 c3        1 CDI     -0.132100
     15 O2          0.8640   -0.2050   -3.8340 oh        1 CDI     -0.589800
     16 OB1         0.8250   -0.7360    1.4580 os        1 CDI     -0.690800
     17 HC41       -0.2600   -1.6820   -2.8840 h1        1 CDI      0.062700
     18 HC42       -1.1530   -0.2900   -3.6970 h1        1 CDI      0.062700
     19 HB2O        2.8860   -1.3060   -0.7430 ho        1 CDI      0.495000
     20 HA1O       -1.5770   -1.1290    3.5020 ho        1 CDI      0.488000
     21 HC11       -2.5780   -0.1130    0.9900 h1        1 CDI      0.069200
     22 HC12       -2.4050    1.4430    0.0180 h1        1 CDI      0.069200
     23 HC2        -1.4280   -1.4170   -0.6950 h1        1 CDI      0.053700
     24 HO1        -3.4350   -0.5970   -1.4330 ho        1 CDI      0.413000
     25 HC51        0.4700    1.9910   -2.6060 hc        1 CDI      0.068033
     26 HC52       -1.3450    1.8710   -2.5510 hc        1 CDI      0.068033
     27 HC53       -0.4240    2.2690   -1.0400 hc        1 CDI      0.068033
     28 HO2         1.6430   -0.3850   -3.2930 ho        1 CDI      0.403000
@<TRIPOS>BOND
     1    1    2 1   
     2    1   15 1   
     3    1   17 1   
     4    1   18 1   
     5    2    3 1   
     6    2   12 1   
     7    2   14 1   
     8    3    4 1   
     9    4    5 1   
    10    4    6 2   
    11    4   16 1   
    12    5   19 1   
    13    7    8 1   
    14    7    9 1   
    15    7   10 2   
    16    7   16 1   
    17    8   11 1   
    18    9   20 1   
    19   11   12 1   
    20   11   21 1   
    21   11   22 1   
    22   12   13 1   
    23   12   23 1   
    24   13   24 1   
    25   14   25 1   
    26   14   26 1   
    27   14   27 1   
    28   15   28 1   
@<TRIPOS>SUBSTRUCTURE
     1 CDI         1 TEMP              0 ****  ****    0 ROOT
