@<TRIPOS>MOLECULE
CDI
   28    27     1     0     0
SMALL
bcc


@<TRIPOS>ATOM
      1 C4          1.9530   -0.8450   -0.5500 c3        1 CDI      0.105400
      2 C3          0.3590   -0.7890   -0.5760 c3        1 CDI      0.181800
      3 OB4        -0.1310   -0.7400    0.7630 os        1 CDI     -0.592200
      4 PB          0.6000    0.3640    1.5870 p5        1 CDI      1.858500
      5 OB2         0.9960   -0.0610    3.0290 oh        1 CDI     -0.783400
      6 OB3         1.9040    0.7440    1.0720 o         1 CDI     -0.861300
      7 PA         -1.8650    1.1550    1.4380 p4        1 CDI      2.044100
      8 OA3        -1.8940    0.1690    0.2360 o         1 CDI     -0.901500
      9 OA1        -2.4470    0.5560    2.8000 oh        1 CDI     -0.768400
     10 OA2        -2.7310    2.3320    1.2900 o         1 CDI     -0.834300
     11 C1         -1.4930    0.8230   -0.9770 c3        1 CDI      0.281100
     12 C2         -0.0850    0.4300   -1.3560 c3        1 CDI      0.048100
     13 O1          0.7840    1.4970   -1.0790 oh        1 CDI     -0.686800
     14 C5         -0.1680   -2.0150   -1.2420 c3        1 CDI     -0.105100
     15 O2          2.4050   -1.5840   -1.6140 oh        1 CDI     -0.598800
     16 OB1        -0.3630    1.6030    1.5870 os        1 CDI     -0.792800
     17 HC41        2.3130    0.0650   -0.6090 h1        1 CDI      0.065700
     18 HC42        2.2530   -1.2640    0.2920 h1        1 CDI      0.065700
     19 HB2O        1.3280    0.6180    3.4480 ho        1 CDI      0.479000
     20 HA1O       -3.3150    0.7610    2.8690 ho        1 CDI      0.491000
     21 HC11       -2.1110    0.5620   -1.7040 h1        1 CDI      0.070700
     22 HC12       -1.5350    1.8110   -0.8480 h1        1 CDI      0.070700
     23 HC2        -0.0540    0.2320   -2.3060 h1        1 CDI      0.097700
     24 HO1         0.8630    2.0100   -1.8000 ho        1 CDI      0.485000
     25 HC51       -1.1370   -2.0570   -1.1260 hc        1 CDI      0.057700
     26 HC52        0.0390   -1.9860   -2.1720 hc        1 CDI      0.057700
     27 HC53        0.2320   -2.7840   -0.8520 hc        1 CDI      0.057700
     28 HO2         3.3010   -1.6080   -1.6000 ho        1 CDI      0.407000
@<TRIPOS>BOND
     1    1    2 1   
     2    1   15 1   
     3    1   17 1   
     4    1   18 1   
     5    2    3 1   
     6    2   12 1   
     7    2   14 1   
     8    3    4 1   
     9    4    5 1   
    10    4    6 2   
    11    4   16 1   
    12    5   19 1   
    13    7    9 1   
    14    7   10 2   
    15    7   16 1   
    16    8   11 1   
    17    9   20 1   
    18   11   12 1   
    19   11   21 1   
    20   11   22 1   
    21   12   13 1   
    22   12   23 1   
    23   13   24 1   
    24   14   25 1   
    25   14   26 1   
    26   14   27 1   
    27   15   28 1   
@<TRIPOS>SUBSTRUCTURE
     1 CDI         1 TEMP              0 ****  ****    0 ROOT
