@<TRIPOS>MOLECULE
CDI
   28    28     1     0     0
SMALL
bcc


@<TRIPOS>ATOM
      1 C4          1.5010   -0.1080    0.3690 c3        1 CDI      0.127400
      2 C3          0.0150   -0.0470   -0.0750 c3        1 CDI      0.285800
      3 OB4        -0.6990   -0.0840    1.1470 os        1 CDI     -0.651200
      4 PB         -2.2260    0.0320    1.5810 p5        1 CDI      1.758500
      5 OB2        -1.9060    0.2400    3.1120 oh        1 CDI     -0.741400
      6 OB3        -3.2590    0.7760    0.8700 o         1 CDI     -0.833300
      7 PA         -3.7610   -1.5090    0.0190 p5        1 CDI      1.755500
      8 OA3        -2.5870   -0.7180   -0.7590 os        1 CDI     -0.615200
      9 OA1        -3.4620   -3.0160   -0.4220 oh        1 CDI     -0.803400
     10 OA2        -5.1880   -1.3350   -0.1200 o         1 CDI     -0.791300
     11 C1         -1.6470   -1.3270   -1.6020 c3        1 CDI      0.158400
     12 C2         -0.2680   -1.3320   -0.9120 c3        1 CDI      0.078100
     13 O1          0.7450   -1.3970   -1.9060 oh        1 CDI     -0.590800
     14 C5         -0.2040    1.2120   -0.9020 c3        1 CDI     -0.133100
     15 O2          1.7810    1.0760    1.0940 oh        1 CDI     -0.597800
     16 OB1        -2.9070   -1.3890    1.3570 os        1 CDI     -0.687800
     17 HC41        1.6600   -1.0060    1.0230 h1        1 CDI      0.043700
     18 HC42        2.1490   -0.1760   -0.5450 h1        1 CDI      0.043700
     19 HB2O       -0.9960    0.1160    3.3880 ho        1 CDI      0.501000
     20 HA1O       -4.2240   -3.5800   -0.5330 ho        1 CDI      0.486000
     21 HC11       -1.5900   -0.7020   -2.5380 h1        1 CDI      0.066700
     22 HC12       -1.9620   -2.3730   -1.8560 h1        1 CDI      0.066700
     23 HC2        -0.1850   -2.2260   -0.2320 h1        1 CDI      0.054700
     24 HO1         0.5940   -2.2110   -2.4020 ho        1 CDI      0.411000
     25 HC51        0.0580    2.1130   -0.2970 hc        1 CDI      0.068367
     26 HC52        0.4730    1.1590   -1.7900 hc        1 CDI      0.068367
     27 HC53       -1.2570    1.2990   -1.2640 hc        1 CDI      0.068367
     28 HO2         2.7210    1.0440    1.3110 ho        1 CDI      0.403000
@<TRIPOS>BOND
     1    1    2 1   
     2    1   15 1   
     3    1   17 1   
     4    1   18 1   
     5    2    3 1   
     6    2   12 1   
     7    2   14 1   
     8    3    4 1   
     9    4    5 1   
    10    4    6 2   
    11    4   16 1   
    12    5   19 1   
    13    7    8 1   
    14    7    9 1   
    15    7   10 2   
    16    7   16 1   
    17    8   11 1   
    18    9   20 1   
    19   11   12 1   
    20   11   21 1   
    21   11   22 1   
    22   12   13 1   
    23   12   23 1   
    24   13   24 1   
    25   14   25 1   
    26   14   26 1   
    27   14   27 1   
    28   15   28 1   
@<TRIPOS>SUBSTRUCTURE
     1 CDI         1 TEMP              0 ****  ****    0 ROOT
