@<TRIPOS>MOLECULE
CDJ
   30    32     1     0     0
SMALL
bcc


@<TRIPOS>ATOM
      1 C1         -0.0070   -0.0270   -0.0340 ca        1 CDJ     -0.112000
      2 C2          1.3590    0.2520   -0.0440 ca        1 CDJ     -0.167000
      3 C3          2.1020    0.3100    1.1510 ca        1 CDJ      0.127600
      4 C4          1.4260    0.0780    2.3900 ca        1 CDJ     -0.033800
      5 C5          0.0420   -0.1850    2.3680 ca        1 CDJ     -0.119600
      6 C6         -0.6730   -0.2410    1.1640 ca        1 CDJ     -0.106000
      7 N7          3.4870    0.5120    1.1040 nh        1 CDJ     -0.812200
      8 C11        -0.6900   -0.4140    3.6310 c         1 CDJ      0.704100
      9 N12         0.0410   -0.3590    4.8210 n         1 CDJ     -0.450100
     10 O13        -1.9130   -0.6460    3.7030 o         1 CDJ     -0.637500
     11 C14         2.1050   -0.1030    6.1260 ca        1 CDJ     -0.074800
     12 C15         1.5710    0.5940    7.2170 ca        1 CDJ     -0.103000
     13 C16         2.2450    0.6160    8.4360 ca        1 CDJ     -0.125500
     14 C17         3.4600   -0.0650    8.5670 ca        1 CDJ      0.026400
     15 C18         4.0010   -0.7650    7.4840 ca        1 CDJ     -0.125500
     16 C19         3.3220   -0.7830    6.2680 ca        1 CDJ     -0.103000
     17 CL          4.2840   -0.0410   10.0520 cl        1 CDJ     -0.084400
     18 CAI         1.4100   -0.1200    4.8260 cc        1 CDJ      0.096400
     19 CAH         2.1000    0.0970    3.6610 cd        1 CDJ     -0.188200
     20 H1         -0.5570   -0.0720   -0.9860 ha        1 CDJ      0.138000
     21 H2          1.8590    0.4220   -1.0110 ha        1 CDJ      0.134000
     22 H6         -1.7530   -0.4540    1.1900 ha        1 CDJ      0.161000
     23 H71N        3.8640    0.9710    1.9040 hn        1 CDJ      0.388300
     24 H72N        3.8040    0.9140    0.2480 hn        1 CDJ      0.388300
     25 HAH         3.1820    0.2720    3.7170 ha        1 CDJ      0.146000
     26 H12        -0.4280   -0.5340    5.6820 hn        1 CDJ      0.334500
     27 H15         0.6220    1.1430    7.1160 ha        1 CDJ      0.147000
     28 H19         3.7420   -1.3390    5.4140 ha        1 CDJ      0.147000
     29 H16         1.8230    1.1690    9.2890 ha        1 CDJ      0.153000
     30 H18         4.9550   -1.3030    7.5890 ha        1 CDJ      0.153000
@<TRIPOS>BOND
     1    1    2 ar  
     2    1    6 ar  
     3    1   20 1   
     4    2    3 ar  
     5    2   21 1   
     6    3    4 ar  
     7    3    7 1   
     8    4    5 ar  
     9    4   19 1   
    10    5    6 ar  
    11    5    8 1   
    12    6   22 1   
    13    7   23 1   
    14    7   24 1   
    15    8    9 1   
    16    8   10 2   
    17    9   18 1   
    18    9   26 1   
    19   11   12 ar  
    20   11   16 ar  
    21   11   18 1   
    22   12   13 ar  
    23   12   27 1   
    24   13   14 ar  
    25   13   29 1   
    26   14   15 ar  
    27   14   17 1   
    28   15   16 ar  
    29   15   30 1   
    30   16   28 1   
    31   18   19 2   
    32   19   25 1   
@<TRIPOS>SUBSTRUCTURE
     1 CDJ         1 TEMP              0 ****  ****    0 ROOT
