@<TRIPOS>MOLECULE
CDK
   51    53     1     0     0
SMALL
bcc


@<TRIPOS>ATOM
      1 C17        -0.2540   -0.6000   -0.0500 c3        1 CDK     -0.058900
      2 C16         1.1020   -0.0090    0.0660 cc        1 CDK      0.126400
      3 N4          1.6940    0.2230    1.3050 n         1 CDK     -0.369000
      4 C13         1.0740   -0.0790    2.5630 c3        1 CDK      0.068300
      5 C14         2.9950    0.7910    1.2180 c         1 CDK      0.674100
      6 O3          3.6740    1.0680    2.2110 o         1 CDK     -0.550500
      7 S1          3.4090    1.0030   -0.4710 ss        1 CDK     -0.049200
      8 C15         1.9080    0.3640   -1.0010 cd        1 CDK     -0.292200
      9 C           1.6420    0.2810   -2.4160 ca        1 CDK      0.604100
     10 N           0.4180   -0.0860   -2.8760 nb        1 CDK     -0.737000
     11 C12         2.6980    0.6050   -3.3170 ca        1 CDK     -0.368600
     12 C11         2.4270    0.5370   -4.6850 ca        1 CDK      0.462200
     13 N3          1.2240    0.1790   -5.1840 nb        1 CDK     -0.729000
     14 C1          0.2610   -0.1230   -4.2500 ca        1 CDK      0.848900
     15 N1         -1.0260   -0.5640   -4.6910 nu        1 CDK     -0.694300
     16 C2         -1.6310   -0.3120   -5.8850 ca        1 CDK      0.332600
     17 C9         -2.8610   -1.0020   -6.1770 ca        1 CDK     -0.220000
     18 C10        -3.5130   -0.8070   -7.3640 ca        1 CDK      0.052500
     19 C3         -1.1550    0.6090   -6.8710 ca        1 CDK     -0.220000
     20 C4         -1.8320    0.7820   -8.0500 ca        1 CDK      0.052500
     21 C5         -3.0320    0.0860   -8.3590 ca        1 CDK     -0.651500
     22 S          -3.7350    0.2270   -9.7570 sy        1 CDK      1.513200
     23 O1         -2.9750    0.7840  -10.7660 o         1 CDK     -0.587800
     24 O2         -4.7000   -0.7210  -10.0420 o         1 CDK     -0.587800
     25 N2         -4.9070    1.7190   -9.3040 ny        1 CDK     -0.688900
     26 C6         -4.9510    2.7640  -10.3450 c3        1 CDK      0.106800
     27 C7         -5.7540    4.0040   -9.9430 c3        1 CDK      0.104400
     28 O          -5.2280    4.4460   -8.6970 os        1 CDK     -0.458600
     29 C8         -5.7000    5.7350   -8.3210 c3        1 CDK      0.118700
     30 H171       -0.2030   -1.5180   -0.6890 hc        1 CDK      0.072033
     31 H172       -0.9380    0.1400   -0.5380 hc        1 CDK      0.072033
     32 H173       -0.6900   -0.8840    0.9390 hc        1 CDK      0.072033
     33 H131        0.8710   -1.1810    2.6410 h1        1 CDK      0.067033
     34 H132        1.7690    0.2260    3.3930 h1        1 CDK      0.067033
     35 H133        0.1090    0.4850    2.6650 h1        1 CDK      0.067033
     36 H12         3.6930    0.8940   -2.9470 ha        1 CDK      0.180000
     37 H11         3.2000    0.7710   -5.4420 h4        1 CDK      0.048100
     38 H1         -1.5240   -1.1360   -4.0330 hn        1 CDK      0.475800
     39 H9         -3.2770   -1.7130   -5.4440 ha        1 CDK      0.178000
     40 H3         -0.2330    1.1900   -6.7020 ha        1 CDK      0.178000
     41 H10        -4.4390   -1.3790   -7.5730 ha        1 CDK      0.162000
     42 H4         -1.4240    1.4830   -8.8040 ha        1 CDK      0.162000
     43 H2         -4.6090    2.1550   -8.4320 hn        1 CDK      0.444300
     44 H61C       -5.4040    2.3260  -11.2790 hx        1 CDK      0.110200
     45 H62C       -3.8860    3.0690  -10.5690 hx        1 CDK      0.110200
     46 H71C       -6.8450    3.7670   -9.8240 h1        1 CDK      0.065700
     47 H72C       -5.6260    4.7900  -10.7340 h1        1 CDK      0.065700
     48 H81C       -5.2090    5.9270   -7.3340 h1        1 CDK      0.053033
     49 H82C       -5.3850    6.4990   -9.0740 h1        1 CDK      0.053033
     50 H83C       -6.8120    5.7260   -8.2170 h1        1 CDK      0.053033
     51 H22        -5.8500    1.3670   -9.1540 hn        1 CDK      0.444300
@<TRIPOS>BOND
     1    1    2 1   
     2    1   30 1   
     3    1   31 1   
     4    1   32 1   
     5    2    3 1   
     6    2    8 2   
     7    3    4 1   
     8    3    5 1   
     9    4   33 1   
    10    4   34 1   
    11    4   35 1   
    12    5    6 2   
    13    5    7 1   
    14    7    8 1   
    15    8    9 1   
    16    9   10 ar  
    17    9   11 ar  
    18   10   14 ar  
    19   11   12 ar  
    20   11   36 1   
    21   12   13 ar  
    22   12   37 1   
    23   13   14 ar  
    24   14   15 1   
    25   15   16 1   
    26   15   38 1   
    27   16   17 ar  
    28   16   19 ar  
    29   17   18 ar  
    30   17   39 1   
    31   18   21 ar  
    32   18   41 1   
    33   19   20 ar  
    34   19   40 1   
    35   20   21 ar  
    36   20   42 1   
    37   21   22 1   
    38   22   23 2   
    39   22   24 2   
    40   22   25 1   
    41   25   26 1   
    42   25   43 1   
    43   25   51 1   
    44   26   27 1   
    45   26   44 1   
    46   26   45 1   
    47   27   28 1   
    48   27   46 1   
    49   27   47 1   
    50   28   29 1   
    51   29   48 1   
    52   29   49 1   
    53   29   50 1   
@<TRIPOS>SUBSTRUCTURE
     1 CDK         1 TEMP              0 ****  ****    0 ROOT
