@<TRIPOS>MOLECULE
CDK
   52    54     1     0     0
SMALL
bcc


@<TRIPOS>ATOM
      1 C17        -0.0020    0.7850    0.0270 c3        1 CDK     -0.069900
      2 C16         1.3670    0.2330   -0.1230 cc        1 CDK      0.167400
      3 N4          2.3620    0.4880    0.7970 n         1 CDK     -0.348000
      4 C13         2.1920    1.2900    1.9790 c3        1 CDK      0.055300
      5 C14         3.6120   -0.1450    0.4870 c         1 CDK      0.674100
      6 O3          4.6090   -0.0210    1.1950 o         1 CDK     -0.500500
      7 S1          3.4290   -1.0510   -0.9990 ss        1 CDK     -0.028200
      8 C15         1.7840   -0.5930   -1.1740 cd        1 CDK     -0.340200
      9 C           1.0480   -1.0740   -2.2970 ca        1 CDK      0.631100
     10 N          -0.1960   -0.5870   -2.6050 nb        1 CDK     -0.723000
     11 C12         1.6450   -2.0870   -3.1200 ca        1 CDK     -0.318600
     12 C11         0.9350   -2.5590   -4.2240 ca        1 CDK      0.466200
     13 N3         -0.2990   -2.0980   -4.5530 nb        1 CDK     -0.707000
     14 C1         -0.7820   -1.1420   -3.7080 ca        1 CDK      0.710900
     15 N1         -2.1670   -0.6290   -4.0270 n4        1 CDK     -0.633100
     16 C2         -2.2120    0.0130   -5.3470 ca        1 CDK      0.079600
     17 C9         -2.3270   -0.7780   -6.5030 ca        1 CDK     -0.110000
     18 C10        -2.3490   -0.1560   -7.7500 ca        1 CDK      0.019000
     19 C3         -2.1310    1.4130   -5.4440 ca        1 CDK     -0.110000
     20 C4         -2.1590    2.0090   -6.7020 ca        1 CDK      0.019000
     21 C5         -2.2630    1.2410   -7.8750 ca        1 CDK     -0.452500
     22 S          -2.1230    1.9470   -9.3610 sy        1 CDK      1.455200
     23 O1         -1.5700    3.2060   -9.2870 o         1 CDK     -0.543800
     24 O2         -1.8210    1.0300  -10.3450 o         1 CDK     -0.543800
     25 N2         -3.9260    2.2670   -9.7000 n4        1 CDK     -0.718900
     26 C6         -4.1730    3.5860  -10.3470 c3        1 CDK      0.097800
     27 C7         -5.6600    3.9520  -10.4120 c3        1 CDK      0.106400
     28 O          -6.1700    3.8100   -9.0910 os        1 CDK     -0.478600
     29 C8         -7.4470    4.4230   -8.9190 c3        1 CDK      0.118700
     30 H171       -0.1460    1.3330    0.9920 hc        1 CDK      0.076367
     31 H172       -0.2060    1.4950   -0.8140 hc        1 CDK      0.076367
     32 H173       -0.7450   -0.0520   -0.0110 hc        1 CDK      0.076367
     33 H131        3.1750    1.3410    2.5260 h1        1 CDK      0.079700
     34 H132        1.4210    0.8290    2.6530 h1        1 CDK      0.079700
     35 H133        1.8740    2.3290    1.6980 h1        1 CDK      0.079700
     36 H12         2.6430   -2.4890   -2.8740 ha        1 CDK      0.204000
     37 H11         1.3390   -3.3450   -4.8940 h4        1 CDK      0.075100
     38 H1         -2.8110   -1.4350   -4.0120 hn        1 CDK      0.485300
     39 H9         -2.3690   -1.8830   -6.4490 ha        1 CDK      0.197000
     40 H3         -2.0290    2.0530   -4.5480 ha        1 CDK      0.197000
     41 H10        -2.4040   -0.7910   -8.6590 ha        1 CDK      0.195500
     42 H4         -2.0660    3.1130   -6.7700 ha        1 CDK      0.195500
     43 H2         -4.4980    2.2450   -8.8490 hn        1 CDK      0.466300
     44 H61C       -3.7570    3.5600  -11.3960 hx        1 CDK      0.122200
     45 H62C       -3.6250    4.3720   -9.7480 hx        1 CDK      0.122200
     46 H71C       -6.2230    3.2720  -11.1050 h1        1 CDK      0.081700
     47 H72C       -5.7500    5.0140  -10.7700 h1        1 CDK      0.081700
     48 H81C       -7.3740    5.5240   -9.0960 h1        1 CDK      0.061033
     49 H82C       -8.1920    3.9620   -9.6120 h1        1 CDK      0.061033
     50 H83C       -7.7070    4.2080   -7.8520 h1        1 CDK      0.061033
     51 H121       -2.4510    0.0460   -3.2980 hn        1 CDK      0.485300
     52 H22        -4.3030    1.5420  -10.3180 hn        1 CDK      0.466300
@<TRIPOS>BOND
     1    1    2 1   
     2    1   30 1   
     3    1   31 1   
     4    1   32 1   
     5    2    3 1   
     6    2    8 2   
     7    3    4 1   
     8    3    5 1   
     9    4   33 1   
    10    4   34 1   
    11    4   35 1   
    12    5    6 2   
    13    5    7 1   
    14    7    8 1   
    15    8    9 1   
    16    9   10 ar  
    17    9   11 ar  
    18   10   14 ar  
    19   11   12 ar  
    20   11   36 1   
    21   12   13 ar  
    22   12   37 1   
    23   13   14 ar  
    24   14   15 1   
    25   15   16 1   
    26   15   38 1   
    27   15   51 1   
    28   16   17 ar  
    29   16   19 ar  
    30   17   18 ar  
    31   17   39 1   
    32   18   21 ar  
    33   18   41 1   
    34   19   20 ar  
    35   19   40 1   
    36   20   21 ar  
    37   20   42 1   
    38   21   22 1   
    39   22   23 2   
    40   22   24 2   
    41   22   25 1   
    42   25   26 1   
    43   25   43 1   
    44   25   52 1   
    45   26   27 1   
    46   26   44 1   
    47   26   45 1   
    48   27   28 1   
    49   27   46 1   
    50   27   47 1   
    51   28   29 1   
    52   29   48 1   
    53   29   49 1   
    54   29   50 1   
@<TRIPOS>SUBSTRUCTURE
     1 CDK         1 TEMP              0 ****  ****    0 ROOT
