@<TRIPOS>MOLECULE
CDK
   51    53     1     0     0
SMALL
bcc


@<TRIPOS>ATOM
      1 C17        -0.2610   -0.5520   -0.0430 c3        1 CDK     -0.058900
      2 C16         1.1060    0.0140    0.0590 cc        1 CDK      0.126400
      3 N4          1.7070    0.2570    1.2920 n         1 CDK     -0.369000
      4 C13         1.0850   -0.0100    2.5570 c3        1 CDK      0.068300
      5 C14         3.0180    0.7970    1.1910 c         1 CDK      0.674100
      6 O3          3.7060    1.0790    2.1770 o         1 CDK     -0.550500
      7 S1          3.4310    0.9690   -0.5040 ss        1 CDK     -0.049200
      8 C15         1.9160    0.3500   -1.0170 cd        1 CDK     -0.292200
      9 C           1.6440    0.2470   -2.4290 ca        1 CDK      0.604100
     10 N           0.4110   -0.1040   -2.8800 nb        1 CDK     -0.737000
     11 C12         2.7040    0.5320   -3.3390 ca        1 CDK     -0.368600
     12 C11         2.4270    0.4440   -4.7060 ca        1 CDK      0.462200
     13 N3          1.2160    0.1020   -5.1940 nb        1 CDK     -0.729000
     14 C1          0.2490   -0.1630   -4.2520 ca        1 CDK      0.848900
     15 N1         -1.0480   -0.5860   -4.6820 nh        1 CDK     -0.694300
     16 C2         -1.6530   -0.3310   -5.8750 ca        1 CDK      0.332600
     17 C9         -2.8950   -1.0040   -6.1590 ca        1 CDK     -0.220000
     18 C10        -3.5480   -0.8070   -7.3450 ca        1 CDK      0.053000
     19 C3         -1.1680    0.5780   -6.8670 ca        1 CDK     -0.220000
     20 C4         -1.8470    0.7550   -8.0440 ca        1 CDK      0.053000
     21 C5         -3.0580    0.0740   -8.3460 ca        1 CDK     -0.651500
     22 S          -3.7640    0.2180   -9.7420 sy        1 CDK      1.513200
     23 O1         -2.9990    0.7600  -10.7560 o         1 CDK     -0.587800
     24 O2         -4.7430   -0.7180  -10.0190 o         1 CDK     -0.587800
     25 N2         -4.9140    1.7280   -9.2930 n4        1 CDK     -0.688900
     26 C6         -4.9460    2.7690  -10.3380 c3        1 CDK      0.106800
     27 C7         -5.7320    4.0210   -9.9400 c3        1 CDK      0.104400
     28 O          -5.1990    4.4610   -8.6960 os        1 CDK     -0.458600
     29 C8         -5.6540    5.7580   -8.3250 c3        1 CDK      0.118700
     30 H171       -0.2320   -1.4830   -0.6640 hc        1 CDK      0.072033
     31 H172       -0.9320    0.1920   -0.5420 hc        1 CDK      0.072033
     32 H173       -0.7000   -0.8100    0.9530 hc        1 CDK      0.072033
     33 H131        0.8600   -1.1050    2.6560 h1        1 CDK      0.067033
     34 H132        0.1310    0.5760    2.6510 h1        1 CDK      0.067033
     35 H133        1.7880    0.2970    3.3790 h1        1 CDK      0.067033
     36 H12         3.7060    0.8070   -2.9780 ha        1 CDK      0.180000
     37 H11         3.2030    0.6480   -5.4690 h4        1 CDK      0.048100
     38 H1         -1.5510   -1.1450   -4.0180 hn        1 CDK      0.475800
     39 H9         -3.3180   -1.7060   -5.4200 ha        1 CDK      0.178000
     40 H3         -0.2370    1.1460   -6.7040 ha        1 CDK      0.178000
     41 H10        -4.4830   -1.3660   -7.5470 ha        1 CDK      0.162000
     42 H4         -1.4320    1.4460   -8.8030 ha        1 CDK      0.162000
     43 H2         -5.8610    1.3890   -9.1390 hn        1 CDK      0.444300
     44 H61C       -5.4050    2.3330  -11.2700 hx        1 CDK      0.110200
     45 H62C       -3.8770    3.0600  -10.5640 hx        1 CDK      0.110200
     46 H71C       -5.5950    4.8030  -10.7340 h1        1 CDK      0.065700
     47 H72C       -6.8260    3.7990   -9.8190 h1        1 CDK      0.065700
     48 H81C       -5.1600    5.9470   -7.3390 h1        1 CDK      0.053033
     49 H82C       -5.3300    6.5140   -9.0810 h1        1 CDK      0.053033
     50 H83C       -6.7660    5.7640   -8.2210 h1        1 CDK      0.053033
     51 H22        -4.6080    2.1640   -8.4230 hn        1 CDK      0.444300
@<TRIPOS>BOND
     1    1    2 1   
     2    1   30 1   
     3    1   31 1   
     4    1   32 1   
     5    2    3 1   
     6    2    8 2   
     7    3    4 1   
     8    3    5 1   
     9    4   33 1   
    10    4   34 1   
    11    4   35 1   
    12    5    6 2   
    13    5    7 1   
    14    7    8 1   
    15    8    9 1   
    16    9   10 ar  
    17    9   11 ar  
    18   10   14 ar  
    19   11   12 ar  
    20   11   36 1   
    21   12   13 ar  
    22   12   37 1   
    23   13   14 ar  
    24   14   15 1   
    25   15   16 1   
    26   15   38 1   
    27   16   17 ar  
    28   16   19 ar  
    29   17   18 ar  
    30   17   39 1   
    31   18   21 ar  
    32   18   41 1   
    33   19   20 ar  
    34   19   40 1   
    35   20   21 ar  
    36   20   42 1   
    37   21   22 1   
    38   22   23 2   
    39   22   24 2   
    40   22   25 1   
    41   25   26 1   
    42   25   43 1   
    43   25   51 1   
    44   26   27 1   
    45   26   44 1   
    46   26   45 1   
    47   27   28 1   
    48   27   46 1   
    49   27   47 1   
    50   28   29 1   
    51   29   48 1   
    52   29   49 1   
    53   29   50 1   
@<TRIPOS>SUBSTRUCTURE
     1 CDK         1 TEMP              0 ****  ****    0 ROOT
