@<TRIPOS>MOLECULE
CDK
   50    47     1     0     0
SMALL
bcc


@<TRIPOS>ATOM
      1 C17        -4.2670   -2.9270    4.1860 c3        1 CDK     -0.176000
      2 C16        -3.6400   -3.9990    3.2580 c2        1 CDK      0.101000
      3 N4         -3.9270   -5.5190    3.5160 n         1 CDK     -0.268000
      4 C13        -5.2330   -6.1010    3.7810 c3        1 CDK     -0.080000
      5 C14        -2.6340   -6.2890    2.8910 c2        1 CDK      0.146000
      6 O3         -2.5850   -7.4190    2.5790 o         1 CDK     -0.303000
      7 S1         -1.6330   -4.9900    2.2490 ss        1 CDK      0.367000
      8 C15        -2.4260   -3.7370    2.5900 c2        1 CDK     -0.389000
      9 C          -1.7040   -2.4080    2.7990 c2        1 CDK      0.153000
     10 N          -1.9350   -1.3780    1.9590 n1        1 CDK     -0.234000
     11 C12        -0.7450   -2.2960    3.7710 c2        1 CDK     -0.281000
     12 C11        -0.0110   -1.1180    3.8880 c1        1 CDK      0.004000
     13 N3         -0.2430   -0.1050    3.0560 n1        1 CDK     -0.214000
     14 C1         -1.2120   -0.2220    2.0760 c1        1 CDK      0.164000
     15 N1         -1.4170    0.8180    1.1770 n3        1 CDK     -0.249000
     16 C2         -0.2660    1.4060    0.4460 c2        1 CDK      0.138000
     17 C9          0.7320    2.0770    1.1450 c2        1 CDK     -0.153000
     18 C10         1.7300    2.7380    0.4610 c1        1 CDK      0.000000
     19 C3         -0.2560    1.4040   -0.9270 c1        1 CDK     -0.208000
     20 C4          0.7470    2.0690   -1.6150 c1        1 CDK      0.005000
     21 C5          1.7370    2.7340   -0.9190 c1        1 CDK     -0.856000
     22 S           3.0040    3.5880   -1.7960 s4        1 CDK      2.074800
     23 O1          4.1130    3.9250   -0.9310 o         1 CDK     -0.543400
     24 O2          2.5680    4.8810   -2.2010 o         1 CDK     -0.543400
     25 N2          3.5010    2.6960   -3.0850 n2        1 CDK     -0.886000
     26 C6          4.2780    3.3020   -4.1000 c3        1 CDK     -0.048000
     27 C7          3.7690    2.8150   -5.5070 c3        1 CDK     -0.045000
     28 O           4.3550    3.6250   -6.5350 os        1 CDK     -0.271000
     29 C8          3.3940    4.3440   -7.3150 c3        1 CDK     -0.080000
     30 H171       -5.2190   -3.1210    4.3130 hc        1 CDK      0.109667
     31 H172       -4.1630   -2.0140    3.7670 hc        1 CDK      0.109667
     32 H173       -3.8000   -2.9430    5.0810 hc        1 CDK      0.109667
     33 H131       -5.4240   -6.0560    4.7630 h1        1 CDK      0.099667
     34 H132       -5.9060   -5.6060    3.3000 h1        1 CDK      0.099667
     35 H133       -5.2450   -7.0110    3.4940 h1        1 CDK      0.099667
     36 H12        -0.5790   -3.0410    4.3800 ha        1 CDK      0.164000
     37 H11         0.7020   -1.0310    4.6090 ha        1 CDK      0.170000
     38 H1         -2.2540    1.1440    1.0460 hn        1 CDK      0.245000
     39 H9          0.7270    2.0800    2.1100 ha        1 CDK      0.164000
     40 H3         -0.9300    0.9510   -1.4010 ha        1 CDK      0.139000
     41 H10         2.4540    3.2240    0.9680 ha        1 CDK      0.153000
     42 H4          0.7530    2.0670   -2.5570 ha        1 CDK      0.154000
     43 H2          3.3760    1.7950   -3.0870 hn        1 CDK      0.243000
     44 H61C        5.2450    3.0420   -3.9810 h1        1 CDK      0.105000
     45 H62C        4.1910    4.2760   -4.0400 h1        1 CDK      0.105000
     46 H71C        2.7580    2.9000   -5.5480 h1        1 CDK      0.091000
     47 H72C        4.0310    1.8600   -5.6480 h1        1 CDK      0.091000
     48 H81C        2.8380    4.9750   -6.6870 h1        1 CDK      0.075333
     49 H82C        3.8710    4.9000   -8.0180 h1        1 CDK      0.075333
     50 H83C        2.7780    3.6950   -7.7630 h1        1 CDK      0.075333
@<TRIPOS>BOND
     1    1    2 1   
     2    1   30 1   
     3    1   31 1   
     4    1   32 1   
     5    2    3 1   
     6    2    8 1   
     7    3    4 1   
     8    3    5 1   
     9    4   33 1   
    10    4   34 1   
    11    4   35 1   
    12    5    6 1   
    13    5    7 1   
    14    7    8 1   
    15    8    9 1   
    16    9   10 1   
    17    9   11 1   
    18   11   12 1   
    19   11   36 1   
    20   12   37 1   
    21   13   14 1   
    22   14   15 1   
    23   15   16 1   
    24   15   38 1   
    25   16   17 1   
    26   16   19 1   
    27   17   18 1   
    28   17   39 1   
    29   18   41 1   
    30   19   40 1   
    31   20   21 1   
    32   20   42 1   
    33   21   22 1   
    34   22   23 1   
    35   22   24 1   
    36   25   26 1   
    37   25   43 1   
    38   26   27 1   
    39   26   44 1   
    40   26   45 1   
    41   27   28 1   
    42   27   46 1   
    43   27   47 1   
    44   28   29 1   
    45   29   48 1   
    46   29   49 1   
    47   29   50 1   
@<TRIPOS>SUBSTRUCTURE
     1 CDK         1 TEMP              0 ****  ****    0 ROOT
