@<TRIPOS>MOLECULE
CDK
   50    52     1     0     0
SMALL
bcc


@<TRIPOS>ATOM
      1 C17         4.9110   -2.0430   -1.1470 c3        1 CDK     -0.052900
      2 C16         5.7550   -0.9200   -0.6720 cc        1 CDK      0.098400
      3 N4          7.1490   -0.9440   -0.8040 n         1 CDK     -0.376000
      4 C13         7.8770   -2.0230   -1.4010 c3        1 CDK      0.075300
      5 C14         7.7850    0.2120   -0.2890 c         1 CDK      0.670100
      6 O3          9.0120    0.3740   -0.3160 o         1 CDK     -0.579500
      7 S1          6.5670    1.2960    0.3520 ss        1 CDK     -0.055200
      8 C15         5.2890    0.2310   -0.0650 cd        1 CDK     -0.256200
      9 C           3.9250    0.6150    0.2370 ca        1 CDK      0.590100
     10 N           2.8860   -0.0870   -0.2760 nb        1 CDK     -0.761000
     11 C12         3.7200    1.7500    1.0670 ca        1 CDK     -0.411600
     12 C11         2.3940    2.1130    1.3340 ca        1 CDK      0.469200
     13 N3          1.3290    1.4470    0.8570 nb        1 CDK     -0.736000
     14 C1          1.6090    0.3470    0.0630 ca        1 CDK      0.879900
     15 N1          0.5530   -0.4450   -0.4390 nh        1 CDK     -0.722300
     16 C2         -0.8000   -0.0680   -0.4010 ca        1 CDK      0.213600
     17 C9         -1.5910   -0.2490   -1.5650 ca        1 CDK     -0.179500
     18 C10        -2.9490    0.0270   -1.5370 ca        1 CDK      0.003000
     19 C3         -1.4300    0.3920    0.7760 ca        1 CDK     -0.179500
     20 C4         -2.7920    0.6670    0.7700 ca        1 CDK      0.003000
     21 C5         -3.5770    0.4870   -0.3730 ca        1 CDK     -0.405500
     22 S          -5.2220    0.8500   -0.3660 sy        1 CDK      1.521200
     23 O1         -5.4720    1.7940    0.6570 o         1 CDK     -0.658800
     24 O2         -5.6020    1.2050   -1.6790 o         1 CDK     -0.658800
     25 N2         -5.9150   -0.5590    0.0080 n3        1 CDK     -0.920100
     26 C6         -6.3060   -0.9620    1.3240 c3        1 CDK      0.228800
     27 C7         -7.7580   -1.4520    1.4230 c3        1 CDK      0.109400
     28 O          -7.8400   -2.6580    0.6670 os        1 CDK     -0.429600
     29 C8         -9.1490   -3.1990    0.6450 c3        1 CDK      0.116700
     30 H171        5.5110   -2.9180   -1.4980 hc        1 CDK      0.069700
     31 H172        4.2430   -2.3840   -0.3160 hc        1 CDK      0.069700
     32 H173        4.2700   -1.6890   -1.9950 hc        1 CDK      0.069700
     33 H131        7.5280   -2.1900   -2.4560 h1        1 CDK      0.060367
     34 H132        8.9710   -1.7630   -1.4110 h1        1 CDK      0.060367
     35 H133        7.7290   -2.9670   -0.8110 h1        1 CDK      0.060367
     36 H12         4.5630    2.3160    1.4800 ha        1 CDK      0.163000
     37 H11         2.1570    2.9910    1.9650 h4        1 CDK      0.034100
     38 H1          0.8030   -1.0330   -1.2090 hn        1 CDK      0.445800
     39 H9         -1.1340   -0.6050   -2.5010 ha        1 CDK      0.151500
     40 H3         -0.8600    0.5360    1.7060 ha        1 CDK      0.151500
     41 H10        -3.5470   -0.0950   -2.4580 ha        1 CDK      0.153500
     42 H4         -3.2660    1.0500    1.6920 ha        1 CDK      0.153500
     43 H2         -6.1380   -1.2370   -0.6830 hn        1 CDK      0.458800
     44 H61C       -5.6360   -1.7980    1.6780 h1        1 CDK      0.059700
     45 H62C       -6.1950   -0.0860    2.0290 h1        1 CDK      0.059700
     46 H71C       -8.0030   -1.6640    2.4980 h1        1 CDK      0.039200
     47 H72C       -8.4810   -0.6970    1.0180 h1        1 CDK      0.039200
     48 H81C       -9.4900   -3.4470    1.6810 h1        1 CDK      0.035033
     49 H82C       -9.8640   -2.4820    0.1700 h1        1 CDK      0.035033
     50 H83C       -9.0570   -4.1280    0.0290 h1        1 CDK      0.035033
@<TRIPOS>BOND
     1    1    2 1   
     2    1   30 1   
     3    1   31 1   
     4    1   32 1   
     5    2    3 1   
     6    2    8 2   
     7    3    4 1   
     8    3    5 1   
     9    4   33 1   
    10    4   34 1   
    11    4   35 1   
    12    5    6 2   
    13    5    7 1   
    14    7    8 1   
    15    8    9 1   
    16    9   10 ar  
    17    9   11 ar  
    18   10   14 ar  
    19   11   12 ar  
    20   11   36 1   
    21   12   13 ar  
    22   12   37 1   
    23   13   14 ar  
    24   14   15 1   
    25   15   16 1   
    26   15   38 1   
    27   16   17 ar  
    28   16   19 ar  
    29   17   18 ar  
    30   17   39 1   
    31   18   21 ar  
    32   18   41 1   
    33   19   20 ar  
    34   19   40 1   
    35   20   21 ar  
    36   20   42 1   
    37   21   22 1   
    38   22   23 2   
    39   22   24 2   
    40   22   25 1   
    41   25   26 1   
    42   25   43 1   
    43   26   27 1   
    44   26   44 1   
    45   26   45 1   
    46   27   28 1   
    47   27   46 1   
    48   27   47 1   
    49   28   29 1   
    50   29   48 1   
    51   29   49 1   
    52   29   50 1   
@<TRIPOS>SUBSTRUCTURE
     1 CDK         1 TEMP              0 ****  ****    0 ROOT
