@<TRIPOS>MOLECULE
CDM
   57    58     1     0     0
SMALL
bcc


@<TRIPOS>ATOM
      1 N1          0.0000    0.0000    0.0000 n         1 CDM      0.081000
      2 C2          1.3450    0.0000    0.0000 c         1 CDM      0.702900
      3 N3          2.0330    0.0000    1.1400 nc        1 CDM     -0.607100
      4 C4          1.4070   -0.0110    2.3090 cd        1 CDM      0.045500
      5 C5         -0.0030   -0.0170    2.3440 cd        1 CDM     -0.326600
      6 C6         -0.6880   -0.0110    1.1760 cc        1 CDM     -0.100400
      7 O2          1.9440    0.0100   -1.0620 o         1 CDM     -0.647500
      8 N4          2.1280   -0.0170    3.4810 nz        1 CDM      0.276400
      9 C1'        -0.7290    0.0060   -1.2700 c3        1 CDM      0.204500
     10 C2'        -0.2980    1.2090   -2.1450 c3        1 CDM      0.102100
     11 O2'        -1.0560    2.3750   -1.8170 oh        1 CDM     -0.575800
     12 C3'        -0.6410    0.7110   -3.5740 c3        1 CDM      0.137100
     13 C4'        -0.6960   -0.8220   -3.4320 c3        1 CDM      0.148100
     14 O4'        -0.3660   -1.1410   -2.0700 os        1 CDM     -0.356600
     15 O3'        -1.9050    1.2280   -3.9930 oh        1 CDM     -0.573800
     16 C5'         0.3190   -1.4690   -4.3770 c3        1 CDM      0.243400
     17 O5'         0.2670   -2.8890   -4.2340 os        1 CDM     -0.464200
     18 PA          1.3540   -3.5000   -5.2510 p5        1 CDM      0.995800
     19 O1A         2.8150   -2.9420   -4.8730 o         1 CDM     -0.536000
     20 O2A         1.0140   -3.0990   -6.6340 o         1 CDM     -0.536000
     21 O3A         1.3480   -5.1050   -5.1420 os        1 CDM     -0.474800
     22 PB          2.4520   -5.6480   -6.1800 p5        1 CDM      0.979800
     23 O1B         3.8940   -5.0540   -5.7880 o         1 CDM     -0.566500
     24 O2B         2.0950   -5.2130   -7.5490 o         1 CDM     -0.566500
     25 O3B         2.5000   -7.2550   -6.1240 os        1 CDM     -0.480200
     26 C1M         3.4910   -7.6730   -7.0620 c3        1 CDM      0.221400
     27 C2M         3.5890   -9.2000   -7.0580 c3        1 CDM      0.178100
     28 O2M         2.3260   -9.7580   -7.4220 oh        1 CDM     -0.595800
     29 C3M         4.6520   -9.6460   -8.0630 c3        1 CDM      0.157800
     30 C4M         4.7500  -11.1740   -8.0580 c3        1 CDM      0.186400
     31 C5M         4.2660   -9.1660   -9.4620 c3        1 CDM     -0.044100
     32 O3M         5.9160   -9.0890   -7.6980 oh        1 CDM     -0.580800
     33 O4M         5.7420  -11.5910   -8.9960 oh        1 CDM     -0.602800
     34 H5         -0.5290   -0.0260    3.2910 ha        1 CDM      0.105000
     35 H6         -1.7600    0.1440    1.1780 h4        1 CDM      0.129000
     36 H41         1.8370    0.7500    4.0550 hn        1 CDM      0.166467
     37 H42         3.1030    0.0730    3.2730 hn        1 CDM      0.166467
     38 H1'        -1.7990    0.0250   -1.1010 h2        1 CDM      0.036700
     39 H2'         0.7660    1.3920   -2.0480 h1        1 CDM      0.069700
     40 HO'2       -0.5040    3.1370   -1.8800 ho        1 CDM      0.383000
     41 H3'         0.1400    0.9960   -4.2680 h1        1 CDM      0.025700
     42 H4'        -1.6940   -1.1750   -3.6590 h1        1 CDM      0.031700
     43 H3T        -1.8080    1.6580   -4.8270 ho        1 CDM      0.386000
     44 H5'1        1.3140   -1.1180   -4.1330 h1        1 CDM      0.017700
     45 H5'2        0.0820   -1.2000   -5.4000 h1        1 CDM      0.017700
     46 H1M1        4.4500   -7.2490   -6.7870 h1        1 CDM      0.025200
     47 H1M2        3.2170   -7.3320   -8.0530 h1        1 CDM      0.025200
     48 H2M1        3.8630   -9.5410   -6.0670 h1        1 CDM     -0.000300
     49 H2M2        1.8620  -10.0210   -6.6440 ho        1 CDM      0.391000
     50 H4M1        5.0240  -11.5150   -7.0670 h1        1 CDM     -0.004300
     51 H4M2        3.7920  -11.5980   -8.3330 h1        1 CDM     -0.004300
     52 H5M1        3.1920   -9.2350   -9.5840 hc        1 CDM      0.022367
     53 H5M2        4.5780   -8.1360   -9.5890 hc        1 CDM      0.022367
     54 H5M3        4.7550   -9.7850  -10.2040 hc        1 CDM      0.022367
     55 H3M         6.5490   -9.2780   -8.3710 ho        1 CDM      0.394000
     56 H4M         5.8800  -12.5200   -8.9160 ho        1 CDM      0.381000
     57 H43         1.9680   -0.8770    3.9660 hn        1 CDM      0.166467
@<TRIPOS>BOND
     1    1    2 1   
     2    1    6 1   
     3    1    9 1   
     4    2    3 1   
     5    2    7 2   
     6    3    4 2   
     7    4    5 1   
     8    4    8 1   
     9    5    6 2   
    10    5   34 1   
    11    6   35 1   
    12    8   36 1   
    13    8   37 1   
    14    8   57 1   
    15    9   10 1   
    16    9   14 1   
    17    9   38 1   
    18   10   11 1   
    19   10   12 1   
    20   10   39 1   
    21   11   40 1   
    22   12   13 1   
    23   12   15 1   
    24   12   41 1   
    25   13   14 1   
    26   13   16 1   
    27   13   42 1   
    28   15   43 1   
    29   16   17 1   
    30   16   44 1   
    31   16   45 1   
    32   17   18 1   
    33   18   19 1   
    34   18   20 1   
    35   18   21 1   
    36   21   22 1   
    37   22   23 1   
    38   22   24 1   
    39   22   25 1   
    40   25   26 1   
    41   26   27 1   
    42   26   46 1   
    43   26   47 1   
    44   27   28 1   
    45   27   29 1   
    46   27   48 1   
    47   28   49 1   
    48   29   30 1   
    49   29   31 1   
    50   29   32 1   
    51   30   33 1   
    52   30   50 1   
    53   30   51 1   
    54   31   52 1   
    55   31   53 1   
    56   31   54 1   
    57   32   55 1   
    58   33   56 1   
@<TRIPOS>SUBSTRUCTURE
     1 CDM         1 TEMP              0 ****  ****    0 ROOT
