@<TRIPOS>MOLECULE
CDM
   56    57     1     0     0
SMALL
bcc


@<TRIPOS>ATOM
      1 N1         -0.6530   -0.1750   -4.1430 n         1 CDM     -0.384000
      2 C2         -1.4430    0.4670   -5.1590 c         1 CDM      0.825900
      3 N3         -2.8100    0.6850   -4.9680 nc        1 CDM     -0.754100
      4 C4         -3.3600    0.3100   -3.7920 cd        1 CDM      0.713500
      5 C5         -2.5850   -0.2940   -2.7350 cd        1 CDM     -0.421600
      6 C6         -1.2400   -0.5110   -2.9510 cc        1 CDM      0.113600
      7 O2         -0.8550    0.8350   -6.2090 o         1 CDM     -0.702500
      8 N4         -4.7390    0.4660   -3.5950 nh        1 CDM     -0.895800
      9 C1'         0.7770   -0.3480   -4.3960 c3        1 CDM      0.266500
     10 C2'         1.6240    0.9230   -4.0670 c3        1 CDM      0.079100
     11 O2'         2.0760    1.5340   -5.2590 oh        1 CDM     -0.613800
     12 C3'         2.8280    0.3970   -3.2590 c3        1 CDM      0.093100
     13 C4'         2.4060   -1.0090   -2.8070 c3        1 CDM      0.112100
     14 O4'         1.3150   -1.4430   -3.6540 os        1 CDM     -0.429600
     15 O3'         3.9870    0.2630   -4.0670 oh        1 CDM     -0.606800
     16 C5'         1.9300   -1.0620   -1.3470 c3        1 CDM      0.177400
     17 O5'         2.9520   -0.7290   -0.4710 os        1 CDM     -0.583200
     18 PA          2.7280    0.6270    0.4700 p5        1 CDM      1.593800
     19 O1A         3.6180    0.4980    1.6320 o         1 CDM     -0.864500
     20 O2A         2.7390    1.7480   -0.4920 o         1 CDM     -0.864500
     21 O3A         1.1710    0.3690    0.9120 os        1 CDM     -0.827800
     22 PB         -0.4000    0.1020    1.1660 p5        1 CDM      1.612800
     23 O1B        -1.0010   -0.3780   -0.0960 o         1 CDM     -0.889500
     24 O2B        -0.9910    1.1380    2.0440 o         1 CDM     -0.889500
     25 O3B        -0.3000   -1.2080    2.1930 os        1 CDM     -0.587200
     26 C1M         0.0890   -0.9070    3.4930 c3        1 CDM      0.167400
     27 C2M        -1.0870   -1.1330    4.4670 c3        1 CDM      0.087100
     28 O2M        -0.9640   -2.3920    5.1260 oh        1 CDM     -0.635800
     29 C3M        -1.1750   -0.0430    5.5550 c3        1 CDM      0.135800
     30 C4M        -2.1960   -0.4850    6.6240 c3        1 CDM      0.143400
     31 C5M         0.1750    0.2230    6.2050 c3        1 CDM     -0.112100
     32 O3M        -1.7010    1.1650    5.0190 oh        1 CDM     -0.658800
     33 O4M        -2.4850    0.5400    7.5560 oh        1 CDM     -0.634800
     34 H5         -2.9960   -0.5300   -1.7430 ha        1 CDM      0.193000
     35 H6         -0.6050   -0.9500   -2.1410 h4        1 CDM      0.249000
     36 H41        -5.2010    1.1090   -4.1980 hn        1 CDM      0.399300
     37 H42        -4.9930    0.5480   -2.6360 hn        1 CDM      0.399300
     38 H1'         0.8860   -0.6230   -5.4890 h2        1 CDM      0.088700
     39 H2'         1.0500    1.6670   -3.4520 h1        1 CDM      0.081700
     40 HO'2        1.2850    1.7010   -5.7930 ho        1 CDM      0.424000
     41 H3'         3.0390    1.0570   -2.3600 h1        1 CDM      0.165700
     42 H4'         3.2280   -1.7510   -2.9860 h1        1 CDM      0.077700
     43 H3T         4.1620    1.1410   -4.4260 ho        1 CDM      0.404000
     44 H5'1        1.6070   -2.1230   -1.1430 h1        1 CDM      0.042200
     45 H5'2        1.0410   -0.3810   -1.1970 h1        1 CDM      0.042200
     46 H1M1        0.4460    0.1590    3.5580 h1        1 CDM      0.042200
     47 H1M2        0.9330   -1.5950    3.7850 h1        1 CDM      0.042200
     48 H2M1       -2.0600   -1.1320    3.8950 h1        1 CDM      0.057700
     49 H2M2       -0.6880   -3.0170    4.4440 ho        1 CDM      0.410000
     50 H4M1       -3.1470   -0.8020    6.1200 h1        1 CDM      0.040700
     51 H4M2       -1.7760   -1.3340    7.2230 h1        1 CDM      0.040700
     52 H5M1        0.6800   -0.7480    6.4220 hc        1 CDM      0.042033
     53 H5M2        0.8210    0.8310    5.5280 hc        1 CDM      0.042033
     54 H5M3        0.0280    0.7860    7.1580 hc        1 CDM      0.042033
     55 H3M        -1.3850    1.2710    4.1000 ho        1 CDM      0.488000
     56 H4M        -2.5620    1.3630    7.0550 ho        1 CDM      0.418000
@<TRIPOS>BOND
     1    1    2 1   
     2    1    6 1   
     3    1    9 1   
     4    2    3 1   
     5    2    7 2   
     6    3    4 2   
     7    4    5 1   
     8    4    8 1   
     9    5    6 2   
    10    5   34 1   
    11    6   35 1   
    12    8   36 1   
    13    8   37 1   
    14    9   10 1   
    15    9   14 1   
    16    9   38 1   
    17   10   11 1   
    18   10   12 1   
    19   10   39 1   
    20   11   40 1   
    21   12   13 1   
    22   12   15 1   
    23   12   41 1   
    24   13   14 1   
    25   13   16 1   
    26   13   42 1   
    27   15   43 1   
    28   16   17 1   
    29   16   44 1   
    30   16   45 1   
    31   17   18 1   
    32   18   19 1   
    33   18   20 1   
    34   18   21 1   
    35   21   22 1   
    36   22   23 1   
    37   22   24 1   
    38   22   25 1   
    39   25   26 1   
    40   26   27 1   
    41   26   46 1   
    42   26   47 1   
    43   27   28 1   
    44   27   29 1   
    45   27   48 1   
    46   28   49 1   
    47   29   30 1   
    48   29   31 1   
    49   29   32 1   
    50   30   33 1   
    51   30   50 1   
    52   30   51 1   
    53   31   52 1   
    54   31   53 1   
    55   31   54 1   
    56   32   55 1   
    57   33   56 1   
@<TRIPOS>SUBSTRUCTURE
     1 CDM         1 TEMP              0 ****  ****    0 ROOT
