@<TRIPOS>MOLECULE
CDM
   56    56     1     0     0
SMALL
bcc


@<TRIPOS>ATOM
      1 N1         -0.7660   -5.3700    1.9600 n         1 CDM     -0.279000
      2 C2          0.6410   -5.6900    2.2130 c2        1 CDM      0.352000
      3 N3          1.1710   -5.6440    3.5800 n2        1 CDM     -0.337000
      4 C4          0.3410   -5.2270    4.6490 c1        1 CDM      0.202000
      5 C5         -1.0470   -4.8120    4.3820 c1        1 CDM     -0.330000
      6 C6         -1.5860   -4.8930    3.0150 c2        1 CDM      0.065000
      7 O2          1.3540   -6.0470    1.2990 o         1 CDM     -0.409000
      8 N4          0.8190   -5.2830    5.9810 n3        1 CDM     -0.352000
      9 C1'        -1.3430   -5.6450    0.6690 c3        1 CDM      0.114000
     10 C2'        -2.6280   -4.7080    0.4240 c3        1 CDM     -0.002000
     11 O2'        -3.4880   -5.2920   -0.6090 oh        1 CDM     -0.325000
     12 C3'        -2.1670   -3.5650    0.0240 c3        1 CDM     -0.020000
     13 C4'        -0.8230   -3.8950   -0.6420 c3        1 CDM     -0.040000
     14 O4'        -0.5080   -5.3600   -0.2550 os        1 CDM     -0.286000
     15 O3'        -3.1040   -2.9450   -0.9710 oh        1 CDM     -0.364000
     16 C5'         0.1740   -3.0420   -0.1670 c3        1 CDM      0.051000
     17 O5'         0.1130   -1.8100   -0.8630 os        1 CDM     -0.751000
     18 PA          1.4220   -0.9010   -0.9130 p5        1 CDM      2.088000
     19 O1A         1.8830   -0.6040    0.4980 o         1 CDM     -0.893500
     20 O2A         2.5130   -1.6320   -1.6540 o         1 CDM     -0.893500
     21 O3A         1.0930    0.4670   -1.6640 os        1 CDM     -1.286000
     22 PB          1.8770    1.8280   -1.4030 p5        1 CDM      2.067000
     23 O1B         3.2000    1.7970   -2.1350 o         1 CDM     -0.866500
     24 O2B         2.1260    1.9900    0.0840 o         1 CDM     -0.866500
     25 O3B         1.0030    3.0580   -1.9340 os        1 CDM     -0.761000
     26 C1M         1.4750    4.3870   -1.6920 c3        1 CDM      0.027000
     27 C2M         0.3530    5.3770   -1.9500 c3        1 CDM     -0.022000
     28 O2M        -0.5820    5.3030   -0.9140 oh        1 CDM     -0.363000
     29 C3M         0.9240    6.7820   -2.0170 c3        1 CDM      0.061000
     30 C4M         0.0290    7.6480   -2.8560 c3        1 CDM     -0.043000
     31 C5M         1.0160    7.3610   -0.6110 c3        1 CDM     -0.202000
     32 O3M         2.2120    6.7390   -2.5920 oh        1 CDM     -0.375000
     33 O4M         0.6520    8.8870   -3.0780 oh        1 CDM     -0.361000
     34 H5         -1.6240   -4.5310    5.1190 ha        1 CDM      0.240000
     35 H6         -2.5180   -4.6810    2.8470 h4        1 CDM      0.221000
     36 H41         1.6820   -5.5400    6.1470 hn        1 CDM      0.209000
     37 H42         0.2650   -5.0690    6.6760 hn        1 CDM      0.209000
     38 H1'        -1.6000   -6.5870    0.6100 h2        1 CDM      0.156000
     39 H2'        -3.1260   -4.5970    1.2540 h1        1 CDM      0.133000
     40 HO'2       -4.2360   -5.5950   -0.2350 ho        1 CDM      0.214000
     41 H3'        -2.0320   -2.9680    0.7840 h1        1 CDM      0.160000
     42 H4'        -0.9010   -3.8130   -1.6120 h1        1 CDM      0.085000
     43 H3T        -2.7950   -3.0850   -1.7980 ho        1 CDM      0.268000
     44 H5'1        1.0510   -3.4530   -0.3100 h1        1 CDM      0.065500
     45 H5'2        0.0390   -2.8820    0.7960 h1        1 CDM      0.065500
     46 H1M1        1.7700    4.4630   -0.7610 h1        1 CDM      0.071500
     47 H1M2        2.2270    4.5810   -2.2910 h1        1 CDM      0.071500
     48 H2M1       -0.0830    5.1620   -2.7990 h1        1 CDM      0.115000
     49 H2M2       -1.3440    4.9570   -1.2250 ho        1 CDM      0.222000
     50 H4M1       -0.1380    7.2090   -3.7130 h1        1 CDM      0.092000
     51 H4M2       -0.8240    7.7890   -2.3880 h1        1 CDM      0.092000
     52 H5M1        1.3430    8.2860   -0.6580 hc        1 CDM      0.076667
     53 H5M2        1.6360    6.8210   -0.0740 hc        1 CDM      0.076667
     54 H5M3        0.1250    7.3490   -0.1930 hc        1 CDM      0.076667
     55 H3M         2.6190    7.5220   -2.4670 ho        1 CDM      0.270000
     56 H4M         0.1170    9.4040   -3.5640 ho        1 CDM      0.211000
@<TRIPOS>BOND
     1    1    2 1   
     2    1    6 1   
     3    1    9 1   
     4    2    3 1   
     5    2    7 1   
     6    3    4 1   
     7    4    8 1   
     8    5    6 1   
     9    5   34 1   
    10    6   35 1   
    11    8   36 1   
    12    8   37 1   
    13    9   10 1   
    14    9   14 1   
    15    9   38 1   
    16   10   11 1   
    17   10   12 1   
    18   10   39 1   
    19   11   40 1   
    20   12   13 1   
    21   12   15 1   
    22   12   41 1   
    23   13   14 1   
    24   13   16 1   
    25   13   42 1   
    26   15   43 1   
    27   16   17 1   
    28   16   44 1   
    29   16   45 1   
    30   17   18 1   
    31   18   19 1   
    32   18   20 1   
    33   18   21 1   
    34   21   22 1   
    35   22   23 1   
    36   22   24 1   
    37   22   25 1   
    38   25   26 1   
    39   26   27 1   
    40   26   46 1   
    41   26   47 1   
    42   27   28 1   
    43   27   29 1   
    44   27   48 1   
    45   28   49 1   
    46   29   30 1   
    47   29   31 1   
    48   29   32 1   
    49   30   33 1   
    50   30   50 1   
    51   30   51 1   
    52   31   52 1   
    53   31   53 1   
    54   31   54 1   
    55   32   55 1   
    56   33   56 1   
@<TRIPOS>SUBSTRUCTURE
     1 CDM         1 TEMP              0 ****  ****    0 ROOT
