@<TRIPOS>MOLECULE
CDO
   67    69     1     0     0
SMALL
bcc


@<TRIPOS>ATOM
      1 C1          0.7530   -1.0010    1.3710 ca        1 CDO     -0.195300
      2 C2          1.9400   -1.0230    2.1200 ca        1 CDO      0.292000
      3 N3          2.0020   -0.6500    3.4300 nb        1 CDO     -0.683000
      4 C4          0.8740   -0.2430    4.0200 ca        1 CDO      0.455200
      5 C5         -0.3710   -0.1740    3.3390 ca        1 CDO     -0.223600
      6 C6         -0.4240   -0.5690    2.0030 ca        1 CDO     -0.041000
      7 C7         -1.5640    0.4010    4.0280 c3        1 CDO      0.173100
      8 C8          3.1950   -1.5040    1.4610 ce        1 CDO      0.474200
      9 N9          3.3520   -2.3440    0.5110 n2        1 CDO     -0.694100
     10 N10         4.4440   -0.8960    2.0270 n4        1 CDO     -0.809600
     11 N11        -2.2190   -0.5240    4.9970 n4        1 CDO     -0.681800
     12 C12        -3.2580   -1.4220    4.4260 c         1 CDO      0.537100
     13 C13        -4.1710   -2.2060    5.3780 c3        1 CDO      0.079900
     14 O14        -3.3470   -1.5020    3.2060 o         1 CDO     -0.443100
     15 C15        -5.5940   -1.6860    5.1930 c2        1 CDO     -0.198200
     16 C16        -6.0980   -1.2920    6.3750 c2        1 CDO     -0.116200
     17 C17        -5.0850   -1.5020    7.4820 c3        1 CDO      0.093200
     18 N18        -3.9210   -2.0950    6.8140 n         1 CDO     -0.476800
     19 C19        -2.8020   -2.6090    7.4200 c         1 CDO      0.671100
     20 C20        -2.7740   -2.7860    8.9570 c3        1 CDO      0.075500
     21 O21        -1.8230   -2.9420    6.7230 o         1 CDO     -0.598100
     22 N22        -2.1740   -1.5870    9.6350 n4        1 CDO     -0.751000
     23 C23        -0.8940   -1.1040    9.0420 c3        1 CDO     -0.024200
     24 C24        -1.1700   -0.2370    7.7960 c         1 CDO      0.913600
     25 O25        -0.2710   -0.1180    6.9280 o         1 CDO     -0.824300
     26 O26        -2.3420    0.2410    7.6620 o         1 CDO     -0.824300
     27 C27        -2.0440   -4.0920    9.3010 c3        1 CDO     -0.102400
     28 C28        -2.6790   -4.8350   10.4690 c3        1 CDO     -0.079700
     29 C29        -2.6360   -4.0390   11.7650 c3        1 CDO     -0.074900
     30 C30        -3.1910   -4.8400   12.9280 c3        1 CDO     -0.078900
     31 C31        -2.4780   -6.1670   13.0820 c3        1 CDO     -0.082400
     32 C32        -2.5280   -6.9620   11.7950 c3        1 CDO     -0.078900
     33 C33        -1.9570   -6.1690   10.6380 c3        1 CDO     -0.074900
     34 H1          0.7250   -1.2990    0.3120 ha        1 CDO      0.172000
     35 H4          0.9550    0.0450    5.0950 h4        1 CDO      0.099100
     36 H6         -1.3740   -0.5430    1.4410 ha        1 CDO      0.183000
     37 H71        -2.3350    0.7260    3.2700 hx        1 CDO      0.125200
     38 H72        -1.2320    1.3040    4.6310 hx        1 CDO      0.125200
     39 HN9         2.5510   -2.7870    0.1090 hn        1 CDO      0.488400
     40 H101        5.2780   -1.1650    1.4860 hn        1 CDO      0.481467
     41 H102        4.5520   -1.2170    2.9990 hn        1 CDO      0.481467
     42 H11        -2.6410    0.0620    5.7620 hn        1 CDO      0.508800
     43 H13        -4.0710   -3.2870    5.0490 h1        1 CDO      0.136700
     44 H15        -6.0560   -1.6980    4.2030 ha        1 CDO      0.197000
     45 H16        -7.0870   -0.8790    6.5950 ha        1 CDO      0.197000
     46 H171       -4.7890   -0.5230    7.9570 h1        1 CDO      0.088700
     47 H172       -5.5010   -2.1990    8.2600 h1        1 CDO      0.088700
     48 H20        -3.8360   -2.8640    9.3510 hx        1 CDO      0.113700
     49 H22        -2.8470   -0.8020    9.5550 hn        1 CDO      0.469300
     50 H231       -0.3550   -0.4820    9.8110 hx        1 CDO      0.123200
     51 H232       -0.2540   -1.9820    8.7470 hx        1 CDO      0.123200
     52 H271       -0.9580   -3.9040    9.5130 hc        1 CDO      0.089700
     53 H272       -2.0770   -4.7600    8.3950 hc        1 CDO      0.089700
     54 H28        -3.7580   -5.0500   10.2220 hc        1 CDO      0.062700
     55 H291       -3.2530   -3.1070   11.6600 hc        1 CDO      0.034450
     56 H292       -1.5790   -3.7400   11.9890 hc        1 CDO      0.034450
     57 H301       -3.0830   -4.2430   13.8710 hc        1 CDO      0.057200
     58 H302       -4.2860   -5.0210   12.7650 hc        1 CDO      0.057200
     59 H311       -2.9600   -6.7550   13.9060 hc        1 CDO      0.058700
     60 H312       -1.4100   -5.9900   13.3760 hc        1 CDO      0.058700
     61 H321       -3.5890   -7.2480   11.5680 hc        1 CDO      0.057200
     62 H322       -1.9430   -7.9120   11.9150 hc        1 CDO      0.057200
     63 H331       -0.8650   -5.9800   10.8170 hc        1 CDO      0.034450
     64 H332       -2.0500   -6.7650    9.6930 hc        1 CDO      0.034450
     65 H103        4.3450    0.1250    2.0200 hn        1 CDO      0.481467
     66 H112       -1.4890   -1.1030    5.4650 hn        1 CDO      0.508800
     67 H222       -2.0280   -1.8270   10.6240 hn        1 CDO      0.469300
@<TRIPOS>BOND
     1    1    2 ar  
     2    1    6 ar  
     3    1   34 1   
     4    2    3 ar  
     5    2    8 1   
     6    3    4 ar  
     7    4    5 ar  
     8    4   35 1   
     9    5    6 ar  
    10    5    7 1   
    11    6   36 1   
    12    7   11 1   
    13    7   37 1   
    14    7   38 1   
    15    8    9 2   
    16    8   10 1   
    17    9   39 1   
    18   10   40 1   
    19   10   41 1   
    20   10   65 1   
    21   11   12 1   
    22   11   42 1   
    23   11   66 1   
    24   12   13 1   
    25   12   14 2   
    26   13   15 1   
    27   13   18 1   
    28   13   43 1   
    29   15   16 2   
    30   15   44 1   
    31   16   17 1   
    32   16   45 1   
    33   17   18 1   
    34   17   46 1   
    35   17   47 1   
    36   18   19 1   
    37   19   20 1   
    38   19   21 2   
    39   20   22 1   
    40   20   27 1   
    41   20   48 1   
    42   22   23 1   
    43   22   49 1   
    44   22   67 1   
    45   23   24 1   
    46   23   50 1   
    47   23   51 1   
    48   24   25 1   
    49   24   26 1   
    50   27   28 1   
    51   27   52 1   
    52   27   53 1   
    53   28   29 1   
    54   28   33 1   
    55   28   54 1   
    56   29   30 1   
    57   29   55 1   
    58   29   56 1   
    59   30   31 1   
    60   30   57 1   
    61   30   58 1   
    62   31   32 1   
    63   31   59 1   
    64   31   60 1   
    65   32   33 1   
    66   32   61 1   
    67   32   62 1   
    68   33   63 1   
    69   33   64 1   
@<TRIPOS>SUBSTRUCTURE
     1 CDO         1 TEMP              0 ****  ****    0 ROOT
