@<TRIPOS>MOLECULE
CDO
   67    69     1     0     0
SMALL
bcc


@<TRIPOS>ATOM
      1 C1          0.0540   -1.3370    1.3170 ca        1 CDO     -0.195300
      2 C2          1.3730   -1.4000    1.7960 ca        1 CDO      0.292000
      3 N3          1.7380   -0.9650    3.0350 nb        1 CDO     -0.683000
      4 C4          0.7890   -0.4510    3.8240 ca        1 CDO      0.455200
      5 C5         -0.5690   -0.3340    3.4210 ca        1 CDO     -0.224600
      6 C6         -0.9310   -0.7920    2.1560 ca        1 CDO     -0.043000
      7 C7         -1.5480    0.3620    4.3070 c3        1 CDO      0.172100
      8 C8          2.4270   -1.9980    0.9160 ce        1 CDO      0.474200
      9 N9          2.3260   -2.8890    0.0060 n2        1 CDO     -0.694100
     10 N10         3.8020   -1.4550    1.1700 nz        1 CDO     -0.809600
     11 N11        -2.0340   -0.4570    5.4550 ny        1 CDO     -0.682800
     12 C12        -3.1930   -1.3430    5.1700 c         1 CDO      0.540100
     13 C13        -3.7900   -2.1660    6.3180 c3        1 CDO      0.064900
     14 O14        -3.6020   -1.4110    4.0180 o         1 CDO     -0.443100
     15 C15        -5.3090   -2.0480    6.2580 c2        1 CDO     -0.190200
     16 C16        -5.7880   -1.6500    7.4490 c2        1 CDO     -0.122200
     17 C17        -4.6580   -1.4570    8.4380 c3        1 CDO      0.088200
     18 N18        -3.4340   -1.7640    7.6840 n         1 CDO     -0.461800
     19 C19        -2.2290   -2.1480    8.2340 c         1 CDO      0.667100
     20 C20        -1.9870   -2.0310    9.7560 c3        1 CDO      0.073500
     21 O21        -1.3190   -2.5500    7.4800 o         1 CDO     -0.594100
     22 N22        -1.1350   -0.8390   10.0900 ny        1 CDO     -0.749000
     23 C23         0.0480   -0.6320    9.2030 c3        1 CDO     -0.022200
     24 C24        -0.3840    0.0830    7.9050 c         1 CDO      0.915600
     25 O25         0.3330   -0.0190    6.8800 o         1 CDO     -0.822300
     26 O26        -1.5150    0.6690    7.9140 o         1 CDO     -0.822300
     27 C27        -1.3770   -3.3490   10.2520 c3        1 CDO     -0.103400
     28 C28        -2.4090   -4.4700   10.2380 c3        1 CDO     -0.064700
     29 C29        -3.3980   -4.3410   11.3880 c3        1 CDO     -0.075400
     30 C30        -4.3890   -5.4880   11.3870 c3        1 CDO     -0.077400
     31 C31        -3.6820   -6.8260   11.4410 c3        1 CDO     -0.083400
     32 C32        -2.6770   -6.9610   10.3160 c3        1 CDO     -0.077400
     33 C33        -1.6890   -5.8130   10.3150 c3        1 CDO     -0.075400
     34 H1         -0.2200   -1.6850    0.3100 ha        1 CDO      0.172000
     35 H4          1.1190   -0.1110    4.8340 h4        1 CDO      0.101100
     36 H6         -1.9780   -0.7290    1.8080 ha        1 CDO      0.183000
     37 H71        -1.0400    1.2680    4.7660 hx        1 CDO      0.127200
     38 H72        -2.4440    0.7020    3.7090 hx        1 CDO      0.127200
     39 HN9         1.4340   -3.2910   -0.1920 hn        1 CDO      0.488400
     40 H101        4.4830   -1.8070    0.4820 hn        1 CDO      0.481467
     41 H102        3.7640   -0.4300    1.1230 hn        1 CDO      0.481467
     42 H11        -2.2890    0.2110    6.2280 hn        1 CDO      0.511300
     43 H13        -3.4470   -3.2290    6.1150 h1        1 CDO      0.131700
     44 H15        -5.8390   -2.2850    5.3320 ha        1 CDO      0.199000
     45 H16        -6.8260   -1.4760    7.7470 ha        1 CDO      0.198000
     46 H171       -4.7860   -2.1570    9.3110 h1        1 CDO      0.087700
     47 H172       -4.6150   -0.3940    8.8050 h1        1 CDO      0.087700
     48 H20        -2.9660   -1.8610   10.3030 hx        1 CDO      0.112700
     49 H22        -1.7240    0.0110    9.9860 hn        1 CDO      0.468800
     50 H231        0.7950    0.0090    9.7480 hx        1 CDO      0.123700
     51 H232        0.5090   -1.6250    8.9450 hx        1 CDO      0.123700
     52 H271       -0.5120   -3.6280    9.5900 hc        1 CDO      0.083200
     53 H272       -0.9890   -3.2260   11.2990 hc        1 CDO      0.083200
     54 H28        -2.9760   -4.4300    9.2660 hc        1 CDO      0.042700
     55 H291       -2.8410   -4.3320   12.3620 hc        1 CDO      0.042950
     56 H292       -3.9580   -3.3720   11.3080 hc        1 CDO      0.042950
     57 H301       -5.0720   -5.3880   12.2720 hc        1 CDO      0.052200
     58 H302       -5.0230   -5.4360   10.4640 hc        1 CDO      0.052200
     59 H311       -4.4380   -7.6520   11.3700 hc        1 CDO      0.059700
     60 H312       -3.1580   -6.9350   12.4280 hc        1 CDO      0.059700
     61 H321       -2.1180   -7.9280   10.4260 hc        1 CDO      0.052200
     62 H322       -3.2160   -6.9940    9.3330 hc        1 CDO      0.052200
     63 H331       -0.9950   -5.9170    9.4410 hc        1 CDO      0.042950
     64 H332       -1.0690   -5.8490   11.2490 hc        1 CDO      0.042950
     65 H103        4.0960   -1.7370    2.1150 hn        1 CDO      0.481467
     66 H112       -1.2440   -1.0240    5.8310 hn        1 CDO      0.511300
     67 H222       -0.8260   -0.9310   11.0630 hn        1 CDO      0.468800
@<TRIPOS>BOND
     1    1    2 ar  
     2    1    6 ar  
     3    1   34 1   
     4    2    3 ar  
     5    2    8 1   
     6    3    4 ar  
     7    4    5 ar  
     8    4   35 1   
     9    5    6 ar  
    10    5    7 1   
    11    6   36 1   
    12    7   11 1   
    13    7   37 1   
    14    7   38 1   
    15    8    9 2   
    16    8   10 1   
    17    9   39 1   
    18   10   40 1   
    19   10   41 1   
    20   10   65 1   
    21   11   12 1   
    22   11   42 1   
    23   11   66 1   
    24   12   13 1   
    25   12   14 2   
    26   13   15 1   
    27   13   18 1   
    28   13   43 1   
    29   15   16 2   
    30   15   44 1   
    31   16   17 1   
    32   16   45 1   
    33   17   18 1   
    34   17   46 1   
    35   17   47 1   
    36   18   19 1   
    37   19   20 1   
    38   19   21 2   
    39   20   22 1   
    40   20   27 1   
    41   20   48 1   
    42   22   23 1   
    43   22   49 1   
    44   22   67 1   
    45   23   24 1   
    46   23   50 1   
    47   23   51 1   
    48   24   25 1   
    49   24   26 1   
    50   27   28 1   
    51   27   52 1   
    52   27   53 1   
    53   28   29 1   
    54   28   33 1   
    55   28   54 1   
    56   29   30 1   
    57   29   55 1   
    58   29   56 1   
    59   30   31 1   
    60   30   57 1   
    61   30   58 1   
    62   31   32 1   
    63   31   59 1   
    64   31   60 1   
    65   32   33 1   
    66   32   61 1   
    67   32   62 1   
    68   33   63 1   
    69   33   64 1   
@<TRIPOS>SUBSTRUCTURE
     1 CDO         1 TEMP              0 ****  ****    0 ROOT
