@<TRIPOS>MOLECULE
CDO
   64    66     1     0     0
SMALL
bcc


@<TRIPOS>ATOM
      1 C1          4.8400   -0.3140   -1.0200 ca        1 CDO     -0.241300
      2 C2          4.2830   -1.5610   -1.3550 ca        1 CDO      0.292000
      3 N3          3.3310   -2.1760   -0.6090 nb        1 CDO     -0.678000
      4 C4          2.9290   -1.5600    0.5140 ca        1 CDO      0.420200
      5 C5          3.4590   -0.3230    0.9520 ca        1 CDO     -0.204600
      6 C6          4.4100    0.3130    0.1530 ca        1 CDO     -0.080000
      7 C7          3.0190    0.2700    2.2610 c3        1 CDO      0.145300
      8 C8          4.7840   -2.2610   -2.5990 ce        1 CDO      0.558200
      9 N9          6.0460   -2.4900   -2.8270 n2        1 CDO     -0.869100
     10 N10         3.7880   -2.5860   -3.5330 nh        1 CDO     -0.891800
     11 N11         1.9280    1.2000    2.1800 n         1 CDO     -0.532900
     12 C12         2.0530    2.4460    1.6370 c         1 CDO      0.659100
     13 C13         0.7950    3.3270    1.4590 c3        1 CDO      0.065900
     14 O14         3.1610    2.9410    1.3170 o         1 CDO     -0.670100
     15 C15         0.6940    4.2590    2.6600 c2        1 CDO     -0.180200
     16 C16        -0.4510    4.0300    3.3260 c2        1 CDO     -0.183200
     17 C17        -1.2350    2.9190    2.6550 c3        1 CDO      0.093200
     18 N18        -0.4900    2.6230    1.4330 n         1 CDO     -0.472800
     19 C19        -1.0080    2.0520    0.2900 c         1 CDO      0.631100
     20 C20        -2.4040    1.3750    0.3550 c3        1 CDO      0.137500
     21 O21        -0.3530    2.0910   -0.7710 o         1 CDO     -0.622100
     22 N22        -2.5630    0.3180    1.3280 n3        1 CDO     -0.812200
     23 C23        -1.6460   -0.8030    1.2510 c3        1 CDO      0.029800
     24 C24        -0.5780   -0.8670    2.3650 c         1 CDO      0.889600
     25 O25         0.3370   -1.7300    2.2630 o         1 CDO     -0.852800
     26 O26        -0.6350   -0.0390    3.3290 o         1 CDO     -0.852800
     27 C27        -2.7650    0.9540   -1.0810 c3        1 CDO     -0.065400
     28 C28        -4.2120    0.5030   -1.2150 c3        1 CDO     -0.051700
     29 C29        -4.8490    1.1160   -2.4570 c3        1 CDO     -0.075900
     30 C30        -6.2870    0.6660   -2.6180 c3        1 CDO     -0.074400
     31 C31        -6.3940   -0.8440   -2.6540 c3        1 CDO     -0.075400
     32 C32        -5.7470   -1.4670   -1.4340 c3        1 CDO     -0.074400
     33 C33        -4.3100   -1.0160   -1.2810 c3        1 CDO     -0.075900
     34 H1          5.5810    0.1630   -1.6740 ha        1 CDO      0.137000
     35 H4          2.1200   -2.0590    1.0970 h4        1 CDO      0.092100
     36 H6          4.7900    1.3080    0.4390 ha        1 CDO      0.162000
     37 H71         2.6780   -0.5710    2.9370 h1        1 CDO      0.067700
     38 H72         3.9070    0.7910    2.7240 h1        1 CDO      0.067700
     39 HN9         6.6510   -2.1280   -2.1210 hn        1 CDO      0.387400
     40 H101        4.0470   -3.2560   -4.2230 hn        1 CDO      0.403300
     41 H102        2.8910   -2.7490   -3.1320 hn        1 CDO      0.403300
     42 H11         1.0250    0.8380    2.4310 hn        1 CDO      0.376500
     43 H13         0.9460    3.8910    0.4940 h1        1 CDO      0.098700
     44 H15         1.4980    4.9610    2.8730 ha        1 CDO      0.153000
     45 H16        -0.8250    4.5040    4.2320 ha        1 CDO      0.141000
     46 H171       -1.2540    2.0020    3.3200 h1        1 CDO      0.084700
     47 H172       -2.2840    3.2410    2.4180 h1        1 CDO      0.084700
     48 H20        -3.1300    2.1950    0.6540 h1        1 CDO      0.045700
     49 H22        -2.5170    0.7050    2.2590 hn        1 CDO      0.380800
     50 H231       -2.2740   -1.7350    1.3360 h1        1 CDO      0.049200
     51 H232       -1.1150   -0.8340    0.2620 h1        1 CDO      0.049200
     52 H271       -2.5770    1.8410   -1.7430 hc        1 CDO      0.057700
     53 H272       -2.0670    0.1450   -1.4210 hc        1 CDO      0.057700
     54 H28        -4.7980    0.8510   -0.3170 hc        1 CDO      0.052700
     55 H291       -4.8150    2.2340   -2.3840 hc        1 CDO      0.044200
     56 H292       -4.2580    0.8190   -3.3630 hc        1 CDO      0.044200
     57 H301       -6.8980    1.0620   -1.7640 hc        1 CDO      0.032200
     58 H302       -6.7110    1.0960   -3.5620 hc        1 CDO      0.032200
     59 H311       -7.4730   -1.1440   -2.7060 hc        1 CDO      0.029700
     60 H312       -5.8920   -1.2300   -3.5800 hc        1 CDO      0.029700
     61 H321       -6.3270   -1.1820   -0.5170 hc        1 CDO      0.032200
     62 H322       -5.7820   -2.5840   -1.5200 hc        1 CDO      0.032200
     63 H331       -3.7060   -1.3910   -2.1490 hc        1 CDO      0.044200
     64 H332       -3.8700   -1.4550   -0.3470 hc        1 CDO      0.044200
@<TRIPOS>BOND
     1    1    2 ar  
     2    1    6 ar  
     3    1   34 1   
     4    2    3 ar  
     5    2    8 1   
     6    3    4 ar  
     7    4    5 ar  
     8    4   35 1   
     9    5    6 ar  
    10    5    7 1   
    11    6   36 1   
    12    7   11 1   
    13    7   37 1   
    14    7   38 1   
    15    8    9 2   
    16    8   10 1   
    17    9   39 1   
    18   10   40 1   
    19   10   41 1   
    20   11   12 1   
    21   11   42 1   
    22   12   13 1   
    23   12   14 2   
    24   13   15 1   
    25   13   18 1   
    26   13   43 1   
    27   15   16 2   
    28   15   44 1   
    29   16   17 1   
    30   16   45 1   
    31   17   18 1   
    32   17   46 1   
    33   17   47 1   
    34   18   19 1   
    35   19   20 1   
    36   19   21 2   
    37   20   22 1   
    38   20   27 1   
    39   20   48 1   
    40   22   23 1   
    41   22   49 1   
    42   23   24 1   
    43   23   50 1   
    44   23   51 1   
    45   24   25 1   
    46   24   26 1   
    47   27   28 1   
    48   27   52 1   
    49   27   53 1   
    50   28   29 1   
    51   28   33 1   
    52   28   54 1   
    53   29   30 1   
    54   29   55 1   
    55   29   56 1   
    56   30   31 1   
    57   30   57 1   
    58   30   58 1   
    59   31   32 1   
    60   31   59 1   
    61   31   60 1   
    62   32   33 1   
    63   32   61 1   
    64   32   62 1   
    65   33   63 1   
    66   33   64 1   
@<TRIPOS>SUBSTRUCTURE
     1 CDO         1 TEMP              0 ****  ****    0 ROOT
