@<TRIPOS>MOLECULE
CDO
   64    61     1     0     0
SMALL
bcc


@<TRIPOS>ATOM
      1 C1          2.8410    6.7650   -2.6460 c1        1 CDO     -0.117500
      2 C2          1.6090    7.2680   -3.2050 c1        1 CDO     -0.086000
      3 N3          0.3990    6.7690   -2.7710 n1        1 CDO     -0.154000
      4 C4          0.3660    5.8080   -1.8210 c1        1 CDO     -0.075000
      5 C5          1.5850    5.3060   -1.2640 c1        1 CDO     -0.111000
      6 C6          2.8090    5.8110   -1.7030 c1        1 CDO     -0.117500
      7 C7          1.5380    4.3660   -0.0530 c3        1 CDO     -0.003000
      8 C8          1.6430    8.3300   -4.2480 c2        1 CDO      0.136000
      9 N9          1.4390    9.6090   -3.9080 n1        1 CDO     -0.317000
     10 N10         1.8990    7.9800   -5.6420 n3        1 CDO     -0.336000
     11 N11         0.7690    3.1670   -0.4020 n         1 CDO     -0.329000
     12 C12         0.6360    2.0950    0.5470 c2        1 CDO      0.304000
     13 C13        -0.6580    1.5470    0.8330 c3        1 CDO      0.014000
     14 O14         1.6270    1.7180    1.2010 o         1 CDO     -0.433000
     15 C15        -1.1360    2.0840    1.8890 c2        1 CDO     -0.134000
     16 C16        -0.9470    1.2950    3.1060 c1        1 CDO     -0.211000
     17 C17        -0.8340   -0.0230    2.8940 c2        1 CDO     -0.002000
     18 N18        -0.4970   -0.0510    1.3540 n         1 CDO     -0.325000
     19 C19        -0.1260   -1.2030    0.5510 c2        1 CDO      0.265000
     20 C20        -0.1480   -2.6260    1.1750 c3        1 CDO     -0.011000
     21 O21         0.1130   -1.0620   -0.6600 o         1 CDO     -0.355000
     22 N22         1.1360   -3.1430    1.1790 n3        1 CDO     -0.284000
     23 C23         1.7000   -3.0880    2.5720 c3        1 CDO     -0.151000
     24 C24         2.9590   -3.9340    2.6390 c2        1 CDO      0.299000
     25 O25         2.9140   -5.1090    3.1470 o         1 CDO     -0.581500
     26 O26         4.0730   -3.4740    2.1660 o         1 CDO     -0.581500
     27 C27        -1.0520   -3.5220    0.3510 c3        1 CDO     -0.150000
     28 C28        -1.3340   -4.8120    1.1200 c3        1 CDO     -0.089000
     29 C29        -2.8150   -4.8940    1.4230 c3        1 CDO     -0.151000
     30 C30        -3.6730   -5.1250    0.1530 c3        1 CDO     -0.155500
     31 C31        -3.1940   -6.2960   -0.6620 c3        1 CDO     -0.152000
     32 C32        -1.6870   -6.2200   -0.9720 c3        1 CDO     -0.155500
     33 C33        -0.8400   -5.9960    0.2920 c3        1 CDO     -0.151000
     34 H1          3.6840    7.1130   -2.9480 ha        1 CDO      0.185500
     35 H4         -0.4870    5.4570   -1.5170 ha        1 CDO      0.160000
     36 H6          3.5800    5.4950   -1.3530 ha        1 CDO      0.185500
     37 H71         1.1260    4.8050    0.6710 h1        1 CDO      0.130500
     38 H72         2.4190    4.1170    0.1900 h1        1 CDO      0.130500
     39 HN9         1.2700    9.8420   -2.9930 DU        1 CDO      0.157000
     40 H101        1.6890    7.1670   -5.9430 hn        1 CDO      0.188500
     41 H102        2.1560    8.6460   -6.2460 hn        1 CDO      0.188500
     42 H11         0.4010    3.0700   -1.3070 hn        1 CDO      0.285000
     43 H13        -1.1320    1.7110   -0.0200 h1        1 CDO      0.131000
     44 H15        -1.2390    3.0760    1.9450 ha        1 CDO      0.164000
     45 H16        -0.5420    1.6830    3.8560 ha        1 CDO      0.141000
     46 H171       -0.1180   -0.4370    3.4980 h4        1 CDO      0.091000
     47 H172       -1.5930   -0.5190    3.1090 h4        1 CDO      0.091000
     48 H20        -0.4700   -2.5800    2.0540 h1        1 CDO      0.096000
     49 H22         1.6660   -2.6490    0.6130 hn        1 CDO      0.189000
     50 H231        0.9990   -3.4520    3.2430 h1        1 CDO      0.082000
     51 H232        1.9150   -2.1840    2.7940 h1        1 CDO      0.082000
     52 H271       -0.5960   -3.7440   -0.5240 hc        1 CDO      0.086000
     53 H272       -1.8780   -3.0680    0.1760 hc        1 CDO      0.086000
     54 H28        -0.8530   -4.7880    1.9470 hc        1 CDO      0.096000
     55 H291       -2.9640   -5.6200    2.0320 hc        1 CDO      0.079250
     56 H292       -3.0900   -4.0820    1.8390 hc        1 CDO      0.079250
     57 H301       -3.6430   -4.3620   -0.3720 hc        1 CDO      0.075500
     58 H302       -4.5660   -5.2790    0.4120 hc        1 CDO      0.075500
     59 H311       -3.3710   -7.1060   -0.1760 hc        1 CDO      0.069000
     60 H312       -3.7070   -6.3170   -1.5300 hc        1 CDO      0.069000
     61 H321       -1.3840   -7.1280   -1.4320 hc        1 CDO      0.075500
     62 H322       -1.5250   -5.4750   -1.6010 hc        1 CDO      0.075500
     63 H331       -0.8740   -6.8910    0.9040 hc        1 CDO      0.079250
     64 H332        0.0110   -5.8430    0.0460 hc        1 CDO      0.079250
@<TRIPOS>BOND
     1    1    6 1   
     2    1   34 1   
     3    2    3 1   
     4    2    8 1   
     5    4    5 1   
     6    4   35 1   
     7    5    7 1   
     8    6   36 1   
     9    7   11 1   
    10    7   37 1   
    11    7   38 1   
    12    8    9 1   
    13    8   10 1   
    14   10   40 1   
    15   10   41 1   
    16   11   12 1   
    17   11   42 1   
    18   12   13 1   
    19   12   14 1   
    20   13   15 1   
    21   13   18 1   
    22   13   43 1   
    23   15   16 1   
    24   15   44 1   
    25   16   45 1   
    26   17   18 1   
    27   17   46 1   
    28   17   47 1   
    29   18   19 1   
    30   19   20 1   
    31   19   21 1   
    32   20   22 1   
    33   20   27 1   
    34   20   48 1   
    35   22   23 1   
    36   22   49 1   
    37   23   24 1   
    38   23   50 1   
    39   23   51 1   
    40   24   25 1   
    41   24   26 1   
    42   27   28 1   
    43   27   52 1   
    44   27   53 1   
    45   28   29 1   
    46   28   33 1   
    47   28   54 1   
    48   29   30 1   
    49   29   55 1   
    50   29   56 1   
    51   30   31 1   
    52   30   57 1   
    53   30   58 1   
    54   31   32 1   
    55   31   59 1   
    56   31   60 1   
    57   32   33 1   
    58   32   61 1   
    59   32   62 1   
    60   33   63 1   
    61   33   64 1   
@<TRIPOS>SUBSTRUCTURE
     1 CDO         1 TEMP              0 ****  ****    0 ROOT
