@<TRIPOS>MOLECULE
CDO
   67    69     1     0     0
SMALL
bcc


@<TRIPOS>ATOM
      1 C1          0.8020   -0.9800    1.3970 ca        1 CDO     -0.195300
      2 C2          1.9700   -0.9130    2.1740 ca        1 CDO      0.292000
      3 N3          1.9780   -0.5090    3.4760 nb        1 CDO     -0.683000
      4 C4          0.8130   -0.1600    4.0300 ca        1 CDO      0.455200
      5 C5         -0.4170   -0.1820    3.3200 ca        1 CDO     -0.223600
      6 C6         -0.4130   -0.6070    1.9920 ca        1 CDO     -0.041000
      7 C7         -1.6590    0.3340    3.9680 c3        1 CDO      0.173100
      8 C8          3.2680   -1.3310    1.5540 ce        1 CDO      0.474200
      9 N9          3.4980   -2.1790    0.6280 n2        1 CDO     -0.694100
     10 N10         4.4640   -0.6350    2.1350 n4        1 CDO     -0.809600
     11 N11        -2.2800   -0.6090    4.9420 n4        1 CDO     -0.681800
     12 C12        -3.2490   -1.5800    4.3670 c         1 CDO      0.537100
     13 C13        -4.1360   -2.3980    5.3160 c3        1 CDO      0.079900
     14 O14        -3.3030   -1.6900    3.1480 o         1 CDO     -0.443100
     15 C15        -5.5830   -1.9700    5.0850 c2        1 CDO     -0.198200
     16 C16        -6.1390   -1.5830    6.2470 c2        1 CDO     -0.117200
     17 C17        -5.1420   -1.7070    7.3810 c3        1 CDO      0.093200
     18 N18        -3.9290   -2.2410    6.7530 n         1 CDO     -0.476800
     19 C19        -2.7950   -2.6740    7.3970 c         1 CDO      0.671100
     20 C20        -2.7940   -2.8160    8.9380 c3        1 CDO      0.075500
     21 O21        -1.7810   -2.9610    6.7310 o         1 CDO     -0.598100
     22 N22        -2.2840   -1.5690    9.6030 n4        1 CDO     -0.751000
     23 C23        -1.0210   -1.0220    9.0280 c3        1 CDO     -0.024200
     24 C24        -1.3180   -0.2000    7.7580 c         1 CDO      0.913600
     25 O25        -0.4070   -0.0450    6.9080 o         1 CDO     -0.824300
     26 O26        -2.5130    0.2030    7.5860 o         1 CDO     -0.824300
     27 C27        -1.9970   -4.0690    9.3280 c3        1 CDO     -0.102400
     28 C28        -2.6150   -4.8230   10.4980 c3        1 CDO     -0.079700
     29 C29        -2.6510   -3.9990   11.7760 c3        1 CDO     -0.074900
     30 C30        -3.1840   -4.8070   12.9440 c3        1 CDO     -0.078900
     31 C31        -2.3980   -6.0840   13.1440 c3        1 CDO     -0.082400
     32 C32        -2.3690   -6.9090   11.8750 c3        1 CDO     -0.078900
     33 C33        -1.8180   -6.1080   10.7140 c3        1 CDO     -0.074900
     34 H1          0.8180   -1.3010    0.3440 ha        1 CDO      0.172000
     35 H4          0.8510    0.1550    5.1000 h4        1 CDO      0.099100
     36 H6         -1.3490   -0.6510    1.4080 ha        1 CDO      0.183000
     37 H71        -1.3970    1.2680    4.5580 hx        1 CDO      0.125200
     38 H72        -2.4290    0.5950    3.1850 hx        1 CDO      0.125200
     39 HN9         2.7360   -2.6790    0.2180 hn        1 CDO      0.488400
     40 H101        4.5670   -0.9280    3.1160 hn        1 CDO      0.481467
     41 H102        5.3250   -0.8640    1.6190 hn        1 CDO      0.481467
     42 H11        -2.7550   -0.0330    5.6840 hn        1 CDO      0.508800
     43 H13        -3.9620   -3.4780    5.0140 h1        1 CDO      0.136700
     44 H15        -6.0180   -2.0310    4.0860 ha        1 CDO      0.197000
     45 H16        -7.1560   -1.2270    6.4340 ha        1 CDO      0.197000
     46 H171       -4.9180   -0.7020    7.8400 h1        1 CDO      0.088700
     47 H172       -5.5350   -2.4120    8.1650 h1        1 CDO      0.088700
     48 H20        -3.8590   -2.9490    9.3090 hx        1 CDO      0.113700
     49 H22        -3.0010   -0.8280    9.4900 hn        1 CDO      0.469300
     50 H231       -0.5390   -0.3530    9.7950 hx        1 CDO      0.123200
     51 H232       -0.3230   -1.8660    8.7680 hx        1 CDO      0.123200
     52 H271       -1.9680   -4.7560    8.4370 hc        1 CDO      0.089200
     53 H272       -0.9290   -3.8110    9.5600 hc        1 CDO      0.089200
     54 H28        -3.6720   -5.1080   10.2310 hc        1 CDO      0.062700
     55 H291       -3.3200   -3.1080   11.6360 hc        1 CDO      0.034450
     56 H292       -1.6190   -3.6320   12.0180 hc        1 CDO      0.034450
     57 H301       -4.2630   -5.0560   12.7600 hc        1 CDO      0.057200
     58 H302       -3.1360   -4.1840   13.8750 hc        1 CDO      0.057200
     59 H311       -2.8640   -6.6830   13.9710 hc        1 CDO      0.058700
     60 H312       -1.3500   -5.8380   13.4590 hc        1 CDO      0.058700
     61 H321       -3.4050   -7.2630   11.6310 hc        1 CDO      0.057200
     62 H322       -1.7320   -7.8180   12.0300 hc        1 CDO      0.057200
     63 H331       -0.7450   -5.8500   10.9130 hc        1 CDO      0.034450
     64 H332       -1.8520   -6.7280    9.7800 hc        1 CDO      0.034450
     65 H103        4.3030    0.3780    2.1030 hn        1 CDO      0.481467
     66 H112       -1.5280   -1.1330    5.4400 hn        1 CDO      0.508800
     67 H222       -2.1470   -1.7790   10.6000 hn        1 CDO      0.469300
@<TRIPOS>BOND
     1    1    2 ar  
     2    1    6 ar  
     3    1   34 1   
     4    2    3 ar  
     5    2    8 1   
     6    3    4 ar  
     7    4    5 ar  
     8    4   35 1   
     9    5    6 ar  
    10    5    7 1   
    11    6   36 1   
    12    7   11 1   
    13    7   37 1   
    14    7   38 1   
    15    8    9 2   
    16    8   10 1   
    17    9   39 1   
    18   10   40 1   
    19   10   41 1   
    20   10   65 1   
    21   11   12 1   
    22   11   42 1   
    23   11   66 1   
    24   12   13 1   
    25   12   14 2   
    26   13   15 1   
    27   13   18 1   
    28   13   43 1   
    29   15   16 2   
    30   15   44 1   
    31   16   17 1   
    32   16   45 1   
    33   17   18 1   
    34   17   46 1   
    35   17   47 1   
    36   18   19 1   
    37   19   20 1   
    38   19   21 2   
    39   20   22 1   
    40   20   27 1   
    41   20   48 1   
    42   22   23 1   
    43   22   49 1   
    44   22   67 1   
    45   23   24 1   
    46   23   50 1   
    47   23   51 1   
    48   24   25 1   
    49   24   26 1   
    50   27   28 1   
    51   27   52 1   
    52   27   53 1   
    53   28   29 1   
    54   28   33 1   
    55   28   54 1   
    56   29   30 1   
    57   29   55 1   
    58   29   56 1   
    59   30   31 1   
    60   30   57 1   
    61   30   58 1   
    62   31   32 1   
    63   31   59 1   
    64   31   60 1   
    65   32   33 1   
    66   32   61 1   
    67   32   62 1   
    68   33   63 1   
    69   33   64 1   
@<TRIPOS>SUBSTRUCTURE
     1 CDO         1 TEMP              0 ****  ****    0 ROOT
