@<TRIPOS>MOLECULE
CDQ
   38    41     1     0     0
SMALL
bcc


@<TRIPOS>ATOM
      1 C1          0.8100   -0.3200   -0.1050 ca        1 CDQ     -0.026600
      2 C2          2.1620   -0.3140    0.2440 ca        1 CDQ     -0.088000
      3 C3          2.5620   -0.1730    1.5760 ca        1 CDQ     -0.132000
      4 C4          1.5680   -0.0450    2.5490 ca        1 CDQ      0.065600
      5 C5          0.1810   -0.0380    2.1780 ca        1 CDQ     -0.158300
      6 C6         -0.1990   -0.1770    0.8600 ca        1 CDQ     -0.093000
      7 C7         -0.6430    0.1420    3.4110 c3        1 CDQ     -0.105100
      8 C8          0.4210    0.2440    4.5210 c         1 CDQ      0.692500
      9 O9          0.1900    0.4170    5.7260 o         1 CDQ     -0.630500
     10 N10         1.6960    0.0750    3.9490 n         1 CDQ     -0.358000
     11 C11         2.9460    0.1970    4.6570 c3        1 CDQ      0.145300
     12 C12         3.5800    1.5600    4.6190 ca        1 CDQ     -0.119300
     13 C13         2.8800    2.6510    5.1500 ca        1 CDQ     -0.125000
     14 C14         3.4450    3.9210    5.1710 ca        1 CDQ     -0.156000
     15 C15         4.7380    4.0890    4.6600 ca        1 CDQ      0.043100
     16 C16         5.4460    2.9950    4.1330 ca        1 CDQ      0.060100
     17 C17         4.8720    1.7140    4.0970 ca        1 CDQ     -0.068600
     18 C18         5.6280    0.5220    3.5130 c         1 CDQ      0.919200
     19 O19         6.1840   -0.2710    4.3170 o         1 CDQ     -0.817300
     20 O20         5.6070    0.3750    2.2580 o         1 CDQ     -0.817300
     21 O21         6.7510    3.1400    3.6750 os        1 CDQ     -0.284900
     22 C22         7.0640    4.4850    3.3170 c3        1 CDQ      0.090400
     23 C23         6.6540    5.4440    4.4230 c3        1 CDQ      0.092400
     24 O24         5.2480    5.3830    4.6700 os        1 CDQ     -0.334900
     25 CL25        0.3620   -0.5000   -1.7440 cl        1 CDQ     -0.134400
     26 H2          2.9370   -0.4140   -0.5320 ha        1 CDQ      0.152000
     27 H3          3.6430   -0.1410    1.8370 ha        1 CDQ      0.231000
     28 H6         -1.2590   -0.1730    0.5720 ha        1 CDQ      0.134000
     29 H7         -1.3130   -0.7290    3.6120 hc        1 CDQ      0.081200
     30 H7A        -1.2520    1.0780    3.3860 hc        1 CDQ      0.081200
     31 H11         2.7360   -0.0650    5.7360 h1        1 CDQ      0.089200
     32 H11A        3.6640   -0.5670    4.2320 h1        1 CDQ      0.089200
     33 H13         1.8700    2.4950    5.5610 ha        1 CDQ      0.131000
     34 H14         2.9020    4.7830    5.5780 ha        1 CDQ      0.129000
     35 H22         8.1750    4.4760    3.1730 h1        1 CDQ      0.059200
     36 H22A        6.5470    4.7450    2.3570 h1        1 CDQ      0.059200
     37 H23         6.8350    6.5110    4.1320 h1        1 CDQ      0.052200
     38 H23A        7.1960    5.2020    5.3750 h1        1 CDQ      0.052200
@<TRIPOS>BOND
     1    1    2 ar  
     2    1    6 ar  
     3    1   25 1   
     4    2    3 ar  
     5    2   26 1   
     6    3    4 ar  
     7    3   27 1   
     8    4    5 ar  
     9    4   10 1   
    10    5    6 ar  
    11    5    7 1   
    12    6   28 1   
    13    7    8 1   
    14    7   29 1   
    15    7   30 1   
    16    8    9 2   
    17    8   10 1   
    18   10   11 1   
    19   11   12 1   
    20   11   31 1   
    21   11   32 1   
    22   12   13 ar  
    23   12   17 ar  
    24   13   14 ar  
    25   13   33 1   
    26   14   15 ar  
    27   14   34 1   
    28   15   16 ar  
    29   15   24 1   
    30   16   17 ar  
    31   16   21 1   
    32   17   18 1   
    33   18   19 1   
    34   18   20 1   
    35   21   22 1   
    36   22   23 1   
    37   22   35 1   
    38   22   36 1   
    39   23   24 1   
    40   23   37 1   
    41   23   38 1   
@<TRIPOS>SUBSTRUCTURE
     1 CDQ         1 TEMP              0 ****  ****    0 ROOT
