@<TRIPOS>MOLECULE
CDQ
   38    41     1     0     0
SMALL
bcc


@<TRIPOS>ATOM
      1 C1          3.9930   -0.9400   -1.2130 ca        1 CDQ     -0.026600
      2 C2          2.7710   -0.8140   -1.8760 ca        1 CDQ     -0.088000
      3 C3          1.7570    0.0050   -1.3720 ca        1 CDQ     -0.132000
      4 C4          2.0050    0.7000   -0.1860 ca        1 CDQ      0.065600
      5 C5          3.2590    0.5530    0.4960 ca        1 CDQ     -0.158300
      6 C6          4.2500   -0.2590   -0.0130 ca        1 CDQ     -0.093000
      7 C7          3.2280    1.3840    1.7380 c3        1 CDQ     -0.105100
      8 C8          1.8220    2.0120    1.6940 c         1 CDQ      0.692500
      9 O9          1.3460    2.7740    2.5470 o         1 CDQ     -0.630500
     10 N10         1.1770    1.6070    0.5090 n         1 CDQ     -0.358000
     11 C11        -0.1860    1.9180    0.1590 c3        1 CDQ      0.145300
     12 C12        -1.2080    0.8900    0.5600 ca        1 CDQ     -0.119300
     13 C13        -1.3600    0.5750    1.9160 ca        1 CDQ     -0.125000
     14 C14        -2.3180   -0.3400    2.3350 ca        1 CDQ     -0.156000
     15 C15        -3.1420   -0.9370    1.3720 ca        1 CDQ      0.043100
     16 C16        -2.9960   -0.6190    0.0110 ca        1 CDQ      0.060100
     17 C17        -2.0190    0.2950   -0.4160 ca        1 CDQ     -0.068600
     18 C18        -1.8440    0.6360   -1.8950 c         1 CDQ      0.919200
     19 O19        -2.3480    1.7120   -2.3120 o         1 CDQ     -0.817300
     20 O20        -1.1590   -0.1570   -2.6010 o         1 CDQ     -0.817300
     21 O21        -3.8460   -1.1620   -0.9470 os        1 CDQ     -0.284900
     22 C22        -4.4560   -2.3780   -0.5180 c3        1 CDQ      0.090400
     23 C23        -5.0590   -2.2160    0.8680 c3        1 CDQ      0.092400
     24 O24        -4.0630   -1.8720    1.8330 os        1 CDQ     -0.334900
     25 CL25        5.2090   -1.9470   -1.8650 cl        1 CDQ     -0.134400
     26 H2          2.5850   -1.3680   -2.8100 ha        1 CDQ      0.152000
     27 H3          0.7770    0.0740   -1.8960 ha        1 CDQ      0.231000
     28 H6          5.2120   -0.3740    0.5060 ha        1 CDQ      0.134000
     29 H7          3.3370    0.7710    2.6660 hc        1 CDQ      0.081200
     30 H7A         4.0000    2.1900    1.7360 hc        1 CDQ      0.081200
     31 H11        -0.4420    2.8900    0.6760 h1        1 CDQ      0.089200
     32 H11A       -0.2310    2.0800   -0.9600 h1        1 CDQ      0.089200
     33 H13        -0.7130    1.0670    2.6600 ha        1 CDQ      0.131000
     34 H14        -2.4410   -0.5990    3.3940 ha        1 CDQ      0.129000
     35 H22        -5.2450   -2.5740   -1.2880 h1        1 CDQ      0.059200
     36 H22A       -3.6920   -3.1990   -0.5210 h1        1 CDQ      0.059200
     37 H23        -5.8450   -1.4150    0.8630 h1        1 CDQ      0.052200
     38 H23A       -5.4870   -3.1800    1.2470 h1        1 CDQ      0.052200
@<TRIPOS>BOND
     1    1    2 ar  
     2    1    6 ar  
     3    1   25 1   
     4    2    3 ar  
     5    2   26 1   
     6    3    4 ar  
     7    3   27 1   
     8    4    5 ar  
     9    4   10 1   
    10    5    6 ar  
    11    5    7 1   
    12    6   28 1   
    13    7    8 1   
    14    7   29 1   
    15    7   30 1   
    16    8    9 2   
    17    8   10 1   
    18   10   11 1   
    19   11   12 1   
    20   11   31 1   
    21   11   32 1   
    22   12   13 ar  
    23   12   17 ar  
    24   13   14 ar  
    25   13   33 1   
    26   14   15 ar  
    27   14   34 1   
    28   15   16 ar  
    29   15   24 1   
    30   16   17 ar  
    31   16   21 1   
    32   17   18 1   
    33   18   19 1   
    34   18   20 1   
    35   21   22 1   
    36   22   23 1   
    37   22   35 1   
    38   22   36 1   
    39   23   24 1   
    40   23   37 1   
    41   23   38 1   
@<TRIPOS>SUBSTRUCTURE
     1 CDQ         1 TEMP              0 ****  ****    0 ROOT
