@<TRIPOS>MOLECULE
CDQ
   38    41     1     0     0
SMALL
bcc


@<TRIPOS>ATOM
      1 C1          0.8550   -0.3690   -0.1080 ca        1 CDQ     -0.026600
      2 C2          2.2030   -0.3540    0.2560 ca        1 CDQ     -0.088000
      3 C3          2.5880   -0.1970    1.5900 ca        1 CDQ     -0.132000
      4 C4          1.5840   -0.0610    2.5510 ca        1 CDQ      0.065600
      5 C5          0.2020   -0.0620    2.1650 ca        1 CDQ     -0.158300
      6 C6         -0.1640   -0.2170    0.8450 ca        1 CDQ     -0.093000
      7 C7         -0.6360    0.1300    3.3880 c3        1 CDQ     -0.105100
      8 C8          0.4150    0.2480    4.5080 c         1 CDQ      0.692500
      9 O9          0.1720    0.4340    5.7080 o         1 CDQ     -0.630500
     10 N10         1.6980    0.0760    3.9510 n         1 CDQ     -0.358000
     11 C11         2.9390    0.2110    4.6700 c3        1 CDQ      0.145300
     12 C12         3.5700    1.5740    4.6230 ca        1 CDQ     -0.119300
     13 C13         2.8610    2.6700    5.1320 ca        1 CDQ     -0.125000
     14 C14         3.4220    3.9410    5.1440 ca        1 CDQ     -0.156000
     15 C15         4.7200    4.1070    4.6450 ca        1 CDQ      0.043100
     16 C16         5.4370    3.0090    4.1390 ca        1 CDQ      0.060100
     17 C17         4.8670    1.7250    4.1130 ca        1 CDQ     -0.068600
     18 C18         5.6330    0.5290    3.5520 c         1 CDQ      0.919200
     19 O19         6.1830   -0.2520    4.3720 o         1 CDQ     -0.817300
     20 O20         5.6250    0.3650    2.2990 o         1 CDQ     -0.817300
     21 O21         6.7470    3.1510    3.6940 os        1 CDQ     -0.284900
     22 C22         7.0610    4.4920    3.3230 c3        1 CDQ      0.090400
     23 C23         6.6360    5.4650    4.4120 c3        1 CDQ      0.092400
     24 O24         5.2280    5.4020    4.6440 os        1 CDQ     -0.334900
     25 CL25        0.4250   -0.5680   -1.7490 cl        1 CDQ     -0.134400
     26 H2          2.9870   -0.4610   -0.5110 ha        1 CDQ      0.152000
     27 H3          3.6670   -0.1590    1.8620 ha        1 CDQ      0.231000
     28 H6         -1.2210   -0.2200    0.5450 ha        1 CDQ      0.134000
     29 H7         -1.3060   -0.7410    3.5910 hc        1 CDQ      0.081200
     30 H7A        -1.2480    1.0630    3.3450 hc        1 CDQ      0.081200
     31 H11         3.6640   -0.5570    4.2620 h1        1 CDQ      0.089200
     32 H11A        2.7180   -0.0390    5.7500 h1        1 CDQ      0.089200
     33 H13         1.8470    2.5170    5.5340 ha        1 CDQ      0.131000
     34 H14         2.8730    4.8070    5.5340 ha        1 CDQ      0.129000
     35 H22         8.1730    4.4850    3.1910 h1        1 CDQ      0.059200
     36 H22A        6.5530    4.7400    2.3540 h1        1 CDQ      0.059200
     37 H23         6.8170    6.5280    4.1100 h1        1 CDQ      0.052200
     38 H23A        7.1680    5.2350    5.3730 h1        1 CDQ      0.052200
@<TRIPOS>BOND
     1    1    2 ar  
     2    1    6 ar  
     3    1   25 1   
     4    2    3 ar  
     5    2   26 1   
     6    3    4 ar  
     7    3   27 1   
     8    4    5 ar  
     9    4   10 1   
    10    5    6 ar  
    11    5    7 1   
    12    6   28 1   
    13    7    8 1   
    14    7   29 1   
    15    7   30 1   
    16    8    9 2   
    17    8   10 1   
    18   10   11 1   
    19   11   12 1   
    20   11   31 1   
    21   11   32 1   
    22   12   13 ar  
    23   12   17 ar  
    24   13   14 ar  
    25   13   33 1   
    26   14   15 ar  
    27   14   34 1   
    28   15   16 ar  
    29   15   24 1   
    30   16   17 ar  
    31   16   21 1   
    32   17   18 1   
    33   18   19 1   
    34   18   20 1   
    35   21   22 1   
    36   22   23 1   
    37   22   35 1   
    38   22   36 1   
    39   23   24 1   
    40   23   37 1   
    41   23   38 1   
@<TRIPOS>SUBSTRUCTURE
     1 CDQ         1 TEMP              0 ****  ****    0 ROOT
