@<TRIPOS>MOLECULE
CDQ
   38    36     1     0     0
SMALL
bcc


@<TRIPOS>ATOM
      1 C1         -2.3140   -2.1240   -4.8900 c1        1 CDQ     -0.105000
      2 C2         -0.9550   -2.3660   -4.6050 c2        1 CDQ     -0.088000
      3 C3         -0.4240   -1.9760   -3.3860 c1        1 CDQ     -0.132000
      4 C4         -1.2500   -1.3340   -2.4250 c1        1 CDQ      0.073000
      5 C5         -2.5930   -1.0970   -2.7110 c1        1 CDQ     -0.151000
      6 C6         -3.1290   -1.4910   -3.9420 c1        1 CDQ     -0.093000
      7 C7         -3.1320   -0.1310   -1.6800 c3        1 CDQ     -0.141000
      8 C8         -2.1870   -0.2860   -0.5450 c2        1 CDQ      0.300000
      9 O9         -2.3330    0.1620    0.5530 o         1 CDQ     -0.355000
     10 N10        -1.0220   -0.9840   -1.0250 n         1 CDQ     -0.261000
     11 C11         0.1260   -1.3500   -0.2380 c3        1 CDQ      0.022000
     12 C12         0.6730   -0.0740    0.5340 c2        1 CDQ     -0.112000
     13 C13         0.9270    1.1510   -0.1870 c2        1 CDQ     -0.125000
     14 C14         1.5360    2.2750    0.4880 c1        1 CDQ     -0.156000
     15 C15         1.8770    2.1770    1.8330 c1        1 CDQ      0.006500
     16 C16         1.6110    0.9010    2.5800 c1        1 CDQ      0.006500
     17 C17         1.0240   -0.1790    1.9250 c1        1 CDQ     -0.048000
     18 C18         0.8250   -1.5170    2.6700 c2        1 CDQ      0.368000
     19 O19        -0.1680   -1.6830    3.3930 o         1 CDQ     -0.552000
     20 O20         1.6500   -2.3880    2.5730 o         1 CDQ     -0.552000
     21 O21         2.0380    0.8360    3.9780 os        1 CDQ     -0.193000
     22 C22         2.7340    1.8620    4.4460 c3        1 CDQ     -0.059000
     23 C23         2.3890    3.1990    3.9180 c3        1 CDQ     -0.059000
     24 O24         2.3690    3.3270    2.6110 os        1 CDQ     -0.193000
     25 CL25       -2.9690   -2.4830   -6.4500 cl        1 CDQ     -0.056000
     26 H2         -0.3730   -2.8210   -5.2860 ha        1 CDQ      0.152000
     27 H3          0.5410   -2.1470   -3.1840 ha        1 CDQ      0.231000
     28 H6         -4.0190   -1.2230   -4.1820 ha        1 CDQ      0.134000
     29 H7         -3.4080    0.7820   -2.0800 hc        1 CDQ      0.120500
     30 H7A        -4.0240   -0.4490   -1.3180 hc        1 CDQ      0.120500
     31 H11        -0.1240   -2.0160    0.3940 h1        1 CDQ      0.128500
     32 H11A        0.8030   -1.6910   -0.8050 h1        1 CDQ      0.128500
     33 H13         0.7140    1.2090   -1.1640 ha        1 CDQ      0.131000
     34 H14         1.7060    3.0980    0.0030 ha        1 CDQ      0.129000
     35 H22         2.6200    1.8820    5.4390 h1        1 CDQ      0.095000
     36 H22A        3.7340    1.6880    4.2420 h1        1 CDQ      0.095000
     37 H23         1.4740    3.4260    4.2530 h1        1 CDQ      0.095000
     38 H23A        3.0560    3.8380    4.2710 h1        1 CDQ      0.095000
@<TRIPOS>BOND
     1    1    2 1   
     2    1    6 1   
     3    2    3 1   
     4    2   26 1   
     5    3   27 1   
     6    4    5 1   
     7    4   10 1   
     8    5    7 1   
     9    6   28 1   
    10    7    8 1   
    11    7   29 1   
    12    7   30 1   
    13    8    9 1   
    14    8   10 1   
    15   10   11 1   
    16   11   12 1   
    17   11   31 1   
    18   11   32 1   
    19   12   13 1   
    20   12   17 1   
    21   13   14 1   
    22   13   33 1   
    23   14   34 1   
    24   15   16 1   
    25   15   24 1   
    26   16   21 1   
    27   17   18 1   
    28   18   19 1   
    29   18   20 1   
    30   21   22 1   
    31   22   23 1   
    32   22   35 1   
    33   22   36 1   
    34   23   24 1   
    35   23   37 1   
    36   23   38 1   
@<TRIPOS>SUBSTRUCTURE
     1 CDQ         1 TEMP              0 ****  ****    0 ROOT
