@<TRIPOS>MOLECULE
CDQ
   38    41     1     0     0
SMALL
bcc


@<TRIPOS>ATOM
      1 C1          0.8340   -0.3360   -0.1130 ca        1 CDQ     -0.026600
      2 C2          2.1830   -0.3310    0.2470 ca        1 CDQ     -0.088000
      3 C3          2.5740   -0.1830    1.5810 ca        1 CDQ     -0.132000
      4 C4          1.5730   -0.0470    2.5450 ca        1 CDQ      0.065600
      5 C5          0.1890   -0.0390    2.1640 ca        1 CDQ     -0.158300
      6 C6         -0.1820   -0.1840    0.8440 ca        1 CDQ     -0.093000
      7 C7         -0.6440    0.1500    3.3900 c3        1 CDQ     -0.105100
      8 C8          0.4120    0.2560    4.5080 c         1 CDQ      0.692500
      9 O9          0.1730    0.4360    5.7100 o         1 CDQ     -0.630500
     10 N10         1.6910    0.0810    3.9460 n         1 CDQ     -0.358000
     11 C11         2.9360    0.2040    4.6620 c3        1 CDQ      0.145300
     12 C12         3.5740    1.5650    4.6210 ca        1 CDQ     -0.119300
     13 C13         2.8730    2.6610    5.1400 ca        1 CDQ     -0.125000
     14 C14         3.4400    3.9290    5.1580 ca        1 CDQ     -0.156000
     15 C15         4.7370    4.0910    4.6560 ca        1 CDQ      0.043100
     16 C16         5.4470    2.9920    4.1400 ca        1 CDQ      0.060100
     17 C17         4.8690    1.7120    4.1080 ca        1 CDQ     -0.068600
     18 C18         5.6270    0.5160    3.5370 c         1 CDQ      0.919200
     19 O19         6.1760   -0.2740    4.3500 o         1 CDQ     -0.817300
     20 O20         5.6150    0.3600    2.2830 o         1 CDQ     -0.817300
     21 O21         6.7550    3.1310    3.6920 os        1 CDQ     -0.284900
     22 C22         7.0750    4.4730    3.3280 c3        1 CDQ      0.090400
     23 C23         6.6590    5.4400    4.4250 c3        1 CDQ      0.092400
     24 O24         5.2510    5.3840    4.6620 os        1 CDQ     -0.334900
     25 Cl25        0.3980   -0.5230   -1.7540 cl        1 CDQ     -0.134400
     26 H2          2.9640   -0.4370   -0.5230 ha        1 CDQ      0.152000
     27 H3          3.6530   -0.1520    1.8500 ha        1 CDQ      0.231000
     28 H6         -1.2400   -0.1800    0.5480 ha        1 CDQ      0.134000
     29 H7         -1.3170   -0.7180    3.5910 hc        1 CDQ      0.081200
     30 H7A        -1.2500    1.0870    3.3560 hc        1 CDQ      0.081200
     31 H11         3.6550   -0.5650    4.2470 h1        1 CDQ      0.089200
     32 H11A        2.7170   -0.0510    5.7410 h1        1 CDQ      0.089200
     33 H13         1.8590    2.5100    5.5450 ha        1 CDQ      0.131000
     34 H14         2.8970    4.7950    5.5560 ha        1 CDQ      0.129000
     35 H22         8.1870    4.4610    3.1920 h1        1 CDQ      0.059200
     36 H22A        6.5660    4.7290    2.3630 h1        1 CDQ      0.059200
     37 H23         7.1930    5.2020    5.3820 h1        1 CDQ      0.052200
     38 H23A        6.8450    6.5050    4.1290 h1        1 CDQ      0.052200
@<TRIPOS>BOND
     1    1    2 ar  
     2    1    6 ar  
     3    1   25 1   
     4    2    3 ar  
     5    2   26 1   
     6    3    4 ar  
     7    3   27 1   
     8    4    5 ar  
     9    4   10 1   
    10    5    6 ar  
    11    5    7 1   
    12    6   28 1   
    13    7    8 1   
    14    7   29 1   
    15    7   30 1   
    16    8    9 2   
    17    8   10 1   
    18   10   11 1   
    19   11   12 1   
    20   11   31 1   
    21   11   32 1   
    22   12   13 ar  
    23   12   17 ar  
    24   13   14 ar  
    25   13   33 1   
    26   14   15 ar  
    27   14   34 1   
    28   15   16 ar  
    29   15   24 1   
    30   16   17 ar  
    31   16   21 1   
    32   17   18 1   
    33   18   19 1   
    34   18   20 1   
    35   21   22 1   
    36   22   23 1   
    37   22   35 1   
    38   22   36 1   
    39   23   24 1   
    40   23   37 1   
    41   23   38 1   
@<TRIPOS>SUBSTRUCTURE
     1 CDQ         1 TEMP              0 ****  ****    0 ROOT
