@<TRIPOS>MOLECULE
CDR
   21    21     1     0     0
SMALL
bcc


@<TRIPOS>ATOM
      1 OGL        -2.8700    0.9440   -0.2410 oh        1 CDR     -0.589800
      2 C1         -1.4830    0.9440   -0.2410 c3        1 CDR      0.339900
      3 C2         -0.9950    0.9440    1.1890 c3        1 CDR     -0.133400
      4 C3          0.4570    0.7660    1.2820 c3        1 CDR     -0.115400
      5 C4          0.9290   -0.4130    0.5170 c3        1 CDR      0.106100
      6 O4          2.3690   -0.4150    0.5090 oh        1 CDR     -0.594800
      7 C5          0.4300   -0.4090   -0.9150 c3        1 CDR      0.160100
      8 O1         -1.0050   -0.2290   -1.0010 os        1 CDR     -0.456600
      9 C6          0.7960   -1.7170   -1.5610 c3        1 CDR     -0.091100
     10 HOG        -3.1660    1.3650   -0.9640 ho        1 CDR      0.420000
     11 H1         -1.1680    1.7560   -0.6820 h2        1 CDR      0.073700
     12 H21        -1.4330    0.2180    1.6720 hc        1 CDR      0.059700
     13 H22        -1.2360    1.7930    1.6050 hc        1 CDR      0.059700
     14 H31         0.8960    1.5650    0.9340 hc        1 CDR      0.052200
     15 H32         0.7020    0.6530    2.2200 hc        1 CDR      0.052200
     16 H4          0.6140   -1.2240    0.9600 h1        1 CDR      0.046700
     17 HO4         2.6690   -0.8580    1.2170 ho        1 CDR      0.404000
     18 H5          0.8690    0.3160   -1.3990 h1        1 CDR      0.053700
     19 H61         0.4080   -2.4530   -1.0490 hc        1 CDR      0.051033
     20 H62         0.4500   -1.7380   -2.4730 hc        1 CDR      0.051033
     21 H63         1.7680   -1.8110   -1.5790 hc        1 CDR      0.051033
@<TRIPOS>BOND
     1    1    2 1   
     2    1   10 1   
     3    2    3 1   
     4    2    8 1   
     5    2   11 1   
     6    3    4 1   
     7    3   12 1   
     8    3   13 1   
     9    4    5 1   
    10    4   14 1   
    11    4   15 1   
    12    5    6 1   
    13    5    7 1   
    14    5   16 1   
    15    6   17 1   
    16    7    8 1   
    17    7    9 1   
    18    7   18 1   
    19    9   19 1   
    20    9   20 1   
    21    9   21 1   
@<TRIPOS>SUBSTRUCTURE
     1 CDR         1 TEMP              0 ****  ****    0 ROOT
