@<TRIPOS>MOLECULE
CDR
   21    21     1     0     0
SMALL
bcc


@<TRIPOS>ATOM
      1 OGL         2.7900    0.4630   -0.1250 oh        1 CDR     -0.589800
      2 C1          1.5280   -0.0140   -0.5060 c3        1 CDR      0.339900
      3 C2          1.1620   -1.3300    0.1830 c3        1 CDR     -0.133400
      4 C3         -0.2890   -1.6630   -0.0730 c3        1 CDR     -0.115400
      5 C4         -1.1830   -0.4870    0.3090 c3        1 CDR      0.106100
      6 O4         -2.5190   -0.7050   -0.1230 oh        1 CDR     -0.594800
      7 C5         -0.7110    0.8050   -0.3870 c3        1 CDR      0.160100
      8 O1          0.6670    1.0430   -0.0950 os        1 CDR     -0.456600
      9 C6         -1.4730    2.0150    0.1160 c3        1 CDR     -0.091100
     10 HOG         2.7110    0.8430    0.7610 ho        1 CDR      0.420000
     11 H1          1.5450   -0.1140   -1.6270 h2        1 CDR      0.073700
     12 H21         1.8270   -2.1420   -0.2070 hc        1 CDR      0.059700
     13 H22         1.3490   -1.2320    1.2840 hc        1 CDR      0.059700
     14 H31        -0.4450   -1.9040   -1.1570 hc        1 CDR      0.052200
     15 H32        -0.5840   -2.5680    0.5190 hc        1 CDR      0.052200
     16 H4         -1.1670   -0.3390    1.4250 h1        1 CDR      0.046700
     17 HO4        -2.8040   -1.5380    0.2720 ho        1 CDR      0.404000
     18 H5         -0.8390    0.6890   -1.5000 h1        1 CDR      0.053700
     19 H61        -1.2690    2.1820    1.2000 hc        1 CDR      0.051033
     20 H62        -1.1610    2.9250   -0.4490 hc        1 CDR      0.051033
     21 H63        -2.5650    1.8360   -0.0320 hc        1 CDR      0.051033
@<TRIPOS>BOND
     1    1    2 1   
     2    1   10 1   
     3    2    3 1   
     4    2    8 1   
     5    2   11 1   
     6    3    4 1   
     7    3   12 1   
     8    3   13 1   
     9    4    5 1   
    10    4   14 1   
    11    4   15 1   
    12    5    6 1   
    13    5    7 1   
    14    5   16 1   
    15    6   17 1   
    16    7    8 1   
    17    7    9 1   
    18    7   18 1   
    19    9   19 1   
    20    9   20 1   
    21    9   21 1   
@<TRIPOS>SUBSTRUCTURE
     1 CDR         1 TEMP              0 ****  ****    0 ROOT
