@<TRIPOS>MOLECULE
CDS
   53    55     1     0     0
SMALL
bcc


@<TRIPOS>ATOM
      1 O23         1.7530    1.9170   -0.4560 o         1 CDS     -0.427100
      2 C22         2.1290    0.7830   -0.7220 c         1 CDS      0.469800
      3 C24         2.5990   -0.2330    0.2810 ce        1 CDS      0.270300
      4 C28         3.9850   -0.6960    0.1330 cc        1 CDS      0.305000
      5 N32         4.6670   -0.4770   -1.0640 nc        1 CDS     -0.764000
      6 C31         5.9110   -0.9930   -0.9770 cd        1 CDS      0.662300
      7 N33         6.9180   -0.8690   -1.9200 nh        1 CDS     -0.875500
      8 S30         6.2350   -1.7480    0.5760 ss        1 CDS     -0.063300
      9 C29         4.7000   -1.3800    1.1070 cd        1 CDS     -0.217400
     10 N25         1.8540   -0.6760    1.2660 n2        1 CDS     -0.340200
     11 O26         0.6280   -0.2220    1.3190 os        1 CDS     -0.181300
     12 C27        -0.1590   -0.7380    2.4280 c3        1 CDS      0.132700
     13 N21         2.1350    0.3350   -2.1400 n4        1 CDS     -0.679800
     14 C7          0.9710    0.8020   -2.9580 c3        1 CDS     -0.065500
     15 C8          0.1780   -0.3900   -3.5300 c         1 CDS      0.549900
     16 O9          0.3740   -1.5160   -3.0750 o         1 CDS     -0.532100
     17 C6          1.3960    1.8870   -4.0240 c3        1 CDS      0.297600
     18 S1          3.2000    1.9820   -4.1630 ss        1 CDS     -0.333200
     19 N5          0.7790    1.8120   -5.3060 nh        1 CDS     -0.699000
     20 C4          1.1810    0.7810   -6.1820 ce        1 CDS      0.008800
     21 C10         0.0090    0.0750   -6.9270 c         1 CDS      0.921800
     22 O12        -1.0420   -0.0660   -6.2330 o         1 CDS     -0.785300
     23 O11         0.1820   -0.2820   -8.1080 o         1 CDS     -0.785300
     24 C3          2.4880    0.4450   -6.3570 cf        1 CDS     -0.188200
     25 C2          3.5990    1.1660   -5.7010 c3        1 CDS      0.068900
     26 C13         2.8750   -0.5660   -7.3330 cf        1 CDS     -0.024000
     27 C14         3.6480   -1.6430   -7.1410 ce        1 CDS     -0.158200
     28 C15         4.1960   -2.1340   -5.9040 cc        1 CDS     -0.124200
     29 C19         5.4540   -1.8860   -5.3440 cd        1 CDS      0.310600
     30 C20         6.4830   -1.0110   -5.9520 c3        1 CDS     -0.123400
     31 N18         5.6950   -2.5650   -4.1490 nd        1 CDS     -0.672000
     32 C17         4.6390   -3.3200   -3.8520 cc        1 CDS      0.324300
     33 S16         3.3500   -3.2380   -4.9470 ss        1 CDS     -0.030300
     34 H331        7.4280   -1.7160   -2.0720 hn        1 CDS      0.421300
     35 H332        6.6440   -0.4330   -2.7800 hn        1 CDS      0.421300
     36 H29         4.3230   -1.6520    2.0930 h4        1 CDS      0.199000
     37 H271       -0.2610   -1.8460    2.3490 h1        1 CDS      0.065700
     38 H272        0.3000   -0.4410    3.4000 h1        1 CDS      0.065700
     39 H273       -1.1380   -0.2230    2.2630 h1        1 CDS      0.065700
     40 HN21        2.1650   -0.6960   -2.1600 hn        1 CDS      0.491300
     41 H7          0.2440    1.3290   -2.2630 hx        1 CDS      0.118700
     42 H8         -0.5780   -0.1640   -4.3310 h4        1 CDS      0.155200
     43 H6          1.1140    2.8810   -3.5640 h2        1 CDS      0.108700
     44 HN5        -0.2250    1.8990   -5.2740 hn        1 CDS      0.436800
     45 H21         4.4550    0.4770   -5.4830 h1        1 CDS      0.088700
     46 H22         3.9600    1.9840   -6.3790 h1        1 CDS      0.088700
     47 H13         2.4270   -0.3960   -8.3380 ha        1 CDS      0.186000
     48 H14         3.8740   -2.2920   -8.0100 ha        1 CDS      0.143000
     49 H201        6.7790   -0.1940   -5.2470 hc        1 CDS      0.051367
     50 H202        6.0830   -0.5530   -6.8910 hc        1 CDS      0.051367
     51 H203        7.3970   -1.6050   -6.2050 hc        1 CDS      0.051367
     52 H17         4.6310   -3.9520   -2.9600 h5        1 CDS      0.046100
     53 H212        3.0270    0.7030   -2.6250 hn        1 CDS      0.491300
@<TRIPOS>BOND
     1    1    2 2   
     2    2    3 1   
     3    2   13 1   
     4    3    4 1   
     5    3   10 2   
     6    4    5 1   
     7    4    9 2   
     8    5    6 2   
     9    6    7 1   
    10    6    8 1   
    11    7   34 1   
    12    7   35 1   
    13    8    9 1   
    14    9   36 1   
    15   10   11 1   
    16   11   12 1   
    17   12   37 1   
    18   12   38 1   
    19   12   39 1   
    20   13   14 1   
    21   13   40 1   
    22   13   53 1   
    23   14   15 1   
    24   14   17 1   
    25   14   41 1   
    26   15   16 2   
    27   15   42 1   
    28   17   18 1   
    29   17   19 1   
    30   17   43 1   
    31   18   25 1   
    32   19   20 1   
    33   19   44 1   
    34   20   21 1   
    35   20   24 2   
    36   21   22 1   
    37   21   23 1   
    38   24   25 1   
    39   24   26 1   
    40   25   45 1   
    41   25   46 1   
    42   26   27 2   
    43   26   47 1   
    44   27   28 1   
    45   27   48 1   
    46   28   29 2   
    47   28   33 1   
    48   29   30 1   
    49   29   31 1   
    50   30   49 1   
    51   30   50 1   
    52   30   51 1   
    53   31   32 2   
    54   32   33 1   
    55   32   52 1   
@<TRIPOS>SUBSTRUCTURE
     1 CDS         1 TEMP              0 ****  ****    0 ROOT
