@<TRIPOS>MOLECULE
CDS
   52    54     1     0     0
SMALL
bcc


@<TRIPOS>ATOM
      1 O23        -3.3360   -1.9900   -1.2250 o         1 CDS     -0.594100
      2 C22        -2.9870   -1.1720   -0.3550 c         1 CDS      0.586800
      3 C24        -4.0020   -0.2540    0.3020 ce        1 CDS      0.295300
      4 C28        -3.7760    1.1840    0.0930 cc        1 CDS      0.326000
      5 N32        -2.9800    1.6120   -0.9680 nc        1 CDS     -0.652000
      6 C31        -2.8800    2.9520   -0.9440 cd        1 CDS      0.604300
      7 N33        -2.2410    3.7630   -1.8900 nh        1 CDS     -0.879500
      8 S30        -3.7670    3.6960    0.3750 ss        1 CDS     -0.118300
      9 C29        -4.2640    2.1980    0.9110 cd        1 CDS     -0.230400
     10 N25        -5.0380   -0.6470    0.9980 n2        1 CDS     -0.407200
     11 O26        -5.1520   -1.9470    1.1860 os        1 CDS     -0.162300
     12 C27        -6.3360   -2.3300    1.9220 c3        1 CDS      0.130700
     13 N21        -1.6940   -1.0390    0.0860 n         1 CDS     -0.534900
     14 C7         -0.6140   -1.8640   -0.3920 c3        1 CDS     -0.040300
     15 C8          0.3420   -2.3200    0.7130 c         1 CDS      0.544900
     16 O9          0.1550   -2.0540    1.9010 o         1 CDS     -0.544100
     17 C6          0.1650   -1.1970   -1.5690 c3        1 CDS      0.277600
     18 S1          0.7640    0.4540   -1.0580 ss        1 CDS     -0.356200
     19 N5          1.1720   -2.0420   -2.1780 nh        1 CDS     -0.703000
     20 C4          2.5080   -1.9000   -1.7510 ce        1 CDS      0.035800
     21 C10         3.2560   -3.2110   -1.4120 c         1 CDS      0.914800
     22 O12         4.4520   -3.3330   -1.7640 o         1 CDS     -0.805300
     23 O11         2.5670   -4.0740   -0.7950 o         1 CDS     -0.805300
     24 C3          3.0740   -0.6600   -1.6330 cf        1 CDS     -0.206200
     25 C2          2.2870    0.5250   -2.0170 c3        1 CDS      0.082900
     26 C13         4.3900   -0.4680   -1.0600 cf        1 CDS     -0.046000
     27 C14         4.6960    0.3740   -0.0540 ce        1 CDS     -0.142200
     28 C15         3.8180    1.2080    0.7150 cc        1 CDS     -0.136200
     29 C19         4.2640    2.2190    1.5850 cd        1 CDS      0.302600
     30 C20         5.6910    2.5770    1.7570 c3        1 CDS     -0.113400
     31 N18         3.2590    2.8740    2.2920 nd        1 CDS     -0.650000
     32 C17         2.0800    2.3530    1.9590 cc        1 CDS      0.293300
     33 S16         2.1250    1.1060    0.8120 ss        1 CDS     -0.014300
     34 H331       -1.9240    3.2500   -2.6930 hn        1 CDS      0.393800
     35 H332       -1.4840    4.2730   -1.4760 hn        1 CDS      0.393800
     36 H29        -4.8850    2.0450    1.7920 h4        1 CDS      0.190000
     37 H271       -6.2300   -3.4420    1.9660 h1        1 CDS      0.047033
     38 H272       -6.3280   -1.8850    2.9440 h1        1 CDS      0.047033
     39 H273       -7.2580   -2.0350    1.3690 h1        1 CDS      0.047033
     40 HN21       -1.4690   -0.3620    0.7770 hn        1 CDS      0.330500
     41 H7         -1.0750   -2.8170   -0.8120 h1        1 CDS      0.104700
     42 H8          1.1990   -2.9480    0.3560 h4        1 CDS      0.101200
     43 H6         -0.5880   -0.9780   -2.3820 h2        1 CDS      0.089700
     44 HN5         0.8980   -3.0130   -2.1380 hn        1 CDS      0.413800
     45 H21         2.0300    0.5130   -3.1030 h1        1 CDS      0.076700
     46 H22         2.7910    1.4880   -1.7700 h1        1 CDS      0.076700
     47 H13         5.1700   -1.1370   -1.4770 ha        1 CDS      0.171000
     48 H14         5.7530    0.4230    0.2720 ha        1 CDS      0.120000
     49 H201        6.1510    2.7910    0.7600 hc        1 CDS      0.038700
     50 H202        5.8220    3.4740    2.4100 hc        1 CDS      0.038700
     51 H203        6.2390    1.7180    2.2210 hc        1 CDS      0.038700
     52 H17         1.1630    2.7360    2.4140 h5        1 CDS      0.026100
@<TRIPOS>BOND
     1    1    2 2   
     2    2    3 1   
     3    2   13 1   
     4    3    4 1   
     5    3   10 2   
     6    4    5 1   
     7    4    9 2   
     8    5    6 2   
     9    6    7 1   
    10    6    8 1   
    11    7   34 1   
    12    7   35 1   
    13    8    9 1   
    14    9   36 1   
    15   10   11 1   
    16   11   12 1   
    17   12   37 1   
    18   12   38 1   
    19   12   39 1   
    20   13   14 1   
    21   13   40 1   
    22   14   15 1   
    23   14   17 1   
    24   14   41 1   
    25   15   16 2   
    26   15   42 1   
    27   17   18 1   
    28   17   19 1   
    29   17   43 1   
    30   18   25 1   
    31   19   20 1   
    32   19   44 1   
    33   20   21 1   
    34   20   24 2   
    35   21   22 1   
    36   21   23 1   
    37   24   25 1   
    38   24   26 1   
    39   25   45 1   
    40   25   46 1   
    41   26   27 2   
    42   26   47 1   
    43   27   28 1   
    44   27   48 1   
    45   28   29 2   
    46   28   33 1   
    47   29   30 1   
    48   29   31 1   
    49   30   49 1   
    50   30   50 1   
    51   30   51 1   
    52   31   32 2   
    53   32   33 1   
    54   32   52 1   
@<TRIPOS>SUBSTRUCTURE
     1 CDS         1 TEMP              0 ****  ****    0 ROOT
