@<TRIPOS>MOLECULE
CDS
   54    56     1     0     0
SMALL
bcc


@<TRIPOS>ATOM
      1 O23         0.3140    1.0860   -0.2650 o         1 CDS     -0.377100
      2 C22         1.1810    0.2330   -0.3520 c         1 CDS      0.461800
      3 C24         2.0720   -0.2250    0.7680 ce        1 CDS      0.219300
      4 C28         3.4810    0.1620    0.6250 cc        1 CDS      0.327000
      5 N32         3.8740    0.7840   -0.5370 nc        1 CDS     -0.644000
      6 C31         5.2160    0.9780   -0.5220 cd        1 CDS      0.364300
      7 N33         5.8510    1.5040   -1.7120 n4        1 CDS     -0.849300
      8 S30         5.9680    0.4680    0.9270 ss        1 CDS      0.216700
      9 C29         4.5320   -0.0610    1.5330 cd        1 CDS     -0.209400
     10 N25         1.6630   -0.8610    1.8430 n2        1 CDS     -0.290200
     11 O26         0.4090   -1.1880    1.8860 os        1 CDS     -0.168300
     12 C27        -0.0210   -1.8490    3.1210 c3        1 CDS      0.131700
     13 N21         1.3940   -0.4460   -1.6730 n4        1 CDS     -0.656800
     14 C7          1.1050    0.4010   -2.8850 c3        1 CDS     -0.063500
     15 C8          0.4860   -0.4460   -4.0200 c         1 CDS      0.556900
     16 O9          0.3040   -1.6470   -3.8440 o         1 CDS     -0.522100
     17 C6          2.3430    1.2420   -3.3240 c3        1 CDS      0.332600
     18 S1          3.8250    0.1730   -3.4340 ss        1 CDS     -0.463200
     19 N5          2.1860    2.0370   -4.5030 nh        1 CDS     -0.700000
     20 C4          2.2140    1.3830   -5.7580 ce        1 CDS     -0.010200
     21 C10         1.0010    1.7290   -6.6860 c         1 CDS      0.924800
     22 O12         1.2260    2.0490   -7.8620 o         1 CDS     -0.761800
     23 O11        -0.1100    1.6450   -6.0830 o         1 CDS     -0.761800
     24 C3          3.1980    0.5030   -6.0990 cf        1 CDS     -0.158200
     25 C2          4.3190    0.2290   -5.1880 c3        1 CDS      0.122900
     26 C13         3.2180   -0.1050   -7.4210 cf        1 CDS     -0.075000
     27 C14         3.5450   -1.3590   -7.7630 ce        1 CDS     -0.115200
     28 C15         3.9180   -2.4560   -6.9080 cc        1 CDS     -0.162200
     29 C19         5.2130   -2.8410   -6.5400 cd        1 CDS      0.317600
     30 C20         6.4460   -2.1450   -6.9760 c3        1 CDS     -0.125400
     31 N18         5.2670   -3.9790   -5.7360 nd        1 CDS     -0.631000
     32 C17         4.0360   -4.4410   -5.5440 cc        1 CDS      0.343300
     33 S16         2.7950   -3.5500   -6.2890 ss        1 CDS     -0.051300
     34 H331        6.8020    1.1410   -1.7920 hn        1 CDS      0.477133
     35 H332        5.2350    1.1760   -2.5910 hn        1 CDS      0.477133
     36 H29         4.4040   -0.5290    2.5160 h4        1 CDS      0.235000
     37 H271        0.5300   -2.8090    3.2530 h1        1 CDS      0.082033
     38 H272       -1.1060   -2.0180    2.9000 h1        1 CDS      0.082033
     39 H273        0.1220   -1.1660    3.9900 h1        1 CDS      0.082033
     40 HN21        2.3550   -0.8110   -1.7540 hn        1 CDS      0.478300
     41 H7          0.2910    1.1450   -2.5970 hx        1 CDS      0.149700
     42 H8          0.1790    0.1460   -4.9320 h4        1 CDS      0.178200
     43 H6          2.5560    1.9580   -2.4780 h2        1 CDS      0.084700
     44 HN5         1.3810    2.6480   -4.4420 hn        1 CDS      0.442800
     45 H21         4.8050   -0.7610   -5.3820 h1        1 CDS      0.094200
     46 H22         5.0780    1.0470   -5.2490 h1        1 CDS      0.094200
     47 H13         2.8810    0.5960   -8.2200 ha        1 CDS      0.198000
     48 H14         3.5130   -1.6300   -8.8380 ha        1 CDS      0.154000
     49 H201        7.0640   -2.8250   -7.6160 hc        1 CDS      0.052367
     50 H202        7.0640   -1.8390   -6.0960 hc        1 CDS      0.052367
     51 H203        6.1800   -1.2370   -7.5710 hc        1 CDS      0.052367
     52 H17         3.8570   -5.3470   -4.9580 h5        1 CDS      0.055100
     53 H333        5.8720    2.5270   -1.6780 hn        1 CDS      0.477133
     54 H212        0.7510   -1.2610   -1.7190 hn        1 CDS      0.478300
@<TRIPOS>BOND
     1    1    2 2   
     2    2    3 1   
     3    2   13 1   
     4    3    4 1   
     5    3   10 2   
     6    4    5 1   
     7    4    9 2   
     8    5    6 2   
     9    6    7 1   
    10    6    8 1   
    11    7   34 1   
    12    7   35 1   
    13    7   53 1   
    14    8    9 1   
    15    9   36 1   
    16   10   11 1   
    17   11   12 1   
    18   12   37 1   
    19   12   38 1   
    20   12   39 1   
    21   13   14 1   
    22   13   40 1   
    23   13   54 1   
    24   14   15 1   
    25   14   17 1   
    26   14   41 1   
    27   15   16 2   
    28   15   42 1   
    29   17   18 1   
    30   17   19 1   
    31   17   43 1   
    32   18   25 1   
    33   19   20 1   
    34   19   44 1   
    35   20   21 1   
    36   20   24 2   
    37   21   22 1   
    38   21   23 1   
    39   24   25 1   
    40   24   26 1   
    41   25   45 1   
    42   25   46 1   
    43   26   27 2   
    44   26   47 1   
    45   27   28 1   
    46   27   48 1   
    47   28   29 2   
    48   28   33 1   
    49   29   30 1   
    50   29   31 1   
    51   30   49 1   
    52   30   50 1   
    53   30   51 1   
    54   31   32 2   
    55   32   33 1   
    56   32   52 1   
@<TRIPOS>SUBSTRUCTURE
     1 CDS         1 TEMP              0 ****  ****    0 ROOT
