@<TRIPOS>MOLECULE
CDS
   53    55     1     0     0
SMALL
bcc


@<TRIPOS>ATOM
      1 O23         1.8040    1.9260   -0.4420 o         1 CDS     -0.427100
      2 C22         2.1750    0.7920   -0.7120 c         1 CDS      0.469800
      3 C24         2.6640   -0.2220    0.2850 ce        1 CDS      0.270300
      4 C28         4.0470   -0.6830    0.1140 cc        1 CDS      0.305000
      5 N32         4.7060   -0.4700   -1.0960 nc        1 CDS     -0.764000
      6 C31         5.9520   -0.9850   -1.0300 cd        1 CDS      0.662300
      7 N33         6.9410   -0.8640   -1.9920 nv        1 CDS     -0.875500
      8 S30         6.3060   -1.7310    0.5200 ss        1 CDS     -0.063300
      9 C29         4.7810   -1.3620    1.0780 cd        1 CDS     -0.217400
     10 N25         1.9360   -0.6630    1.2840 n2        1 CDS     -0.340200
     11 O26         0.7110   -0.2090    1.3580 os        1 CDS     -0.181300
     12 C27        -0.0550   -0.7250    2.4820 c3        1 CDS      0.132700
     13 N21         2.1550    0.3400   -2.1280 ny        1 CDS     -0.679800
     14 C7          0.9760    0.8050   -2.9260 c3        1 CDS     -0.065500
     15 C8          0.1730   -0.3890   -3.4800 c         1 CDS      0.549900
     16 O9          0.3760   -1.5140   -3.0250 o         1 CDS     -0.532100
     17 C6          1.3830    1.8850   -4.0040 c3        1 CDS      0.297600
     18 S1          3.1840    1.9780   -4.1760 ss        1 CDS     -0.333200
     19 N5          0.7430    1.8060   -5.2740 nu        1 CDS     -0.699000
     20 C4          1.1270    0.7720   -6.1530 ce        1 CDS      0.008800
     21 C10        -0.0590    0.0640   -6.8740 c         1 CDS      0.921800
     22 O12        -1.0970   -0.0740   -6.1610 o         1 CDS     -0.785300
     23 O11         0.0930   -0.2980   -8.0570 o         1 CDS     -0.785300
     24 C3          2.4310    0.4330   -6.3510 cf        1 CDS     -0.188200
     25 C2          3.5540    1.1560   -5.7180 c3        1 CDS      0.068900
     26 C13         2.7990   -0.5810   -7.3300 cf        1 CDS     -0.024000
     27 C14         3.5750   -1.6590   -7.1470 ce        1 CDS     -0.158200
     28 C15         4.1460   -2.1440   -5.9190 cc        1 CDS     -0.124200
     29 C19         5.4140   -1.8950   -5.3840 cd        1 CDS      0.310600
     30 C20         6.4320   -1.0240   -6.0150 c3        1 CDS     -0.123400
     31 N18         5.6770   -2.5700   -4.1910 nd        1 CDS     -0.672000
     32 C17         4.6270   -3.3230   -3.8710 cc        1 CDS      0.324300
     33 S16         3.3170   -3.2440   -4.9420 ss        1 CDS     -0.030300
     34 H331        7.4490   -1.7120   -2.1500 hn        1 CDS      0.421300
     35 H332        6.6510   -0.4320   -2.8490 hn        1 CDS      0.421300
     36 H29         4.4230   -1.6290    2.0720 h4        1 CDS      0.199000
     37 H271       -1.0380   -0.2100    2.3330 h1        1 CDS      0.065700
     38 H272        0.4200   -0.4250    3.4450 h1        1 CDS      0.065700
     39 H273       -0.1580   -1.8320    2.4070 h1        1 CDS      0.065700
     40 HN21        2.1840   -0.6920   -2.1460 hn        1 CDS      0.491300
     41 H7          0.2630    1.3340   -2.2200 hx        1 CDS      0.118700
     42 H8         -0.5990   -0.1660   -4.2670 h4        1 CDS      0.155200
     43 H6          1.1100    2.8810   -3.5430 h2        1 CDS      0.108700
     44 HN5        -0.2610    1.8940   -5.2240 hn        1 CDS      0.436800
     45 H21         3.9030    1.9710   -6.4060 h1        1 CDS      0.088700
     46 H22         4.4140    0.4670   -5.5130 h1        1 CDS      0.088700
     47 H13         2.3330   -0.4160   -8.3270 ha        1 CDS      0.186000
     48 H14         3.7850   -2.3110   -8.0180 ha        1 CDS      0.143000
     49 H201        7.3410   -1.6190   -6.2830 hc        1 CDS      0.051367
     50 H202        6.0150   -0.5690   -6.9470 hc        1 CDS      0.051367
     51 H203        6.7420   -0.2040   -5.3180 hc        1 CDS      0.051367
     52 H17         4.6350   -3.9510   -2.9770 h5        1 CDS      0.046100
     53 H212        3.0380    0.7050   -2.6300 hn        1 CDS      0.491300
@<TRIPOS>BOND
     1    1    2 2   
     2    2    3 1   
     3    2   13 1   
     4    3    4 1   
     5    3   10 2   
     6    4    5 1   
     7    4    9 2   
     8    5    6 2   
     9    6    7 1   
    10    6    8 1   
    11    7   34 1   
    12    7   35 1   
    13    8    9 1   
    14    9   36 1   
    15   10   11 1   
    16   11   12 1   
    17   12   37 1   
    18   12   38 1   
    19   12   39 1   
    20   13   14 1   
    21   13   40 1   
    22   13   53 1   
    23   14   15 1   
    24   14   17 1   
    25   14   41 1   
    26   15   16 2   
    27   15   42 1   
    28   17   18 1   
    29   17   19 1   
    30   17   43 1   
    31   18   25 1   
    32   19   20 1   
    33   19   44 1   
    34   20   21 1   
    35   20   24 2   
    36   21   22 1   
    37   21   23 1   
    38   24   25 1   
    39   24   26 1   
    40   25   45 1   
    41   25   46 1   
    42   26   27 2   
    43   26   47 1   
    44   27   28 1   
    45   27   48 1   
    46   28   29 2   
    47   28   33 1   
    48   29   30 1   
    49   29   31 1   
    50   30   49 1   
    51   30   50 1   
    52   30   51 1   
    53   31   32 2   
    54   32   33 1   
    55   32   52 1   
@<TRIPOS>SUBSTRUCTURE
     1 CDS         1 TEMP              0 ****  ****    0 ROOT
