@<TRIPOS>MOLECULE
CDT
   23    22     1     0     0
SMALL
bcc


@<TRIPOS>ATOM
      1 NT         -3.7560   -0.7050    1.9520 n         1 CDT     -0.654000
      2 CT         -2.3530   -0.8530    1.7990 c         1 CDT      0.720100
      3 OT         -1.6660   -1.1520    2.7550 o         1 CDT     -0.667100
      4 N          -1.7540   -0.6540    0.5280 n         1 CDT     -0.482900
      5 CA         -0.3480   -0.7840    0.3780 c3        1 CDT     -0.065300
      6 CB          0.0920   -0.0750   -0.8830 c3        1 CDT     -0.053400
      7 CG          1.3890    0.6590   -0.6220 c3        1 CDT      0.006700
      8 SD          1.6470    1.8730   -1.8880 ss        1 CDT     -0.393200
      9 CE          3.2480    2.6070   -1.6860 c3        1 CDT     -0.035000
     10 C           0.0160   -2.2490    0.2860 c         1 CDT      0.899600
     11 O          -0.4920   -2.9680   -0.6140 o         1 CDT     -0.835800
     12 OXT         0.8310   -2.7480    1.1050 o         1 CDT     -0.835800
     13 HT1        -4.2730   -0.4780    1.2330 hn        1 CDT      0.279500
     14 HT2        -4.1430   -0.8380    2.7700 hn        1 CDT      0.279500
     15 HN1        -2.2710   -0.4320   -0.1900 hn        1 CDT      0.297500
     16 HA          0.1000   -0.3850    1.1500 h1        1 CDT      0.073700
     17 HB1         0.2260   -0.7310   -1.5960 hc        1 CDT      0.041200
     18 HB2        -0.5960    0.5660   -1.1540 hc        1 CDT      0.041200
     19 HG1         2.1310    0.0210   -0.6270 h1        1 CDT      0.085700
     20 HG2         1.3450    1.1000    0.2490 h1        1 CDT      0.085700
     21 HE1         3.2020    3.5580   -1.9180 h1        1 CDT      0.070367
     22 HE2         3.8900    2.1580   -2.2750 h1        1 CDT      0.070367
     23 HE3         3.5360    2.5110   -0.7540 h1        1 CDT      0.070367
@<TRIPOS>BOND
     1    1    2 1   
     2    1   13 1   
     3    1   14 1   
     4    2    3 2   
     5    2    4 1   
     6    4    5 1   
     7    4   15 1   
     8    5    6 1   
     9    5   10 1   
    10    5   16 1   
    11    6    7 1   
    12    6   17 1   
    13    6   18 1   
    14    7    8 1   
    15    7   19 1   
    16    7   20 1   
    17    8    9 1   
    18    9   21 1   
    19    9   22 1   
    20    9   23 1   
    21   10   11 1   
    22   10   12 1   
@<TRIPOS>SUBSTRUCTURE
     1 CDT         1 TEMP              0 ****  ****    0 ROOT
