@<TRIPOS>MOLECULE
CDT
   25    24     1     0     0
SMALL
bcc


@<TRIPOS>ATOM
      1 NT          0.2370   -0.7740    0.7480 n4        1 CDT     -0.770400
      2 CT          1.4140    0.2030    0.5860 c         1 CDT      0.640100
      3 OT          1.9900    0.4600    1.6370 o         1 CDT     -0.409100
      4 N           1.6800    0.7280   -0.6830 n         1 CDT     -0.453900
      5 CA          2.9960    0.3800   -1.2270 c3        1 CDT     -0.026300
      6 CB          3.1870    0.9390   -2.6450 c3        1 CDT     -0.072400
      7 CG          3.2890    2.4420   -2.6460 c3        1 CDT     -0.038300
      8 SD          3.4810    2.9210   -4.3370 ss        1 CDT     -0.264200
      9 CE          3.9500    4.6040   -4.2130 c3        1 CDT     -0.043000
     10 C           3.2030   -1.1410   -1.2260 c         1 CDT      0.617100
     11 O           2.3570   -1.9380   -0.7940 o         1 CDT     -0.567000
     12 OXT         4.3420   -1.7040   -1.6640 oh        1 CDT     -0.506100
     13 HT1         0.4890   -1.6560    0.2710 hn        1 CDT      0.477800
     14 HT2        -0.6290   -0.4060    0.3550 hn        1 CDT      0.477800
     15 HN1         4.9760   -1.0290   -1.9610 ho        1 CDT      0.458000
     16 HA          3.7720    0.8360   -0.5360 h1        1 CDT      0.132700
     17 HB1         4.1330    0.5010   -3.0660 hc        1 CDT      0.085200
     18 HB2         2.3460    0.6080   -3.3140 hc        1 CDT      0.085200
     19 HG1         2.3730    2.9120   -2.2120 h1        1 CDT      0.073200
     20 HG2         4.1610    2.7840   -2.0360 h1        1 CDT      0.073200
     21 HE1         3.1590    5.2270   -3.7400 h1        1 CDT      0.077033
     22 HE2         4.8990    4.7350   -3.6470 h1        1 CDT      0.077033
     23 HE3         4.1030    4.9490   -5.2640 h1        1 CDT      0.077033
     24 HT3         0.1040   -0.9610    1.7500 hn        1 CDT      0.477800
     25 H2          0.9420    0.6630   -1.3610 hn        1 CDT      0.320500
@<TRIPOS>BOND
     1    1    2 1   
     2    1   13 1   
     3    1   14 1   
     4    1   24 1   
     5    2    3 2   
     6    2    4 1   
     7    4    5 1   
     8    4   25 1   
     9    5    6 1   
    10    5   10 1   
    11    5   16 1   
    12    6    7 1   
    13    6   17 1   
    14    6   18 1   
    15    7    8 1   
    16    7   19 1   
    17    7   20 1   
    18    8    9 1   
    19    9   21 1   
    20    9   22 1   
    21    9   23 1   
    22   10   11 2   
    23   10   12 1   
    24   12   15 1   
@<TRIPOS>SUBSTRUCTURE
     1 CDT         1 TEMP              0 ****  ****    0 ROOT
