@<TRIPOS>MOLECULE
CDT
   25    24     1     0     0
SMALL
bcc


@<TRIPOS>ATOM
      1 NT          0.2410   -0.7960    0.7350 nz        1 CDT     -0.770400
      2 CT          1.4070    0.1950    0.5790 c         1 CDT      0.640100
      3 OT          1.9700    0.4640    1.6340 o         1 CDT     -0.409100
      4 N           1.6760    0.7180   -0.6900 ns        1 CDT     -0.453900
      5 CA          3.0000    0.3860   -1.2220 c3        1 CDT     -0.026300
      6 CB          3.1960    0.9420   -2.6400 c3        1 CDT     -0.072400
      7 CG          3.2780    2.4460   -2.6470 c3        1 CDT     -0.038300
      8 SD          3.4800    2.9210   -4.3370 ss        1 CDT     -0.264200
      9 CE          3.9270    4.6100   -4.2150 c3        1 CDT     -0.043000
     10 C           3.2270   -1.1320   -1.2140 c         1 CDT      0.617100
     11 O           2.3880   -1.9390   -0.7850 o         1 CDT     -0.567000
     12 OXT         4.3770   -1.6830   -1.6400 oh        1 CDT     -0.506100
     13 HT1        -0.6270   -0.4410    0.3340 hn        1 CDT      0.477800
     14 HT2         0.5080   -1.6770    0.2640 hn        1 CDT      0.477800
     15 HN1         0.9450    0.6420   -1.3740 hn        1 CDT      0.320500
     16 HA          3.7650    0.8550   -0.5270 h1        1 CDT      0.132700
     17 HB1         2.3650    0.5980   -3.3150 hc        1 CDT      0.085200
     18 HB2         4.1510    0.5150   -3.0520 hc        1 CDT      0.085200
     19 HG1         2.3530    2.9060   -2.2230 h1        1 CDT      0.073200
     20 HG2         4.1400    2.8020   -2.0300 h1        1 CDT      0.073200
     21 HE1         4.0870    4.9530   -5.2660 h1        1 CDT      0.077033
     22 HE2         4.8690    4.7550   -3.6410 h1        1 CDT      0.077033
     23 HE3         3.1240    5.2250   -3.7520 h1        1 CDT      0.077033
     24 HT3         0.1020   -0.9810    1.7360 hn        1 CDT      0.477800
     25 H2          5.0040   -1.0010   -1.9340 ho        1 CDT      0.458000
@<TRIPOS>BOND
     1    1    2 1   
     2    1   13 1   
     3    1   14 1   
     4    1   24 1   
     5    2    3 2   
     6    2    4 1   
     7    4    5 1   
     8    4   15 1   
     9    5    6 1   
    10    5   10 1   
    11    5   16 1   
    12    6    7 1   
    13    6   17 1   
    14    6   18 1   
    15    7    8 1   
    16    7   19 1   
    17    7   20 1   
    18    8    9 1   
    19    9   21 1   
    20    9   22 1   
    21    9   23 1   
    22   10   11 2   
    23   10   12 1   
    24   12   25 1   
@<TRIPOS>SUBSTRUCTURE
     1 CDT         1 TEMP              0 ****  ****    0 ROOT
