@<TRIPOS>MOLECULE
CDT
   23    22     1     0     0
SMALL
bcc


@<TRIPOS>ATOM
      1 NT          2.7320   -0.7620   -2.4830 n         1 CDT     -0.654000
      2 CT          1.9060   -0.0810   -1.5550 c         1 CDT      0.719100
      3 OT          2.3180    1.0240   -1.1130 o         1 CDT     -0.673100
      4 N           0.7640   -0.7210   -1.0510 n         1 CDT     -0.486900
      5 CA         -0.3680    0.1100   -0.6560 c3        1 CDT     -0.065300
      6 CB         -0.8250   -0.1830    0.7780 c3        1 CDT     -0.057400
      7 CG          0.1870    0.2920    1.7860 c3        1 CDT      0.014700
      8 SD         -0.4410   -0.0520    3.4170 ss        1 CDT     -0.343200
      9 CE          0.8790    0.5050    4.4260 c3        1 CDT     -0.035000
     10 C          -1.6060   -0.0850   -1.6110 c         1 CDT      0.904600
     11 O          -2.5980    0.6600   -1.4030 o         1 CDT     -0.829300
     12 OXT        -1.5230   -0.9550   -2.5240 o         1 CDT     -0.829300
     13 HT1         3.4410   -0.1880   -2.8750 hn        1 CDT      0.279000
     14 HT2         2.2820   -1.3660   -3.1290 hn        1 CDT      0.279000
     15 HN1         0.4430   -1.5080   -1.5900 hn        1 CDT      0.301500
     16 HA         -0.0730    1.1980   -0.7160 h1        1 CDT      0.069700
     17 HB1        -1.0150   -1.2800    0.9090 hc        1 CDT      0.064700
     18 HB2        -1.8020    0.3550    0.9180 hc        1 CDT      0.064700
     19 HG1         0.3640    1.3890    1.6770 h1        1 CDT      0.062200
     20 HG2         1.1640   -0.2280    1.6460 h1        1 CDT      0.062200
     21 HE1         0.5780    0.3210    5.4820 h1        1 CDT      0.050033
     22 HE2         1.8210   -0.0480    4.2130 h1        1 CDT      0.050033
     23 HE3         1.0730    1.5920    4.2860 h1        1 CDT      0.050033
@<TRIPOS>BOND
     1    1    2 1   
     2    1   13 1   
     3    1   14 1   
     4    2    3 2   
     5    2    4 1   
     6    4    5 1   
     7    4   15 1   
     8    5    6 1   
     9    5   10 1   
    10    5   16 1   
    11    6    7 1   
    12    6   17 1   
    13    6   18 1   
    14    7    8 1   
    15    7   19 1   
    16    7   20 1   
    17    8    9 1   
    18    9   21 1   
    19    9   22 1   
    20    9   23 1   
    21   10   11 1   
    22   10   12 1   
@<TRIPOS>SUBSTRUCTURE
     1 CDT         1 TEMP              0 ****  ****    0 ROOT
