@<TRIPOS>MOLECULE
CDT
   25    24     1     0     0
SMALL
bcc


@<TRIPOS>ATOM
      1 NT          0.1650   -0.7990    0.6520 n4        1 CDT     -0.770400
      2 CT          1.3470    0.1770    0.5370 c         1 CDT      0.640100
      3 OT          1.8930    0.4200    1.6080 o         1 CDT     -0.409100
      4 N           1.6510    0.7180   -0.7170 n         1 CDT     -0.453900
      5 CA          2.9810    0.3740   -1.2270 c3        1 CDT     -0.026300
      6 CB          3.2140    0.9510   -2.6310 c3        1 CDT     -0.072400
      7 CG          3.3190    2.4530   -2.6100 c3        1 CDT     -0.038300
      8 SD          3.5610    2.9540   -4.2880 ss        1 CDT     -0.264200
      9 CE          4.0340    4.6330   -4.1290 c3        1 CDT     -0.043000
     10 C           3.1850   -1.1470   -1.2400 c         1 CDT      0.617100
     11 O           2.3260   -1.9480   -0.8430 o         1 CDT     -0.567000
     12 OXT         4.3360   -1.7080   -1.6510 oh        1 CDT     -0.506100
     13 HT1        -0.6900   -0.4240    0.2390 hn        1 CDT      0.477800
     14 HT2         0.4290   -1.6750    0.1720 hn        1 CDT      0.477800
     15 HN1         4.9790   -1.0300   -1.9210 ho        1 CDT      0.458000
     16 HA          3.7380    0.8200   -0.5080 h1        1 CDT      0.132700
     17 HB1         4.1720    0.5160   -3.0310 hc        1 CDT      0.085200
     18 HB2         2.3920    0.6310   -3.3290 hc        1 CDT      0.085200
     19 HG1         4.1740    2.7860   -1.9700 h1        1 CDT      0.073200
     20 HG2         2.3920    2.9200   -2.1960 h1        1 CDT      0.073200
     21 HE1         4.9670    4.7520   -3.5350 h1        1 CDT      0.077033
     22 HE2         3.2330    5.2530   -3.6700 h1        1 CDT      0.077033
     23 HE3         4.2190    4.9910   -5.1700 h1        1 CDT      0.077033
     24 HT3         0.0030   -0.9980    1.6470 hn        1 CDT      0.477800
     25 H2          0.9330    0.6640   -1.4160 hn        1 CDT      0.320500
@<TRIPOS>BOND
     1    1    2 1   
     2    1   13 1   
     3    1   14 1   
     4    1   24 1   
     5    2    3 2   
     6    2    4 1   
     7    4    5 1   
     8    4   25 1   
     9    5    6 1   
    10    5   10 1   
    11    5   16 1   
    12    6    7 1   
    13    6   17 1   
    14    6   18 1   
    15    7    8 1   
    16    7   19 1   
    17    7   20 1   
    18    8    9 1   
    19    9   21 1   
    20    9   22 1   
    21    9   23 1   
    22   10   11 2   
    23   10   12 1   
    24   12   15 1   
@<TRIPOS>SUBSTRUCTURE
     1 CDT         1 TEMP              0 ****  ****    0 ROOT
