@<TRIPOS>MOLECULE
CDU
   54    54     1     0     0
SMALL
bcc


@<TRIPOS>ATOM
      1 C1          1.3990    0.7870   -7.0220 c3        1 CDU     -0.074900
      2 C2          0.4270    0.5010   -8.1480 c3        1 CDU     -0.079400
      3 C3         -0.4790   -0.6620   -7.8020 c3        1 CDU     -0.074900
      4 C4         -1.2120   -0.4280   -6.4980 c3        1 CDU     -0.091900
      5 C5         -0.2050   -0.1890   -5.3590 c3        1 CDU      0.084700
      6 C6          0.6780    1.0210   -5.7120 c3        1 CDU     -0.091900
      7 N1         -0.8910   -0.0590   -4.0840 n         1 CDU     -0.532900
      8 C8         -0.1510   -0.3120   -2.9070 c         1 CDU      0.732100
      9 O           0.9380   -0.9340   -2.9460 o         1 CDU     -0.631100
     10 N2         -0.6700    0.1430   -1.6760 n         1 CDU     -0.545900
     11 C11        -0.0900   -0.4090   -0.4720 c3        1 CDU      0.079000
     12 C12        -0.6150    0.2620    0.7960 c3        1 CDU     -0.088400
     13 C13         0.0490   -0.3510    2.0110 c3        1 CDU     -0.078400
     14 C14        -0.4500    0.2930    3.2870 c3        1 CDU     -0.078400
     15 C15         0.2120   -0.3170    4.5040 c3        1 CDU     -0.079400
     16 C16        -0.2860    0.3260    5.7800 c3        1 CDU     -0.078400
     17 C17         0.3760   -0.2840    6.9970 c3        1 CDU     -0.079400
     18 C18        -0.1220    0.3580    8.2740 c3        1 CDU     -0.079400
     19 C19         0.5400   -0.2510    9.4920 c3        1 CDU     -0.080400
     20 C20         0.0470    0.3860   10.7650 c3        1 CDU     -0.092100
     21 HC11        2.1060   -0.0760   -6.9100 hc        1 CDU      0.044200
     22 HC12        2.0110    1.6920   -7.2750 hc        1 CDU      0.044200
     23 HC21        0.9950    0.2700   -9.0860 hc        1 CDU      0.040200
     24 HC22       -0.1950    1.4140   -8.3470 hc        1 CDU      0.040200
     25 HC31        0.1310   -1.6010   -7.7250 hc        1 CDU      0.044200
     26 HC32       -1.2280   -0.8130   -8.6230 hc        1 CDU      0.044200
     27 HC41       -1.8490   -1.3190   -6.2620 hc        1 CDU      0.045450
     28 HC42       -1.8890    0.4600   -6.6000 hc        1 CDU      0.045450
     29 HC51        0.4670   -1.0980   -5.2800 h1        1 CDU      0.092700
     30 HC61        0.0470    1.9440   -5.7880 hc        1 CDU      0.045450
     31 HC62        1.4300    1.1820   -4.8960 hc        1 CDU      0.045450
     32 HN1        -1.5400    0.6970   -4.0500 hn        1 CDU      0.284500
     33 HN2        -1.6490    0.3180   -1.6280 hn        1 CDU      0.288500
     34 H111        1.0280   -0.2720   -0.5380 h1        1 CDU      0.053700
     35 H112       -0.2860   -1.5190   -0.4080 h1        1 CDU      0.053700
     36 H121       -1.7270    0.1350    0.8720 hc        1 CDU      0.045200
     37 H122       -0.4040    1.3630    0.7660 hc        1 CDU      0.045200
     38 H131        1.1610   -0.2250    1.9360 hc        1 CDU      0.044700
     39 H132       -0.1590   -1.4530    2.0400 hc        1 CDU      0.044700
     40 H141       -1.5630    0.1680    3.3620 hc        1 CDU      0.039700
     41 H142       -0.2430    1.3950    3.2590 hc        1 CDU      0.039700
     42 H151        1.3250   -0.1920    4.4280 hc        1 CDU      0.041200
     43 H152        0.0050   -1.4190    4.5320 hc        1 CDU      0.041200
     44 H161       -1.3980    0.2010    5.8550 hc        1 CDU      0.039200
     45 H162       -0.0790    1.4280    5.7520 hc        1 CDU      0.039200
     46 H171        1.4890   -0.1590    6.9220 hc        1 CDU      0.039700
     47 H172        0.1690   -1.3870    7.0250 hc        1 CDU      0.039700
     48 H181       -1.2340    0.2330    8.3490 hc        1 CDU      0.039200
     49 H182        0.0860    1.4600    8.2460 hc        1 CDU      0.039200
     50 H191        1.6530   -0.1260    9.4140 hc        1 CDU      0.038700
     51 H192        0.3330   -1.3530    9.5170 hc        1 CDU      0.038700
     52 H201        0.5480   -0.0780   11.6500 hc        1 CDU      0.032700
     53 H202        0.2670    1.4810   10.7700 hc        1 CDU      0.032700
     54 H203       -1.0560    0.2500   10.8730 hc        1 CDU      0.032700
@<TRIPOS>BOND
     1    1    2 1   
     2    1    6 1   
     3    1   21 1   
     4    1   22 1   
     5    2    3 1   
     6    2   23 1   
     7    2   24 1   
     8    3    4 1   
     9    3   25 1   
    10    3   26 1   
    11    4    5 1   
    12    4   27 1   
    13    4   28 1   
    14    5    6 1   
    15    5    7 1   
    16    5   29 1   
    17    6   30 1   
    18    6   31 1   
    19    7    8 1   
    20    7   32 1   
    21    8    9 2   
    22    8   10 1   
    23   10   11 1   
    24   10   33 1   
    25   11   12 1   
    26   11   34 1   
    27   11   35 1   
    28   12   13 1   
    29   12   36 1   
    30   12   37 1   
    31   13   14 1   
    32   13   38 1   
    33   13   39 1   
    34   14   15 1   
    35   14   40 1   
    36   14   41 1   
    37   15   16 1   
    38   15   42 1   
    39   15   43 1   
    40   16   17 1   
    41   16   44 1   
    42   16   45 1   
    43   17   18 1   
    44   17   46 1   
    45   17   47 1   
    46   18   19 1   
    47   18   48 1   
    48   18   49 1   
    49   19   20 1   
    50   19   50 1   
    51   19   51 1   
    52   20   52 1   
    53   20   53 1   
    54   20   54 1   
@<TRIPOS>SUBSTRUCTURE
     1 CDU         1 TEMP              0 ****  ****    0 ROOT
