@<TRIPOS>MOLECULE
CDU
   56    56     1     0     0
SMALL
bcc


@<TRIPOS>ATOM
      1 C1         -1.0860   -1.3470    0.2330 c3        1 CDU     -0.078400
      2 C2          0.1340   -0.7730   -0.4550 c3        1 CDU     -0.100400
      3 C3          0.9430    0.0910    0.4860 c3        1 CDU     -0.078400
      4 C4          1.3440   -0.6720    1.7400 c3        1 CDU     -0.108400
      5 C5          0.0710   -1.1890    2.4190 c3        1 CDU      0.137500
      6 C6         -0.7030   -2.1180    1.4900 c3        1 CDU     -0.108400
      7 N1          0.4610   -1.9070    3.7320 n4        1 CDU     -0.669800
      8 C8         -0.7090   -2.0890    4.6340 c         1 CDU      0.486100
      9 O          -1.1210   -1.1520    5.2980 o         1 CDU     -0.286100
     10 N2         -1.3690   -3.4260    4.6970 n4        1 CDU     -0.655800
     11 C11        -2.5570   -3.4250    5.6540 c3        1 CDU      0.120800
     12 C12        -3.2060   -4.7990    5.7120 c3        1 CDU     -0.118400
     13 C13        -4.3780   -4.7280    6.6830 c3        1 CDU     -0.077400
     14 C14        -5.0590   -6.0800    6.7740 c3        1 CDU     -0.080400
     15 C15        -6.2270   -6.0240    7.7370 c3        1 CDU     -0.080400
     16 C16        -6.9130   -7.3710    7.8330 c3        1 CDU     -0.079400
     17 C17        -8.0810   -7.3180    8.7940 c3        1 CDU     -0.079400
     18 C18        -8.7680   -8.6640    8.8920 c3        1 CDU     -0.079400
     19 C19        -9.9370   -8.6140    9.8530 c3        1 CDU     -0.079400
     20 C20       -10.6240   -9.9520    9.9540 c3        1 CDU     -0.095100
     21 HC11       -1.8010   -0.5230    0.4980 hc        1 CDU      0.087950
     22 HC12       -1.6210   -2.0480   -0.4640 hc        1 CDU      0.087950
     23 HC21        0.7720   -1.6040   -0.8580 hc        1 CDU      0.088200
     24 HC22       -0.1960   -0.1550   -1.3340 hc        1 CDU      0.088200
     25 HC31        1.8820    0.4360   -0.0270 hc        1 CDU      0.087950
     26 HC32        0.3610    1.0080    0.7680 hc        1 CDU      0.087950
     27 HC41        1.9100    0.0180    2.4210 hc        1 CDU      0.066700
     28 HC42        2.0130   -1.5260    1.4550 hc        1 CDU      0.066700
     29 HC51       -0.5740   -0.3120    2.7340 hx        1 CDU      0.131700
     30 HC61       -0.0740   -3.0010    1.1950 hc        1 CDU      0.066700
     31 HC62       -1.6390   -2.4870    1.9850 hc        1 CDU      0.066700
     32 HN1         1.1410   -1.2950    4.2240 hn        1 CDU      0.492300
     33 HN2        -1.7090   -3.6960    3.7580 hn        1 CDU      0.488300
     34 H111       -2.1720   -3.1180    6.6700 hx        1 CDU      0.130700
     35 H112       -3.2870   -2.6480    5.2850 hx        1 CDU      0.130700
     36 H121       -3.5840   -5.1100    4.7020 hc        1 CDU      0.079200
     37 H122       -2.4790   -5.5750    6.0720 hc        1 CDU      0.079200
     38 H131       -5.1160   -3.9580    6.3350 hc        1 CDU      0.065700
     39 H132       -4.0140   -4.4210    7.6990 hc        1 CDU      0.065700
     40 H141       -5.4230   -6.3910    5.7600 hc        1 CDU      0.053200
     41 H142       -4.3240   -6.8530    7.1210 hc        1 CDU      0.053200
     42 H151       -6.9640   -5.2510    7.3930 hc        1 CDU      0.049700
     43 H152       -5.8660   -5.7120    8.7520 hc        1 CDU      0.049700
     44 H161       -6.1770   -8.1450    8.1780 hc        1 CDU      0.045200
     45 H162       -7.2750   -7.6840    6.8180 hc        1 CDU      0.045200
     46 H171       -8.8180   -6.5450    8.4510 hc        1 CDU      0.044200
     47 H172       -7.7210   -7.0050    9.8100 hc        1 CDU      0.044200
     48 H181       -9.1290   -8.9780    7.8780 hc        1 CDU      0.042700
     49 H182       -8.0330   -9.4380    9.2360 hc        1 CDU      0.042700
     50 H191       -9.5750   -8.2990   10.8670 hc        1 CDU      0.040700
     51 H192      -10.6710   -7.8380    9.5090 hc        1 CDU      0.040700
     52 H201      -11.4820   -9.8920   10.6670 hc        1 CDU      0.038700
     53 H202       -9.9150  -10.7330   10.3200 hc        1 CDU      0.038700
     54 H203      -11.0150  -10.2720    8.9580 hc        1 CDU      0.038700
     55 H12         0.9300   -2.7920    3.4990 hn        1 CDU      0.492300
     56 H22        -0.6990   -4.1410    5.0220 hn        1 CDU      0.488300
@<TRIPOS>BOND
     1    1    2 1   
     2    1    6 1   
     3    1   21 1   
     4    1   22 1   
     5    2    3 1   
     6    2   23 1   
     7    2   24 1   
     8    3    4 1   
     9    3   25 1   
    10    3   26 1   
    11    4    5 1   
    12    4   27 1   
    13    4   28 1   
    14    5    6 1   
    15    5    7 1   
    16    5   29 1   
    17    6   30 1   
    18    6   31 1   
    19    7    8 1   
    20    7   32 1   
    21    7   55 1   
    22    8    9 2   
    23    8   10 1   
    24   10   11 1   
    25   10   33 1   
    26   10   56 1   
    27   11   12 1   
    28   11   34 1   
    29   11   35 1   
    30   12   13 1   
    31   12   36 1   
    32   12   37 1   
    33   13   14 1   
    34   13   38 1   
    35   13   39 1   
    36   14   15 1   
    37   14   40 1   
    38   14   41 1   
    39   15   16 1   
    40   15   42 1   
    41   15   43 1   
    42   16   17 1   
    43   16   44 1   
    44   16   45 1   
    45   17   18 1   
    46   17   46 1   
    47   17   47 1   
    48   18   19 1   
    49   18   48 1   
    50   18   49 1   
    51   19   20 1   
    52   19   50 1   
    53   19   51 1   
    54   20   52 1   
    55   20   53 1   
    56   20   54 1   
@<TRIPOS>SUBSTRUCTURE
     1 CDU         1 TEMP              0 ****  ****    0 ROOT
