@<TRIPOS>MOLECULE
CDU
   54    54     1     0     0
SMALL
bcc


@<TRIPOS>ATOM
      1 C1          1.5570    3.8190   -6.3240 c3        1 CDU     -0.078900
      2 C2          2.1060    2.6090   -6.5590 c3        1 CDU     -0.077400
      3 C3          3.3950    2.2850   -6.3410 c3        1 CDU     -0.078900
      4 C4          3.9200    2.9160   -5.0630 c3        1 CDU     -0.091900
      5 C5          2.7650    3.3720   -4.0730 c3        1 CDU      0.091700
      6 C6          2.0960    4.4370   -5.0480 c3        1 CDU     -0.091900
      7 N1          1.9680    2.4120   -3.7950 n         1 CDU     -0.533900
      8 C8          1.9070    1.8840   -2.4320 c         1 CDU      0.725100
      9 O           2.6170    2.3600   -1.5620 o         1 CDU     -0.631100
     10 N2          0.9330    0.8630   -2.0930 n         1 CDU     -0.531900
     11 C11         1.0910    0.0860   -0.8800 c3        1 CDU      0.069000
     12 C12        -0.2450    0.0470   -0.1170 c3        1 CDU     -0.113400
     13 C13        -0.2850   -1.2070    0.7910 c3        1 CDU     -0.075400
     14 C14        -1.0650   -0.8850    2.0780 c3        1 CDU     -0.078400
     15 C15        -1.6160   -2.1900    2.6860 c3        1 CDU     -0.079400
     16 C16        -1.7590   -2.0270    4.2070 c3        1 CDU     -0.078400
     17 C17        -2.8110   -3.0140    4.7320 c3        1 CDU     -0.079400
     18 C18        -2.6650   -3.1570    6.2530 c3        1 CDU     -0.079400
     19 C19        -3.9170   -3.8320    6.8250 c3        1 CDU     -0.080400
     20 C20        -3.6700   -4.2100    8.2770 c3        1 CDU     -0.092100
     21 HC11        1.7590    4.4150   -7.0800 hc        1 CDU      0.040450
     22 HC12        0.5840    3.7190   -6.2460 hc        1 CDU      0.040450
     23 HC21        1.5770    1.9700   -6.0420 hc        1 CDU      0.036200
     24 HC22        1.9350    2.4150   -7.5090 hc        1 CDU      0.036200
     25 HC31        3.9360    2.5970   -7.0970 hc        1 CDU      0.040450
     26 HC32        3.4730    1.3090   -6.2730 hc        1 CDU      0.040450
     27 HC41        4.4880    2.2680   -4.6050 hc        1 CDU      0.051700
     28 HC42        4.4610    3.6980   -5.2980 hc        1 CDU      0.051700
     29 HC51        3.1260    3.7970   -3.2670 h1        1 CDU      0.088700
     30 HC61        2.7680    5.1150   -5.2850 hc        1 CDU      0.051700
     31 HC62        1.3570    4.8770   -4.5750 hc        1 CDU      0.051700
     32 HN1         1.4410    2.0510   -4.4500 hn        1 CDU      0.287500
     33 HN2         0.2200    0.7120   -2.6420 hn        1 CDU      0.283500
     34 H111        1.3610   -0.8250   -1.1090 h1        1 CDU      0.068700
     35 H112        1.7760    0.4980   -0.3150 h1        1 CDU      0.068700
     36 H121       -0.9870    0.0100   -0.7580 hc        1 CDU      0.045200
     37 H122       -0.3290    0.8500    0.4330 hc        1 CDU      0.045200
     38 H131        0.6300   -1.4710    1.0220 hc        1 CDU      0.042700
     39 H132       -0.7260   -1.9390    0.3170 hc        1 CDU      0.042700
     40 H141       -0.4700   -0.4540    2.7200 hc        1 CDU      0.040200
     41 H142       -1.8070   -0.2850    1.8680 hc        1 CDU      0.040200
     42 H151       -1.0010   -2.9240    2.4940 hc        1 CDU      0.040200
     43 H152       -2.4900   -2.3880    2.2960 hc        1 CDU      0.040200
     44 H161       -2.0380   -1.1150    4.4110 hc        1 CDU      0.039700
     45 H162       -0.8980   -2.2080    4.6370 hc        1 CDU      0.039700
     46 H171       -2.6800   -3.8820    4.3100 hc        1 CDU      0.039200
     47 H172       -3.7050   -2.6800    4.5200 hc        1 CDU      0.039200
     48 H181       -1.8770   -3.7050    6.4550 hc        1 CDU      0.039200
     49 H182       -2.5590   -2.2740    6.6540 hc        1 CDU      0.039200
     50 H191       -4.6740   -3.2120    6.7740 hc        1 CDU      0.038200
     51 H192       -4.1180   -4.6340    6.3100 hc        1 CDU      0.038200
     52 H201       -4.5020   -4.5540    8.6730 hc        1 CDU      0.032700
     53 H202       -2.9760   -4.9010    8.3210 hc        1 CDU      0.032700
     54 H203       -3.3750   -3.4210    8.7740 hc        1 CDU      0.032700
@<TRIPOS>BOND
     1    1    2 1   
     2    1    6 1   
     3    1   21 1   
     4    1   22 1   
     5    2    3 1   
     6    2   23 1   
     7    2   24 1   
     8    3    4 1   
     9    3   25 1   
    10    3   26 1   
    11    4    5 1   
    12    4   27 1   
    13    4   28 1   
    14    5    6 1   
    15    5    7 1   
    16    5   29 1   
    17    6   30 1   
    18    6   31 1   
    19    7    8 1   
    20    7   32 1   
    21    8    9 2   
    22    8   10 1   
    23   10   11 1   
    24   10   33 1   
    25   11   12 1   
    26   11   34 1   
    27   11   35 1   
    28   12   13 1   
    29   12   36 1   
    30   12   37 1   
    31   13   14 1   
    32   13   38 1   
    33   13   39 1   
    34   14   15 1   
    35   14   40 1   
    36   14   41 1   
    37   15   16 1   
    38   15   42 1   
    39   15   43 1   
    40   16   17 1   
    41   16   44 1   
    42   16   45 1   
    43   17   18 1   
    44   17   46 1   
    45   17   47 1   
    46   18   19 1   
    47   18   48 1   
    48   18   49 1   
    49   19   20 1   
    50   19   50 1   
    51   19   51 1   
    52   20   52 1   
    53   20   53 1   
    54   20   54 1   
@<TRIPOS>SUBSTRUCTURE
     1 CDU         1 TEMP              0 ****  ****    0 ROOT
