@<TRIPOS>MOLECULE
CDU
   56    56     1     0     0
SMALL
bcc


@<TRIPOS>ATOM
      1 C1         -1.0420   -1.4280    0.2030 c3        1 CDU     -0.078400
      2 C2          0.1790   -0.8420   -0.4700 c3        1 CDU     -0.100400
      3 C3          0.9380    0.0750    0.4630 c3        1 CDU     -0.078400
      4 C4          1.3260   -0.6370    1.7500 c3        1 CDU     -0.108400
      5 C5          0.0510   -1.1690    2.4120 c3        1 CDU      0.137500
      6 C6         -0.6720   -2.1480    1.4940 c3        1 CDU     -0.108400
      7 N1          0.4240   -1.8350    3.7570 ny        1 CDU     -0.669800
      8 C8         -0.7640   -2.0220    4.6340 c         1 CDU      0.486100
      9 O          -1.2200   -1.0760    5.2570 o         1 CDU     -0.286100
     10 N2         -1.3880   -3.3740    4.7230 ny        1 CDU     -0.655800
     11 C11        -2.5990   -3.3780    5.6500 c3        1 CDU      0.120800
     12 C12        -3.2110   -4.7670    5.7350 c3        1 CDU     -0.118400
     13 C13        -4.4080   -4.7000    6.6750 c3        1 CDU     -0.077400
     14 C14        -5.0530   -6.0680    6.7920 c3        1 CDU     -0.080400
     15 C15        -6.2450   -6.0160    7.7250 c3        1 CDU     -0.080400
     16 C16        -6.8950   -7.3790    7.8460 c3        1 CDU     -0.079400
     17 C17        -8.0870   -7.3310    8.7790 c3        1 CDU     -0.079400
     18 C18        -8.7380   -8.6920    8.9020 c3        1 CDU     -0.079400
     19 C19        -9.9310   -8.6470    9.8350 c3        1 CDU     -0.079400
     20 C20       -10.5820  -10.0000    9.9600 c3        1 CDU     -0.095100
     21 HC11       -1.5380   -2.1650   -0.4850 hc        1 CDU      0.087950
     22 HC12       -1.7870   -0.6180    0.4230 hc        1 CDU      0.087950
     23 HC21        0.8510   -1.6650   -0.8300 hc        1 CDU      0.088200
     24 HC22       -0.1440   -0.2600   -1.3770 hc        1 CDU      0.088200
     25 HC31        1.8810    0.4300   -0.0360 hc        1 CDU      0.087950
     26 HC32        0.3230    0.9830    0.7000 hc        1 CDU      0.087950
     27 HC41        1.8540    0.0890    2.4240 hc        1 CDU      0.066950
     28 HC42        2.0270   -1.4800    1.5110 hc        1 CDU      0.066950
     29 HC51       -0.6270   -0.3020    2.6830 hx        1 CDU      0.131700
     30 HC61       -1.6100   -2.5290    1.9760 hc        1 CDU      0.066950
     31 HC62       -0.0120   -3.0210    1.2430 hc        1 CDU      0.066950
     32 HN1         1.0740   -1.1880    4.2470 hn        1 CDU      0.492300
     33 HN2        -0.7060   -4.0600    5.0860 hn        1 CDU      0.488300
     34 H111       -3.3410   -2.6330    5.2400 hx        1 CDU      0.130700
     35 H112       -2.2490   -3.0290    6.6650 hx        1 CDU      0.130700
     36 H121       -2.4720   -5.5110    6.1360 hc        1 CDU      0.079200
     37 H122       -3.5560   -5.1190    4.7270 hc        1 CDU      0.079200
     38 H131       -5.1580   -3.9630    6.2860 hc        1 CDU      0.065700
     39 H132       -4.0780   -4.3530    7.6900 hc        1 CDU      0.065700
     40 H141       -5.3840   -6.4200    5.7790 hc        1 CDU      0.053200
     41 H142       -4.3050   -6.8090    7.1790 hc        1 CDU      0.053200
     42 H151       -5.9180   -5.6640    8.7390 hc        1 CDU      0.049700
     43 H152       -6.9950   -5.2750    7.3400 hc        1 CDU      0.049700
     44 H161       -6.1470   -8.1210    8.2310 hc        1 CDU      0.045200
     45 H162       -7.2240   -7.7320    6.8340 hc        1 CDU      0.045200
     46 H171       -8.8360   -6.5890    8.3960 hc        1 CDU      0.044200
     47 H172       -7.7590   -6.9780    9.7930 hc        1 CDU      0.044200
     48 H181       -9.0680   -9.0460    7.8890 hc        1 CDU      0.042700
     49 H182       -7.9900   -9.4350    9.2850 hc        1 CDU      0.042700
     50 H191      -10.6780   -7.9030    9.4510 hc        1 CDU      0.040700
     51 H192       -9.6000   -8.2930   10.8470 hc        1 CDU      0.040700
     52 H201      -10.9410  -10.3600    8.9650 hc        1 CDU      0.038700
     53 H202       -9.8610  -10.7510   10.3640 hc        1 CDU      0.038700
     54 H203      -11.4580   -9.9440   10.6510 hc        1 CDU      0.038700
     55 H12         0.9240   -2.7120    3.5650 hn        1 CDU      0.492300
     56 H22        -1.6960   -3.6830    3.7850 hn        1 CDU      0.488300
@<TRIPOS>BOND
     1    1    2 1   
     2    1    6 1   
     3    1   21 1   
     4    1   22 1   
     5    2    3 1   
     6    2   23 1   
     7    2   24 1   
     8    3    4 1   
     9    3   25 1   
    10    3   26 1   
    11    4    5 1   
    12    4   27 1   
    13    4   28 1   
    14    5    6 1   
    15    5    7 1   
    16    5   29 1   
    17    6   30 1   
    18    6   31 1   
    19    7    8 1   
    20    7   32 1   
    21    7   55 1   
    22    8    9 2   
    23    8   10 1   
    24   10   11 1   
    25   10   33 1   
    26   10   56 1   
    27   11   12 1   
    28   11   34 1   
    29   11   35 1   
    30   12   13 1   
    31   12   36 1   
    32   12   37 1   
    33   13   14 1   
    34   13   38 1   
    35   13   39 1   
    36   14   15 1   
    37   14   40 1   
    38   14   41 1   
    39   15   16 1   
    40   15   42 1   
    41   15   43 1   
    42   16   17 1   
    43   16   44 1   
    44   16   45 1   
    45   17   18 1   
    46   17   46 1   
    47   17   47 1   
    48   18   19 1   
    49   18   48 1   
    50   18   49 1   
    51   19   20 1   
    52   19   50 1   
    53   19   51 1   
    54   20   52 1   
    55   20   53 1   
    56   20   54 1   
@<TRIPOS>SUBSTRUCTURE
     1 CDU         1 TEMP              0 ****  ****    0 ROOT
