@<TRIPOS>MOLECULE
CDU
   56    56     1     0     0
SMALL
bcc


@<TRIPOS>ATOM
      1 C1         -0.9410   -1.4940    0.2060 c3        1 CDU     -0.078400
      2 C2          0.2910   -0.9000   -0.4400 c3        1 CDU     -0.100400
      3 C3          1.0030    0.0510    0.4960 c3        1 CDU     -0.078400
      4 C4          1.3610   -0.6250    1.8120 c3        1 CDU     -0.107900
      5 C5          0.0730   -1.1650    2.4430 c3        1 CDU      0.137500
      6 C6         -0.6010   -2.1780    1.5240 c3        1 CDU     -0.107900
      7 N1          0.4140   -1.7940    3.8150 n4        1 CDU     -0.669800
      8 C8         -0.7980   -1.9810    4.6570 c         1 CDU      0.486100
      9 O          -1.2890   -1.0300    5.2430 o         1 CDU     -0.286100
     10 N2         -1.4030   -3.3420    4.7580 n4        1 CDU     -0.655800
     11 C11        -2.6350   -3.3480    5.6570 c3        1 CDU      0.120800
     12 C12        -3.2280   -4.7440    5.7520 c3        1 CDU     -0.118400
     13 C13        -4.4460   -4.6800    6.6650 c3        1 CDU     -0.077400
     14 C14        -5.0750   -6.0540    6.7880 c3        1 CDU     -0.080400
     15 C15        -6.2870   -6.0050    7.6960 c3        1 CDU     -0.080400
     16 C16        -6.9220   -7.3750    7.8230 c3        1 CDU     -0.079400
     17 C17        -8.1320   -7.3300    8.7320 c3        1 CDU     -0.079400
     18 C18        -8.7690   -8.6980    8.8590 c3        1 CDU     -0.079400
     19 C19        -9.9790   -8.6570    9.7690 c3        1 CDU     -0.079400
     20 C20       -10.6170  -10.0160    9.8980 c3        1 CDU     -0.095100
     21 HC11       -1.4010   -2.2550   -0.4800 hc        1 CDU      0.087950
     22 HC12       -1.7070   -0.6930    0.3830 hc        1 CDU      0.087950
     23 HC21       -0.0120   -0.3450   -1.3710 hc        1 CDU      0.088200
     24 HC22        0.9890   -1.7190   -0.7590 hc        1 CDU      0.088200
     25 HC31        1.9550    0.4120    0.0190 hc        1 CDU      0.087950
     26 HC32        0.3640    0.9530    0.6920 hc        1 CDU      0.087950
     27 HC41        1.8530    0.1260    2.4850 hc        1 CDU      0.066950
     28 HC42        2.0830   -1.4600    1.6140 hc        1 CDU      0.066950
     29 HC51       -0.6280   -0.3050    2.6710 hx        1 CDU      0.131700
     30 HC61       -1.5470   -2.5650    1.9840 hc        1 CDU      0.066950
     31 HC62        0.0830   -3.0440    1.3160 hc        1 CDU      0.066950
     32 HN1         0.9340   -2.6670    3.6590 hn        1 CDU      0.492300
     33 HN2        -0.7190   -4.0100    5.1490 hn        1 CDU      0.488300
     34 H111       -3.3780   -2.6220    5.2160 hx        1 CDU      0.130700
     35 H112       -2.3130   -2.9760    6.6730 hx        1 CDU      0.130700
     36 H121       -2.4870   -5.4710    6.1810 hc        1 CDU      0.079200
     37 H122       -3.5460   -5.1180    4.7420 hc        1 CDU      0.079200
     38 H131       -5.1980   -3.9590    6.2480 hc        1 CDU      0.065700
     39 H132       -4.1430   -4.3130    7.6800 hc        1 CDU      0.065700
     40 H141       -5.3810   -6.4250    5.7740 hc        1 CDU      0.053200
     41 H142       -4.3260   -6.7800    7.2000 hc        1 CDU      0.053200
     42 H151       -5.9840   -5.6370    8.7110 hc        1 CDU      0.049700
     43 H152       -7.0380   -5.2790    7.2870 hc        1 CDU      0.049700
     44 H161       -7.2270   -7.7450    6.8080 hc        1 CDU      0.045200
     45 H162       -6.1720   -8.1030    8.2310 hc        1 CDU      0.045200
     46 H171       -8.8830   -6.6020    8.3250 hc        1 CDU      0.044200
     47 H172       -7.8280   -6.9620    9.7470 hc        1 CDU      0.044200
     48 H181       -9.0750   -9.0670    7.8450 hc        1 CDU      0.042700
     49 H182       -8.0190   -9.4270    9.2650 hc        1 CDU      0.042700
     50 H191       -9.6720   -8.2860   10.7830 hc        1 CDU      0.040700
     51 H192      -10.7270   -7.9260    9.3630 hc        1 CDU      0.040700
     52 H201       -9.8940  -10.7530   10.3250 hc        1 CDU      0.038700
     53 H202      -10.9530  -10.3910    8.9010 hc        1 CDU      0.038700
     54 H203      -11.5050   -9.9630   10.5730 hc        1 CDU      0.038700
     55 H12         1.0380   -1.1250    4.3100 hn        1 CDU      0.492300
     56 H22        -1.6840   -3.6720    3.8180 hn        1 CDU      0.488300
@<TRIPOS>BOND
     1    1    2 1   
     2    1    6 1   
     3    1   21 1   
     4    1   22 1   
     5    2    3 1   
     6    2   23 1   
     7    2   24 1   
     8    3    4 1   
     9    3   25 1   
    10    3   26 1   
    11    4    5 1   
    12    4   27 1   
    13    4   28 1   
    14    5    6 1   
    15    5    7 1   
    16    5   29 1   
    17    6   30 1   
    18    6   31 1   
    19    7    8 1   
    20    7   32 1   
    21    7   55 1   
    22    8    9 2   
    23    8   10 1   
    24   10   11 1   
    25   10   33 1   
    26   10   56 1   
    27   11   12 1   
    28   11   34 1   
    29   11   35 1   
    30   12   13 1   
    31   12   36 1   
    32   12   37 1   
    33   13   14 1   
    34   13   38 1   
    35   13   39 1   
    36   14   15 1   
    37   14   40 1   
    38   14   41 1   
    39   15   16 1   
    40   15   42 1   
    41   15   43 1   
    42   16   17 1   
    43   16   44 1   
    44   16   45 1   
    45   17   18 1   
    46   17   46 1   
    47   17   47 1   
    48   18   19 1   
    49   18   48 1   
    50   18   49 1   
    51   19   20 1   
    52   19   50 1   
    53   19   51 1   
    54   20   52 1   
    55   20   53 1   
    56   20   54 1   
@<TRIPOS>SUBSTRUCTURE
     1 CDU         1 TEMP              0 ****  ****    0 ROOT
