@<TRIPOS>MOLECULE
CDV
   22    21     1     0     0
SMALL
bcc


@<TRIPOS>ATOM
      1 NT          0.4580   -0.3530   -3.3640 n         1 CDV     -0.653000
      2 CT          0.5090    0.3980   -2.1620 c         1 CDV      0.719100
      3 OT          0.4170    1.6500   -2.2570 o         1 CDV     -0.667100
      4 N           0.8200   -0.2520   -0.9560 n         1 CDV     -0.482900
      5 CA          0.2110    0.2650    0.2680 c3        1 CDV     -0.060300
      6 CB          1.2570    0.3590    1.3990 c3        1 CDV     -0.039700
      7 CG1         0.7110    1.2250    2.5160 c3        1 CDV     -0.092100
      8 CG2         1.6370   -1.0110    1.9180 c3        1 CDV     -0.092100
      9 C          -1.0120   -0.6170    0.7170 c         1 CDV      0.899600
     10 O          -1.8430   -0.0960    1.5060 o         1 CDV     -0.835800
     11 OXT        -1.1040   -1.7890    0.2480 o         1 CDV     -0.835800
     12 HT1         0.1130    0.1680   -4.1360 hn        1 CDV      0.277500
     13 HT2         0.0990   -1.2760   -3.2980 hn        1 CDV      0.277500
     14 HN1         0.7290   -1.2550   -0.9820 hn        1 CDV      0.295500
     15 HA         -0.1770    1.3070    0.0740 h1        1 CDV      0.074700
     16 HB          2.1850    0.8550    0.9940 hc        1 CDV      0.025700
     17 HG11        1.4090    1.2190    3.3880 hc        1 CDV      0.031700
     18 HG12        0.5900    2.2780    2.1640 hc        1 CDV      0.031700
     19 HG13       -0.2910    0.8450    2.8400 hc        1 CDV      0.031700
     20 HG21        0.7210   -1.5740    2.2250 hc        1 CDV      0.031700
     21 HG22        2.1590   -1.5980    1.1250 hc        1 CDV      0.031700
     22 HG23        2.3200   -0.9200    2.7970 hc        1 CDV      0.031700
@<TRIPOS>BOND
     1    1    2 1   
     2    1   12 1   
     3    1   13 1   
     4    2    3 2   
     5    2    4 1   
     6    4    5 1   
     7    4   14 1   
     8    5    6 1   
     9    5    9 1   
    10    5   15 1   
    11    6    7 1   
    12    6    8 1   
    13    6   16 1   
    14    7   17 1   
    15    7   18 1   
    16    7   19 1   
    17    8   20 1   
    18    8   21 1   
    19    8   22 1   
    20    9   10 1   
    21    9   11 1   
@<TRIPOS>SUBSTRUCTURE
     1 CDV         1 TEMP              0 ****  ****    0 ROOT
