@<TRIPOS>MOLECULE
CDV
   22    21     1     0     0
SMALL
bcc


@<TRIPOS>ATOM
      1 NT         -3.2260    0.1050    1.6930 n         1 CDV     -0.654000
      2 CT         -1.8090    0.0500    1.6430 c         1 CDV      0.719100
      3 OT         -1.1620    0.1200    2.6680 o         1 CDV     -0.667100
      4 N          -1.1490   -0.0900    0.3950 n         1 CDV     -0.483900
      5 CA          0.2680   -0.1630    0.3460 c3        1 CDV     -0.059300
      6 CB          0.7360    0.0700   -1.0730 c3        1 CDV     -0.046700
      7 CG1         2.1880   -0.3370   -1.1990 c3        1 CDV     -0.088100
      8 CG2         0.5920    1.5360   -1.4180 c3        1 CDV     -0.088100
      9 C           0.7200   -1.5310    0.8080 c         1 CDV      0.896600
     10 O           1.5700   -1.6350    1.7300 o         1 CDV     -0.833800
     11 OXT         0.2400   -2.5650    0.2740 o         1 CDV     -0.833800
     12 HT1        -3.6510    0.1940    2.4980 hn        1 CDV      0.277000
     13 HT2        -3.7130    0.0510    0.9220 hn        1 CDV      0.277000
     14 HN1        -1.6350   -0.1420   -0.3750 hn        1 CDV      0.297500
     15 HA          0.6500    0.5210    0.9310 h1        1 CDV      0.075700
     16 HB          0.1950   -0.4640   -1.6860 hc        1 CDV      0.045700
     17 HG11        2.2570   -1.3140   -1.1720 hc        1 CDV      0.027867
     18 HG12        2.5480   -0.0070   -2.0490 hc        1 CDV      0.027867
     19 HG13        2.7000    0.0470   -0.4560 hc        1 CDV      0.027867
     20 HG21        0.9870    1.7050   -2.2990 hc        1 CDV      0.027867
     21 HG22        1.0530    2.0770   -0.7440 hc        1 CDV      0.027867
     22 HG23       -0.3590    1.7750   -1.4360 hc        1 CDV      0.027867
@<TRIPOS>BOND
     1    1    2 1   
     2    1   12 1   
     3    1   13 1   
     4    2    3 2   
     5    2    4 1   
     6    4    5 1   
     7    4   14 1   
     8    5    6 1   
     9    5    9 1   
    10    5   15 1   
    11    6    7 1   
    12    6    8 1   
    13    6   16 1   
    14    7   17 1   
    15    7   18 1   
    16    7   19 1   
    17    8   20 1   
    18    8   21 1   
    19    8   22 1   
    20    9   10 1   
    21    9   11 1   
@<TRIPOS>SUBSTRUCTURE
     1 CDV         1 TEMP              0 ****  ****    0 ROOT
