@<TRIPOS>MOLECULE
CDW
   30    31     1     0     0
SMALL
bcc


@<TRIPOS>ATOM
      1 P           0.5630   -2.9180    3.9560 p4        1 CDW      1.712200
      2 OP1         1.2490   -3.9980    3.1480 o         1 CDW     -0.943000
      3 OP2         1.4230   -2.5580    5.1470 os        1 CDW     -1.224000
      4 O5'         0.3510   -1.6300    3.0470 os        1 CDW     -0.568200
      5 C5'        -0.3770   -1.7690    1.8380 c3        1 CDW      0.215400
      6 C4'        -0.7590   -0.3770    1.3070 c3        1 CDW      0.066100
      7 O4'         0.2690    0.2040    0.7990 os        1 CDW     -0.452600
      8 C3'        -1.7870   -0.5070    0.1180 c3        1 CDW      0.121100
      9 O3'        -3.0090   -0.0630    0.5020 oh        1 CDW     -0.663800
     10 C2'        -1.2400    0.3590   -0.9860 c3        1 CDW     -0.111400
     11 C1'        -0.2700    1.0730   -0.4180 c3        1 CDW      0.309500
     12 N1          0.7710    1.3070   -1.3470 n         1 CDW     -0.485800
     13 C2          1.5110    0.4240   -2.4800 c         1 CDW      0.755500
     14 O2          1.4340   -0.7310   -2.8580 o         1 CDW     -0.625500
     15 N3          2.3560    1.5280   -2.7840 n         1 CDW     -0.322000
     16 C4          1.9140    2.6030   -3.4100 cv        1 CDW     -0.201400
     17 C6          1.6610    2.3660   -1.5940 cy        1 CDW      0.159300
     18 C5          1.4560    3.1490   -2.6140 cv        1 CDW     -0.126200
     19 OP3        -0.7790   -3.4230    4.4370 o         1 CDW     -0.991800
     20 H51        -1.1930   -2.2910    2.0050 h1        1 CDW      0.000700
     21 H52         0.1780   -2.2330    1.1730 h1        1 CDW      0.000700
     22 H4'        -1.1390    0.1730    2.0280 h1        1 CDW      0.046700
     23 H3'        -1.8430   -1.4420   -0.1810 h1        1 CDW      0.140700
     24 H1'        -0.6290    1.9280   -0.0890 h2        1 CDW      0.049700
     25 HA         -3.6340   -0.6360    0.2250 ho        1 CDW      0.484000
     26 H21        -1.9430    0.9540   -1.3350 hc        1 CDW      0.044200
     27 H22        -0.8740   -0.1990   -1.7080 hc        1 CDW      0.044200
     28 H6          2.3110    2.6290   -0.9040 h2        1 CDW      0.104700
     29 H41C        1.4550    2.5140   -4.2740 h4        1 CDW      0.162000
     30 H51C        0.5740    3.5630   -2.7470 ha        1 CDW      0.300000
@<TRIPOS>BOND
     1    1    2 1   
     2    1    4 1   
     3    1   19 2   
     4    4    5 1   
     5    5    6 1   
     6    5   20 1   
     7    5   21 1   
     8    6    7 1   
     9    6    8 1   
    10    6   22 1   
    11    7   11 1   
    12    8    9 1   
    13    8   10 1   
    14    8   23 1   
    15    9   25 1   
    16   10   11 1   
    17   10   26 1   
    18   10   27 1   
    19   11   12 1   
    20   11   24 1   
    21   12   13 1   
    22   12   17 1   
    23   13   14 2   
    24   13   15 1   
    25   15   16 1   
    26   15   17 1   
    27   16   18 2   
    28   16   29 1   
    29   17   18 1   
    30   17   28 1   
    31   18   30 1   
@<TRIPOS>SUBSTRUCTURE
     1 CDW         1 TEMP              0 ****  ****    0 ROOT
