@<TRIPOS>MOLECULE
CDW
   30    32     1     0     0
SMALL
bcc


@<TRIPOS>ATOM
      1 P           2.1450    1.0930    0.1360 p5        1 CDW      1.343900
      2 OP1         2.5260   -0.1580   -0.6240 o         1 CDW     -0.930167
      3 OP2         0.9220    1.7720   -0.4370 o         1 CDW     -0.930167
      4 O5'         1.5270    0.3360    1.5680 os        1 CDW     -0.568200
      5 C5'         0.1830    0.0880    1.6230 c3        1 CDW      0.215400
      6 C4'        -0.1610   -1.3780    1.2760 c3        1 CDW      0.066100
      7 O4'        -1.5900   -1.5630    1.4060 os        1 CDW     -0.452600
      8 C3'         0.2320   -1.7700   -0.1630 c3        1 CDW      0.121100
      9 O3'         1.3180   -2.6690   -0.1770 oh        1 CDW     -0.663800
     10 C2'        -1.0070   -2.4590   -0.7410 c3        1 CDW     -0.111400
     11 C1'        -2.1670   -2.0060    0.1720 c3        1 CDW      0.309500
     12 N1         -3.0250   -1.0250   -0.4440 n         1 CDW     -0.485800
     13 C2         -4.2090   -0.4160    0.0300 c         1 CDW      0.755500
     14 O2         -5.1010   -0.7670    0.8080 o         1 CDW     -0.625500
     15 N3         -4.0720    0.7100   -0.9160 n         1 CDW     -0.322000
     16 C4         -3.3170    1.8450   -0.3770 cv        1 CDW     -0.201400
     17 C6         -2.6880    0.1050   -1.3130 cy        1 CDW      0.159300
     18 C5         -2.0810    1.4020   -0.7410 cv        1 CDW     -0.126200
     19 OP3         3.2390    1.9780    0.6420 o         1 CDW     -0.930167
     20 H51        -0.1820    0.2610    2.6790 h1        1 CDW      0.000700
     21 H52        -0.3910    0.7660    0.9310 h1        1 CDW      0.000700
     22 H4'         0.3060   -2.0770    2.0180 h1        1 CDW      0.046700
     23 H3'         0.5190   -0.8270   -0.7300 h1        1 CDW      0.140700
     24 H1'        -2.8480   -2.8620    0.4610 h2        1 CDW      0.049700
     25 HA          2.1140   -2.1000   -0.2730 ho        1 CDW      0.484000
     26 H21        -1.1580   -2.1810   -1.8100 hc        1 CDW      0.044200
     27 H22        -0.9040   -3.5700   -0.6760 hc        1 CDW      0.044200
     28 H6         -2.4470   -0.1690   -2.3590 h2        1 CDW      0.104700
     29 H41C       -3.7590    2.7040    0.1100 h4        1 CDW      0.162000
     30 H51C       -1.0270    1.7400   -0.7260 ha        1 CDW      0.300000
@<TRIPOS>BOND
     1    1    2 1   
     2    1    3 1   
     3    1    4 1   
     4    1   19 1   
     5    4    5 1   
     6    5    6 1   
     7    5   20 1   
     8    5   21 1   
     9    6    7 1   
    10    6    8 1   
    11    6   22 1   
    12    7   11 1   
    13    8    9 1   
    14    8   10 1   
    15    8   23 1   
    16    9   25 1   
    17   10   11 1   
    18   10   26 1   
    19   10   27 1   
    20   11   12 1   
    21   11   24 1   
    22   12   13 1   
    23   12   17 1   
    24   13   14 2   
    25   13   15 1   
    26   15   16 1   
    27   15   17 1   
    28   16   18 2   
    29   16   29 1   
    30   17   18 1   
    31   17   28 1   
    32   18   30 1   
@<TRIPOS>SUBSTRUCTURE
     1 CDW         1 TEMP              0 ****  ****    0 ROOT
