@<TRIPOS>MOLECULE
CDX
   35    36     1     0     0
SMALL
bcc


@<TRIPOS>ATOM
      1 OAO         0.0560   -0.5700    0.2690 o         1 CDX     -0.598000
      2 CAP         1.2720   -0.3750    0.1240 c         1 CDX      0.707000
      3 NAI         2.0830   -0.1590    1.2390 ns        1 CDX     -0.592500
      4 CAC         3.4540    0.0580    1.1310 c         1 CDX      0.707000
      5 OAB         4.1460    0.2140    2.1480 o         1 CDX     -0.598000
      6 CAD         4.0680    0.1520   -0.2630 c3        1 CDX      0.091300
      7 CAQ         1.9030   -0.3240   -1.2650 c3        1 CDX      0.091300
      8 NAJ         3.3330   -0.5710   -1.2880 n3        1 CDX     -0.723600
      9 CAK         3.9360   -0.3880   -2.5980 c3        1 CDX      0.176800
     10 CAL         3.3050   -1.2100   -3.7530 c3        1 CDX      0.191500
     11 CAE         4.1520   -0.9280   -4.9980 c3        1 CDX     -0.136100
     12 NAM         3.1020   -2.6180   -3.4250 n3        1 CDX     -0.729600
     13 CAR         4.3020   -3.3330   -3.0390 c3        1 CDX      0.096300
     14 CAS         4.0760   -4.8100   -2.7240 c         1 CDX      0.707000
     15 OAT         4.8750   -5.4450   -2.0200 o         1 CDX     -0.598500
     16 NAN         2.9680   -5.4520   -3.2770 ns        1 CDX     -0.591500
     17 CAG         2.0370   -4.7810   -4.0660 c         1 CDX      0.707000
     18 CAF         2.2990   -3.3170   -4.4120 c3        1 CDX      0.096300
     19 OAH         1.0440   -5.3780   -4.5100 o         1 CDX     -0.598500
     20 HAI         1.6750   -0.2220    2.1490 hn        1 CDX      0.342500
     21 HAD1        4.1740    1.2550   -0.4910 h1        1 CDX      0.076950
     22 HAD2        5.1030   -0.2940   -0.2010 h1        1 CDX      0.076950
     23 HAQ1        1.6230    0.6790   -1.7050 h1        1 CDX      0.076950
     24 HAQ2        1.4030   -1.1310   -1.8750 h1        1 CDX      0.076950
     25 HAK1        3.8900    0.6950   -2.9250 h1        1 CDX      0.043200
     26 HAK2        5.0230   -0.6720   -2.5050 h1        1 CDX      0.043200
     27 HAL         2.2680   -0.7920   -3.9430 h1        1 CDX      0.063700
     28 HAE1        4.1890    0.1720   -5.1820 hc        1 CDX      0.048033
     29 HAE2        3.7070   -1.4170   -5.8980 hc        1 CDX      0.048033
     30 HAE3        5.1960   -1.3000   -4.8700 hc        1 CDX      0.048033
     31 HAR1        4.7040   -2.8580   -2.0980 h1        1 CDX      0.076700
     32 HAR2        5.1110   -3.2980   -3.8290 h1        1 CDX      0.076700
     33 HAN         2.8040   -6.4100   -3.0470 hn        1 CDX      0.341500
     34 HAF1        1.2960   -2.8050   -4.4750 h1        1 CDX      0.076700
     35 HAF2        2.7590   -3.3160   -5.4450 h1        1 CDX      0.076700
@<TRIPOS>BOND
     1    1    2 2   
     2    2    3 1   
     3    2    7 1   
     4    3    4 1   
     5    3   20 1   
     6    4    5 2   
     7    4    6 1   
     8    6    8 1   
     9    6   21 1   
    10    6   22 1   
    11    7    8 1   
    12    7   23 1   
    13    7   24 1   
    14    8    9 1   
    15    9   10 1   
    16    9   25 1   
    17    9   26 1   
    18   10   11 1   
    19   10   12 1   
    20   10   27 1   
    21   11   28 1   
    22   11   29 1   
    23   11   30 1   
    24   12   13 1   
    25   12   18 1   
    26   13   14 1   
    27   13   31 1   
    28   13   32 1   
    29   14   15 2   
    30   14   16 1   
    31   16   17 1   
    32   16   33 1   
    33   17   18 1   
    34   17   19 2   
    35   18   34 1   
    36   18   35 1   
@<TRIPOS>SUBSTRUCTURE
     1 CDX         1 TEMP              0 ****  ****    0 ROOT
