@<TRIPOS>MOLECULE
CDX
   35    35     1     0     0
SMALL
bcc


@<TRIPOS>ATOM
      1 OAO        -4.2390   -1.2450    2.5990 o         1 CDX     -0.322000
      2 CAP        -3.0250   -1.2450    2.5990 c1        1 CDX      0.313000
      3 NAI        -2.3190   -1.2450    3.8230 n2        1 CDX     -0.372000
      4 CAC        -0.9170   -1.2450    3.6620 c2        1 CDX      0.313000
      5 OAB        -0.2020   -1.6220    4.5690 o         1 CDX     -0.321000
      6 CAD        -0.3800   -0.2720    2.6280 c3        1 CDX     -0.092000
      7 CAQ        -2.5140   -0.2710    1.5520 c3        1 CDX     -0.089000
      8 NAJ        -1.0980   -0.4020    1.4020 n3        1 CDX     -0.269000
      9 CAK        -0.6190    0.5880    0.4540 c3        1 CDX     -0.061000
     10 CAL        -0.1960   -0.1060   -0.8350 c3        1 CDX     -0.009000
     11 CAE        -1.0390    0.3870   -1.9680 c3        1 CDX     -0.245000
     12 NAM         1.1800    0.1820   -1.1030 n3        1 CDX     -0.267000
     13 CAR         1.2740    1.3790   -1.8920 c3        1 CDX     -0.091500
     14 CAS         2.7280    1.6890   -2.1790 c2        1 CDX      0.313000
     15 OAT         3.0730    2.8320   -2.4000 o         1 CDX     -0.322000
     16 NAN         3.4910    0.6180   -2.6730 n         1 CDX     -0.372000
     17 CAG         3.2970   -0.5820   -1.9720 c2        1 CDX      0.313000
     18 CAF         1.8550   -0.9440   -1.6790 c3        1 CDX     -0.091500
     19 OAH         4.1450   -1.4510   -2.0090 o         1 CDX     -0.322000
     20 HAI        -2.6930   -1.6200    4.5650 hn        1 CDX      0.256000
     21 HAD1        0.5820   -0.2520    2.4620 h1        1 CDX      0.116500
     22 HAD2       -0.5090    0.6180    3.0060 h1        1 CDX      0.116500
     23 HAQ1       -3.0020   -0.4140    0.7190 h1        1 CDX      0.116000
     24 HAQ2       -2.7490    0.6540    1.7550 h1        1 CDX      0.116000
     25 HAK1       -1.3320    1.2260    0.2610 h1        1 CDX      0.091000
     26 HAK2        0.1460    1.0600    0.8350 h1        1 CDX      0.091000
     27 HAL        -0.3130   -1.0700   -0.7380 h1        1 CDX      0.110000
     28 HAE1       -1.9360    0.0100   -1.8940 hc        1 CDX      0.088000
     29 HAE2       -1.0910    1.3610   -1.9350 hc        1 CDX      0.088000
     30 HAE3       -0.6390    0.1110   -2.8150 hc        1 CDX      0.088000
     31 HAR1        0.7680    1.3610   -2.7270 h1        1 CDX      0.115750
     32 HAR2        0.8290    2.1100   -1.4210 h1        1 CDX      0.115750
     33 HAN         4.2850    0.7780   -3.0910 hn        1 CDX      0.255000
     34 HAF1        1.7190   -1.6920   -1.0660 h1        1 CDX      0.115750
     35 HAF2        1.4410   -1.2860   -2.4940 h1        1 CDX      0.115750
@<TRIPOS>BOND
     1    1    2 1   
     2    2    7 1   
     3    3    4 1   
     4    3   20 1   
     5    4    5 1   
     6    4    6 1   
     7    6    8 1   
     8    6   21 1   
     9    6   22 1   
    10    7    8 1   
    11    7   23 1   
    12    7   24 1   
    13    8    9 1   
    14    9   10 1   
    15    9   25 1   
    16    9   26 1   
    17   10   11 1   
    18   10   12 1   
    19   10   27 1   
    20   11   28 1   
    21   11   29 1   
    22   11   30 1   
    23   12   13 1   
    24   12   18 1   
    25   13   14 1   
    26   13   31 1   
    27   13   32 1   
    28   14   15 1   
    29   14   16 1   
    30   16   17 1   
    31   16   33 1   
    32   17   18 1   
    33   17   19 1   
    34   18   34 1   
    35   18   35 1   
@<TRIPOS>SUBSTRUCTURE
     1 CDX         1 TEMP              0 ****  ****    0 ROOT
