@<TRIPOS>MOLECULE
CDX
   35    36     1     0     0
SMALL
bcc


@<TRIPOS>ATOM
      1 OAO        -2.3910   -1.0730    2.9670 o         1 CDX     -0.598000
      2 CAP        -1.2440   -0.6180    2.8480 c         1 CDX      0.707000
      3 NAI        -0.2120   -1.1050    3.6500 n         1 CDX     -0.592500
      4 CAC         1.0940   -0.6320    3.5500 c         1 CDX      0.707000
      5 OAB         1.9910   -1.1140    4.2580 o         1 CDX     -0.598000
      6 CAD         1.3790    0.5230    2.5940 c3        1 CDX      0.091300
      7 CAQ        -0.9410    0.5070    1.8610 c3        1 CDX      0.091300
      8 NAJ         0.4540    0.6120    1.4750 n3        1 CDX     -0.723600
      9 CAK         0.7450    1.7670    0.6420 c3        1 CDX      0.176800
     10 CAL        -0.1040    1.8980   -0.6510 c3        1 CDX      0.191500
     11 CAE         0.4350    3.1190   -1.4020 c3        1 CDX     -0.136100
     12 NAM        -0.1900    0.6610   -1.4220 n3        1 CDX     -0.729600
     13 CAR         1.0870    0.1150   -1.8400 c3        1 CDX      0.096300
     14 CAS         0.9790   -1.1650   -2.6660 c         1 CDX      0.707000
     15 OAT         1.9330   -1.9520   -2.7570 o         1 CDX     -0.598500
     16 NAN        -0.2060   -1.4190   -3.3570 n         1 CDX     -0.591500
     17 CAG        -1.3090   -0.5720   -3.2800 c         1 CDX      0.707000
     18 CAF        -1.1730    0.7270   -2.4880 c3        1 CDX      0.096300
     19 OAH        -2.3580   -0.8500   -3.8800 o         1 CDX     -0.598500
     20 HAI        -0.4040   -1.8610    4.2740 hn        1 CDX      0.342500
     21 HAD1        2.4130    0.3590    2.1750 h1        1 CDX      0.076950
     22 HAD2        1.4000    1.4610    3.2250 h1        1 CDX      0.076950
     23 HAQ1       -1.3400    1.4560    2.3280 h1        1 CDX      0.076950
     24 HAQ2       -1.5410    0.2890    0.9300 h1        1 CDX      0.076950
     25 HAK1        1.8330    1.7020    0.3540 h1        1 CDX      0.043200
     26 HAK2        0.5960    2.7330    1.2110 h1        1 CDX      0.043200
     27 HAL        -1.1690    2.1310   -0.3380 h1        1 CDX      0.063700
     28 HAE1        1.4920    2.9610   -1.7240 hc        1 CDX      0.048033
     29 HAE2       -0.1850    3.3330   -2.3050 hc        1 CDX      0.048033
     30 HAE3        0.3990    4.0130   -0.7340 hc        1 CDX      0.048033
     31 HAR1        1.6970    0.8390   -2.4560 h1        1 CDX      0.076700
     32 HAR2        1.6750   -0.1470   -0.9130 h1        1 CDX      0.076700
     33 HAN        -0.2880   -2.2700   -3.8740 hn        1 CDX      0.341500
     34 HAF1       -2.1780    0.9420   -2.0250 h1        1 CDX      0.076700
     35 HAF2       -0.9550    1.5360   -3.2470 h1        1 CDX      0.076700
@<TRIPOS>BOND
     1    1    2 2   
     2    2    3 1   
     3    2    7 1   
     4    3    4 1   
     5    3   20 1   
     6    4    5 2   
     7    4    6 1   
     8    6    8 1   
     9    6   21 1   
    10    6   22 1   
    11    7    8 1   
    12    7   23 1   
    13    7   24 1   
    14    8    9 1   
    15    9   10 1   
    16    9   25 1   
    17    9   26 1   
    18   10   11 1   
    19   10   12 1   
    20   10   27 1   
    21   11   28 1   
    22   11   29 1   
    23   11   30 1   
    24   12   13 1   
    25   12   18 1   
    26   13   14 1   
    27   13   31 1   
    28   13   32 1   
    29   14   15 2   
    30   14   16 1   
    31   16   17 1   
    32   16   33 1   
    33   17   18 1   
    34   17   19 2   
    35   18   34 1   
    36   18   35 1   
@<TRIPOS>SUBSTRUCTURE
     1 CDX         1 TEMP              0 ****  ****    0 ROOT
