@<TRIPOS>MOLECULE
CDX
   35    36     1     0     0
SMALL
bcc


@<TRIPOS>ATOM
      1 OAO         0.0640   -0.6000    0.2820 o         1 CDX     -0.598000
      2 CAP         1.2790   -0.4000    0.1360 c         1 CDX      0.707000
      3 NAI         2.0920   -0.1940    1.2510 n         1 CDX     -0.592500
      4 CAC         3.4630    0.0280    1.1410 c         1 CDX      0.707000
      5 OAB         4.1570    0.1740    2.1590 o         1 CDX     -0.598000
      6 CAD         4.0720    0.1380   -0.2530 c3        1 CDX      0.091300
      7 CAQ         1.9060   -0.3330   -1.2540 c3        1 CDX      0.091300
      8 NAJ         3.3360   -0.5760   -1.2840 n3        1 CDX     -0.723600
      9 CAK         3.9360   -0.3760   -2.5930 c3        1 CDX      0.176800
     10 CAL         3.3040   -1.1880   -3.7560 c3        1 CDX      0.191500
     11 CAE         4.1460   -0.8900   -5.0000 c3        1 CDX     -0.136100
     12 NAM         3.1050   -2.6000   -3.4420 n3        1 CDX     -0.729600
     13 CAR         4.3080   -3.3160   -3.0680 c3        1 CDX      0.096300
     14 CAS         4.0870   -4.7970   -2.7670 c         1 CDX      0.707000
     15 OAT         4.8900   -5.4370   -2.0730 o         1 CDX     -0.598500
     16 NAN         2.9790   -5.4360   -3.3240 n         1 CDX     -0.591500
     17 CAG         2.0430   -4.7590   -4.1040 c         1 CDX      0.707000
     18 CAF         2.3010   -3.2900   -4.4340 c3        1 CDX      0.096300
     19 OAH         1.0520   -5.3530   -4.5510 o         1 CDX     -0.598500
     20 HAI         1.6870   -0.2680    2.1610 hn        1 CDX      0.342500
     21 HAD1        4.1750    1.2440   -0.4690 h1        1 CDX      0.076950
     22 HAD2        5.1080   -0.3050   -0.1980 h1        1 CDX      0.076950
     23 HAQ1        1.4070   -1.1350   -1.8710 h1        1 CDX      0.076950
     24 HAQ2        1.6230    0.6750   -1.6830 h1        1 CDX      0.076950
     25 HAK1        5.0240   -0.6590   -2.5060 h1        1 CDX      0.043200
     26 HAK2        3.8860    0.7090   -2.9080 h1        1 CDX      0.043200
     27 HAL         2.2650   -0.7710   -3.9380 h1        1 CDX      0.063700
     28 HAE1        5.1920   -1.2610   -4.8780 hc        1 CDX      0.048033
     29 HAE2        3.7010   -1.3710   -5.9030 hc        1 CDX      0.048033
     30 HAE3        4.1800    0.2120   -5.1720 hc        1 CDX      0.048033
     31 HAR1        4.7110   -2.8500   -2.1220 h1        1 CDX      0.076700
     32 HAR2        5.1140   -3.2700   -3.8590 h1        1 CDX      0.076700
     33 HAN         2.8180   -6.3970   -3.1040 hn        1 CDX      0.341500
     34 HAF1        1.2960   -2.7800   -4.4890 h1        1 CDX      0.076700
     35 HAF2        2.7580   -3.2770   -5.4680 h1        1 CDX      0.076700
@<TRIPOS>BOND
     1    1    2 2   
     2    2    3 1   
     3    2    7 1   
     4    3    4 1   
     5    3   20 1   
     6    4    5 2   
     7    4    6 1   
     8    6    8 1   
     9    6   21 1   
    10    6   22 1   
    11    7    8 1   
    12    7   23 1   
    13    7   24 1   
    14    8    9 1   
    15    9   10 1   
    16    9   25 1   
    17    9   26 1   
    18   10   11 1   
    19   10   12 1   
    20   10   27 1   
    21   11   28 1   
    22   11   29 1   
    23   11   30 1   
    24   12   13 1   
    25   12   18 1   
    26   13   14 1   
    27   13   31 1   
    28   13   32 1   
    29   14   15 2   
    30   14   16 1   
    31   16   17 1   
    32   16   33 1   
    33   17   18 1   
    34   17   19 2   
    35   18   34 1   
    36   18   35 1   
@<TRIPOS>SUBSTRUCTURE
     1 CDX         1 TEMP              0 ****  ****    0 ROOT
