@<TRIPOS>MOLECULE
CDX
   35    36     1     0     0
SMALL
bcc


@<TRIPOS>ATOM
      1 OAO         0.0750   -0.5860    0.2970 o         1 CDX     -0.598000
      2 CAP         1.2900   -0.3920    0.1470 c         1 CDX      0.707000
      3 NAI         2.1080   -0.1860    1.2580 n         1 CDX     -0.592500
      4 CAC         3.4790    0.0300    1.1430 c         1 CDX      0.707000
      5 OAB         4.1780    0.1760    2.1580 o         1 CDX     -0.598000
      6 CAD         4.0840    0.1340   -0.2540 c3        1 CDX      0.091300
      7 CAQ         1.9130   -0.3300   -1.2460 c3        1 CDX      0.091300
      8 NAJ         3.3410   -0.5790   -1.2800 n3        1 CDX     -0.723600
      9 CAK         3.9370   -0.3860   -2.5920 c3        1 CDX      0.176800
     10 CAL         3.2980   -1.1980   -3.7500 c3        1 CDX      0.191500
     11 CAE         4.1380   -0.9080   -4.9970 c3        1 CDX     -0.136100
     12 NAM         3.0940   -2.6080   -3.4320 n3        1 CDX     -0.729600
     13 CAR         4.2950   -3.3290   -3.0590 c3        1 CDX      0.096300
     14 CAS         4.0680   -4.8080   -2.7540 c         1 CDX      0.707000
     15 OAT         4.8710   -5.4500   -2.0600 o         1 CDX     -0.598500
     16 NAN         2.9560   -5.4440   -3.3050 n         1 CDX     -0.591500
     17 CAG         2.0200   -4.7650   -4.0830 c         1 CDX      0.707000
     18 CAF         2.2830   -3.2980   -4.4190 c3        1 CDX      0.096300
     19 OAH         1.0240   -5.3560   -4.5250 o         1 CDX     -0.598500
     20 HAI         1.7060   -0.2560    2.1700 hn        1 CDX      0.342500
     21 HAD1        5.1190   -0.3140   -0.2020 h1        1 CDX      0.076950
     22 HAD2        4.1910    1.2390   -0.4730 h1        1 CDX      0.076950
     23 HAQ1        1.6320    0.6770   -1.6760 h1        1 CDX      0.076950
     24 HAQ2        1.4080   -1.1320   -1.8590 h1        1 CDX      0.076950
     25 HAK1        5.0240   -0.6730   -2.5080 h1        1 CDX      0.043200
     26 HAK2        3.8910    0.6990   -2.9100 h1        1 CDX      0.043200
     27 HAL         2.2610   -0.7770   -3.9300 h1        1 CDX      0.063700
     28 HAE1        3.6870   -1.3890   -5.8980 hc        1 CDX      0.048033
     29 HAE2        4.1750    0.1930   -5.1730 hc        1 CDX      0.048033
     30 HAE3        5.1820   -1.2830   -4.8780 hc        1 CDX      0.048033
     31 HAR1        4.7040   -2.8620   -2.1170 h1        1 CDX      0.076450
     32 HAR2        5.0990   -3.2890   -3.8540 h1        1 CDX      0.076450
     33 HAN         2.7910   -6.4030   -3.0820 hn        1 CDX      0.341500
     34 HAF1        2.7370   -3.2900   -5.4550 h1        1 CDX      0.076450
     35 HAF2        1.2810   -2.7840   -4.4710 h1        1 CDX      0.076450
@<TRIPOS>BOND
     1    1    2 2   
     2    2    3 1   
     3    2    7 1   
     4    3    4 1   
     5    3   20 1   
     6    4    5 2   
     7    4    6 1   
     8    6    8 1   
     9    6   21 1   
    10    6   22 1   
    11    7    8 1   
    12    7   23 1   
    13    7   24 1   
    14    8    9 1   
    15    9   10 1   
    16    9   25 1   
    17    9   26 1   
    18   10   11 1   
    19   10   12 1   
    20   10   27 1   
    21   11   28 1   
    22   11   29 1   
    23   11   30 1   
    24   12   13 1   
    25   12   18 1   
    26   13   14 1   
    27   13   31 1   
    28   13   32 1   
    29   14   15 2   
    30   14   16 1   
    31   16   17 1   
    32   16   33 1   
    33   17   18 1   
    34   17   19 2   
    35   18   34 1   
    36   18   35 1   
@<TRIPOS>SUBSTRUCTURE
     1 CDX         1 TEMP              0 ****  ****    0 ROOT
