@<TRIPOS>MOLECULE
CDY
   31    33     1     0     0
SMALL
bcc


@<TRIPOS>ATOM
      1 O5'         1.0790   -1.8490    0.0550 oh        1 CDY     -0.604800
      2 C5'         2.1770   -0.9620    0.0980 c3        1 CDY      0.108400
      3 C4'         2.1030   -0.0320    1.3100 c3        1 CDY      0.086100
      4 O4'         1.3920   -0.6980    2.3760 os        1 CDY     -0.402600
      5 C3'         3.4760    0.3730    1.8430 c3        1 CDY     -0.105400
      6 C2'         3.5620   -0.1890    3.2550 c3        1 CDY     -0.110400
      7 C1'         2.2690   -1.0130    3.4500 c3        1 CDY      0.254800
      8 N9          2.4780   -2.4640    3.4880 na        1 CDY     -0.274000
      9 C8          1.9680   -3.4370    2.6030 cc        1 CDY      0.524700
     10 N7          2.2520   -4.7080    2.9610 nd        1 CDY     -0.597100
     11 C5          2.9780   -4.5920    4.1460 ca        1 CDY     -0.131200
     12 C4          3.1370   -3.1610    4.5100 ca        1 CDY      0.458800
     13 N3          3.7940   -2.7420    5.6130 nb        1 CDY     -0.620000
     14 C2          4.3110   -3.7560    6.3800 ca        1 CDY      0.746000
     15 CL          5.1560   -3.2900    7.7930 cl        1 CDY     -0.024000
     16 N1          4.2300   -5.1090    6.1490 nb        1 CDY     -0.679000
     17 C6          3.5640   -5.5030    5.0370 ca        1 CDY      0.523200
     18 N6          3.4440   -6.9440    4.7480 n4        1 CDY     -0.814300
     19 HO5         0.2720   -1.3200    0.0700 ho        1 CDY      0.421000
     20 HC51        2.2230   -0.3450   -0.8400 h1        1 CDY      0.063700
     21 HC52        3.0760   -1.6340    0.1450 h1        1 CDY      0.063700
     22 H4'         1.4610    0.8620    1.0730 h1        1 CDY      0.092700
     23 HC31        4.2950   -0.0320    1.1980 hc        1 CDY      0.076700
     24 HC32        3.5770    1.4880    1.8540 hc        1 CDY      0.076700
     25 HC21        3.5720    0.6330    4.0160 hc        1 CDY      0.084200
     26 HC22        4.4880   -0.7950    3.4010 hc        1 CDY      0.084200
     27 H1'         1.7180   -0.7390    4.4010 h2        1 CDY      0.115700
     28 HC8         1.3930   -3.1350    1.6990 h5        1 CDY      0.146800
     29 HN61        3.8200   -7.1190    3.8070 hn        1 CDY      0.478800
     30 HN62        2.4470   -7.1950    4.7630 hn        1 CDY      0.478800
     31 H63         3.9550   -7.5100    5.4380 hn        1 CDY      0.478800
@<TRIPOS>BOND
     1    1    2 1   
     2    1   19 1   
     3    2    3 1   
     4    2   20 1   
     5    2   21 1   
     6    3    4 1   
     7    3    5 1   
     8    3   22 1   
     9    4    7 1   
    10    5    6 1   
    11    5   23 1   
    12    5   24 1   
    13    6    7 1   
    14    6   25 1   
    15    6   26 1   
    16    7    8 1   
    17    7   27 1   
    18    8    9 1   
    19    8   12 1   
    20    9   10 2   
    21    9   28 1   
    22   10   11 1   
    23   11   12 ar  
    24   11   17 ar  
    25   12   13 ar  
    26   13   14 ar  
    27   14   15 1   
    28   14   16 ar  
    29   16   17 ar  
    30   17   18 1   
    31   18   29 1   
    32   18   30 1   
    33   18   31 1   
@<TRIPOS>SUBSTRUCTURE
     1 CDY         1 TEMP              0 ****  ****    0 ROOT
