@<TRIPOS>MOLECULE
CDY
   30    32     1     0     0
SMALL
bcc


@<TRIPOS>ATOM
      1 O5'         0.6730   -1.8600   -4.1940 oh        1 CDY     -0.592800
      2 C5'         0.6170   -0.4540   -4.1080 c3        1 CDY      0.119400
      3 C4'        -0.7860    0.0220   -3.7310 c3        1 CDY      0.085100
      4 O4'        -1.1050   -0.4640   -2.4170 os        1 CDY     -0.421600
      5 C3'        -0.9150    1.5450   -3.7200 c3        1 CDY     -0.107400
      6 C2'        -1.3980    1.9080   -2.3240 c3        1 CDY     -0.113400
      7 C1'        -1.2180    0.6220   -1.4820 c3        1 CDY      0.250800
      8 N9         -0.0800    0.6650   -0.5920 na        1 CDY     -0.283000
      9 C8          1.2350    1.1170   -0.8820 cc        1 CDY      0.404700
     10 N7          2.1170    0.8850    0.0990 nd        1 CDY     -0.536100
     11 C5          1.3860    0.2210    1.0950 ca        1 CDY     -0.237200
     12 C4          0.0010    0.0550    0.6720 ca        1 CDY      0.478800
     13 N3         -0.9620   -0.5480    1.4270 nb        1 CDY     -0.723000
     14 C2         -0.4850   -0.9920    2.6250 ca        1 CDY      0.787000
     15 CL         -1.6450   -1.7770    3.6400 cl        1 CDY     -0.115000
     16 N1          0.7770   -0.9120    3.1470 nb        1 CDY     -0.785000
     17 C6          1.7410   -0.2930    2.3860 ca        1 CDY      0.775200
     18 N6          3.0170   -0.1520    2.8610 nh        1 CDY     -0.955500
     19 HO5         0.3630   -2.2090   -3.3470 ho        1 CDY      0.417000
     20 HC51        0.8870   -0.0860   -5.1340 h1        1 CDY      0.048700
     21 HC52        1.3650   -0.0810   -3.3580 h1        1 CDY      0.048700
     22 H4'        -1.5440   -0.4620   -4.4080 h1        1 CDY      0.085700
     23 HC31       -1.6400    1.8850   -4.4990 hc        1 CDY      0.061200
     24 HC32        0.0710    2.0280   -3.9390 hc        1 CDY      0.061200
     25 HC21       -2.4860    2.1690   -2.3330 hc        1 CDY      0.072700
     26 HC22       -0.8400    2.7800   -1.9060 hc        1 CDY      0.072700
     27 H1'        -2.1300    0.3770   -0.8590 h2        1 CDY      0.123700
     28 HC8         1.4570    1.6270   -1.8280 h5        1 CDY      0.071800
     29 HN61        3.2790   -0.5430    3.7310 hn        1 CDY      0.452300
     30 HN62        3.7050    0.2400    2.2680 hn        1 CDY      0.452300
@<TRIPOS>BOND
     1    1    2 1   
     2    1   19 1   
     3    2    3 1   
     4    2   20 1   
     5    2   21 1   
     6    3    4 1   
     7    3    5 1   
     8    3   22 1   
     9    4    7 1   
    10    5    6 1   
    11    5   23 1   
    12    5   24 1   
    13    6    7 1   
    14    6   25 1   
    15    6   26 1   
    16    7    8 1   
    17    7   27 1   
    18    8    9 1   
    19    8   12 1   
    20    9   10 2   
    21    9   28 1   
    22   10   11 1   
    23   11   12 ar  
    24   11   17 ar  
    25   12   13 ar  
    26   13   14 ar  
    27   14   15 1   
    28   14   16 ar  
    29   16   17 ar  
    30   17   18 1   
    31   18   29 1   
    32   18   30 1   
@<TRIPOS>SUBSTRUCTURE
     1 CDY         1 TEMP              0 ****  ****    0 ROOT
