@<TRIPOS>MOLECULE
CDY
   30    32     1     0     0
SMALL
bcc


@<TRIPOS>ATOM
      1 O5'         2.4200   -0.3310   -0.9220 oh        1 CDY     -0.586800
      2 C5'         1.9670   -1.0610    0.1980 c3        1 CDY      0.106400
      3 C4'         1.7990   -0.1560    1.4200 c3        1 CDY      0.096100
      4 O4'         1.1110   -0.8910    2.4470 os        1 CDY     -0.415600
      5 C3'         3.1280    0.3340    1.9970 c3        1 CDY     -0.104400
      6 C2'         3.2050   -0.2280    3.4080 c3        1 CDY     -0.110400
      7 C1'         1.9950   -1.1850    3.5360 c3        1 CDY      0.262800
      8 N9          2.3410   -2.5940    3.5210 na        1 CDY     -0.287000
      9 C8          1.9300   -3.5880    2.6010 cc        1 CDY      0.419700
     10 N7          2.3800   -4.8160    2.8990 nd        1 CDY     -0.546100
     11 C5          3.1270   -4.6530    4.0750 ca        1 CDY     -0.231200
     12 C4          3.1120   -3.2560    4.4870 ca        1 CDY      0.461800
     13 N3          3.7430   -2.7760    5.6010 nb        1 CDY     -0.729000
     14 C2          4.3930   -3.7540    6.2910 ca        1 CDY      0.784000
     15 Cl          5.2170   -3.2310    7.7200 cl        1 CDY     -0.119000
     16 N1          4.4930   -5.0940    6.0260 nb        1 CDY     -0.787000
     17 C6          3.8590   -5.5690    4.9030 ca        1 CDY      0.775200
     18 N6          3.9330   -6.8940    4.5710 nv        1 CDY     -0.957500
     19 HO5         1.7260    0.2960   -1.1580 ho        1 CDY      0.400000
     20 HC51        2.7610   -1.8360    0.3770 h1        1 CDY      0.058200
     21 HC52        0.9920   -1.5720   -0.0250 h1        1 CDY      0.058200
     22 H4'         1.1150    0.7010    1.1700 h1        1 CDY      0.069700
     23 HC31        3.9820   -0.0220    1.3670 hc        1 CDY      0.068200
     24 HC32        3.1600    1.4510    2.0110 hc        1 CDY      0.068200
     25 HC21        3.0960    0.5810    4.1720 hc        1 CDY      0.078700
     26 HC22        4.1780   -0.7430    3.5960 hc        1 CDY      0.078700
     27 H1'         1.3960   -0.9880    4.4750 h2        1 CDY      0.100700
     28 HC8         1.2950   -3.3230    1.7440 h5        1 CDY      0.082800
     29 HN61        4.4110   -7.5370    5.1510 hn        1 CDY      0.452800
     30 HN62        3.4360   -7.2150    3.7780 hn        1 CDY      0.452800
@<TRIPOS>BOND
     1    1    2 1   
     2    1   19 1   
     3    2    3 1   
     4    2   20 1   
     5    2   21 1   
     6    3    4 1   
     7    3    5 1   
     8    3   22 1   
     9    4    7 1   
    10    5    6 1   
    11    5   23 1   
    12    5   24 1   
    13    6    7 1   
    14    6   25 1   
    15    6   26 1   
    16    7    8 1   
    17    7   27 1   
    18    8    9 1   
    19    8   12 1   
    20    9   10 2   
    21    9   28 1   
    22   10   11 1   
    23   11   12 ar  
    24   11   17 ar  
    25   12   13 ar  
    26   13   14 ar  
    27   14   15 1   
    28   14   16 ar  
    29   16   17 ar  
    30   17   18 1   
    31   18   29 1   
    32   18   30 1   
@<TRIPOS>SUBSTRUCTURE
     1 CDY         1 TEMP              0 ****  ****    0 ROOT
