@<TRIPOS>MOLECULE
CDY
   30    32     1     0     0
SMALL
bcc


@<TRIPOS>ATOM
      1 O5'         2.4200   -0.2520   -0.8230 oh        1 CDY     -0.597800
      2 C5'         1.9460   -1.0180    0.2700 c3        1 CDY      0.107400
      3 C4'         1.8300   -0.0640    1.4610 c3        1 CDY      0.133100
      4 O4'         1.1310   -0.7440    2.5190 os        1 CDY     -0.418600
      5 C3'         3.1860    0.3860    2.0060 c3        1 CDY     -0.102400
      6 C2'         3.2820   -0.1800    3.4140 c3        1 CDY     -0.111400
      7 C1'         2.0300   -1.0730    3.5850 c3        1 CDY      0.260800
      8 N9          2.3020   -2.4990    3.5730 na        1 CDY     -0.286000
      9 C8          1.7700   -3.4790    2.7010 cc        1 CDY      0.418700
     10 N7          2.1740   -4.7270    2.9850 nd        1 CDY     -0.548100
     11 C5          3.0110   -4.5930    4.1020 ca        1 CDY     -0.230200
     12 C4          3.1020   -3.1920    4.4920 ca        1 CDY      0.461800
     13 N3          3.8350   -2.7360    5.5530 nb        1 CDY     -0.728000
     14 C2          4.4750   -3.7410    6.2120 ca        1 CDY      0.784000
     15 CL          5.4240   -3.2500    7.5730 cl        1 CDY     -0.119000
     16 N1          4.4820   -5.0880    5.9610 nb        1 CDY     -0.786000
     17 C6          3.7490   -5.5380    4.8900 ca        1 CDY      0.773200
     18 N6          3.7370   -6.8680    4.5640 nh        1 CDY     -0.956500
     19 HO5         2.4530   -0.8490   -1.5810 ho        1 CDY      0.408000
     20 HC51        0.9370   -1.4530    0.0370 h1        1 CDY      0.034200
     21 HC52        2.6610   -1.8530    0.5010 h1        1 CDY      0.034200
     22 H4'         1.1750    0.8070    1.1860 h1        1 CDY      0.088700
     23 HC31        3.2490    1.5020    2.0180 hc        1 CDY      0.067700
     24 HC32        4.0140    0.0090    1.3540 hc        1 CDY      0.067700
     25 HC21        3.2420    0.6330    4.1800 hc        1 CDY      0.078200
     26 HC22        4.2340   -0.7440    3.5690 hc        1 CDY      0.078200
     27 H1'         1.4680   -0.8380    4.5390 h2        1 CDY      0.099700
     28 HC8         1.0890   -3.1890    1.8900 h5        1 CDY      0.082800
     29 HN61        3.1400   -7.1730    3.8370 hn        1 CDY      0.451300
     30 HN62        4.1960   -7.5320    5.1370 hn        1 CDY      0.451300
@<TRIPOS>BOND
     1    1    2 1   
     2    1   19 1   
     3    2    3 1   
     4    2   20 1   
     5    2   21 1   
     6    3    4 1   
     7    3    5 1   
     8    3   22 1   
     9    4    7 1   
    10    5    6 1   
    11    5   23 1   
    12    5   24 1   
    13    6    7 1   
    14    6   25 1   
    15    6   26 1   
    16    7    8 1   
    17    7   27 1   
    18    8    9 1   
    19    8   12 1   
    20    9   10 2   
    21    9   28 1   
    22   10   11 1   
    23   11   12 ar  
    24   11   17 ar  
    25   12   13 ar  
    26   13   14 ar  
    27   14   15 1   
    28   14   16 ar  
    29   16   17 ar  
    30   17   18 1   
    31   18   29 1   
    32   18   30 1   
@<TRIPOS>SUBSTRUCTURE
     1 CDY         1 TEMP              0 ****  ****    0 ROOT
