@<TRIPOS>MOLECULE
CDY
   30    28     1     0     0
SMALL
bcc


@<TRIPOS>ATOM
      1 O5'        -2.7030    2.3900   -3.0550 oh        1 CDY     -0.592800
      2 C5'        -1.2940    2.3390   -3.0510 c3        1 CDY      0.119400
      3 C4'        -0.7910    2.3210   -1.6160 c3        1 CDY      0.085100
      4 O4'        -1.0740    1.1950   -1.0580 os        1 CDY     -0.421600
      5 C3'         0.7940    2.4110   -1.5860 c3        1 CDY     -0.107400
      6 C2'         1.2450    1.2990   -0.6610 c3        1 CDY     -0.113400
      7 C1'         0.1320    0.8800   -0.0550 c3        1 CDY      0.250800
      8 N9          0.2070   -0.4950    0.1890 n3        1 CDY     -0.126400
      9 C8         -0.0300   -1.5120   -0.6700 c1        1 CDY      0.169400
     10 N7         -0.0430   -2.6640    0.0390 ne        1 CDY     -0.381400
     11 C5          0.1850   -2.3580    1.3440 cg        1 CDY     -0.194000
     12 C4          0.3400   -1.0210    1.4370 c1        1 CDY      0.358500
     13 N3          0.5880   -0.4470    2.6480 n1        1 CDY     -0.522800
     14 C2          0.6810   -1.2240    3.7650 c1        1 CDY      0.510700
     15 CL          0.9270   -0.9420    5.4670 cl        1 CDY     -0.038900
     16 N1          0.5250   -2.5770    3.6720 n1        1 CDY     -0.584800
     17 C6          0.2800   -3.1450    2.4800 c1        1 CDY      0.309800
     18 N6          0.1910   -4.5340    2.7580 n3        1 CDY     -0.818400
     19 HO5        -2.9890    2.6330   -3.8610 ho        1 CDY      0.417000
     20 HC51       -0.9950    1.5280   -3.5120 h1        1 CDY      0.048700
     21 HC52       -0.9370    3.1270   -3.5120 h1        1 CDY      0.048700
     22 H4'        -1.1820    3.0600   -1.1090 h1        1 CDY      0.085700
     23 HC31        1.0770    3.2790   -1.2350 hc        1 CDY      0.061200
     24 HC32        1.1570    2.2730   -2.4840 hc        1 CDY      0.061200
     25 HC21        1.8830    1.6430   -0.0020 hc        1 CDY      0.072700
     26 HC22        1.6470    0.5700   -1.1770 hc        1 CDY      0.072700
     27 H1'         0.0040    1.3640    0.7860 h2        1 CDY      0.123700
     28 HC8        -0.1520   -1.4310   -1.6350 DU        1 CDY      0.201000
     29 HN61       -0.1070   -4.8180    3.5740 hn        1 CDY      0.452300
     30 HN62        0.4330   -5.1440    2.1220 hn        1 CDY      0.452300
@<TRIPOS>BOND
     1    1    2 1   
     2    1   19 1   
     3    2    3 1   
     4    2   20 1   
     5    2   21 1   
     6    3    4 1   
     7    3    5 1   
     8    3   22 1   
     9    4    7 1   
    10    5    6 1   
    11    5   23 1   
    12    5   24 1   
    13    6    7 1   
    14    6   25 1   
    15    6   26 1   
    16    7    8 1   
    17    7   27 1   
    18    8    9 2   
    19    8   12 1   
    20    9   10 2   
    21   10   11 1   
    22   11   17 3   
    23   12   13 3   
    24   14   15 1   
    25   14   16 3   
    26   17   18 1   
    27   18   29 1   
    28   18   30 1   
@<TRIPOS>SUBSTRUCTURE
     1 CDY         1 TEMP              0 ****  ****    0 ROOT
