@<TRIPOS>MOLECULE
CDZ
   65    65     1     0     0
SMALL
bcc


@<TRIPOS>ATOM
      1 CAC         4.6880    1.4350    0.5350 c3        1 CDZ     -0.064900
      2 CAT         3.7200    1.5650    1.6520 c2        1 CDZ     -0.098900
      3 CAD         4.2570    1.2660    3.0020 c3        1 CDZ     -0.064900
      4 CAN         2.4380    1.9240    1.4770 c2        1 CDZ     -0.198700
      5 CAQ         1.8190    2.2790    0.1800 c3        1 CDZ     -0.028700
      6 CBC         0.6750    1.3270   -0.2250 c3        1 CDZ     -0.106800
      7 CAR         0.0180    1.8980   -1.4950 c3        1 CDZ     -0.028700
      8 CAO        -1.1270    1.0980   -1.9860 c2        1 CDZ     -0.198700
      9 CAU        -1.8900    1.4750   -3.0250 c2        1 CDZ     -0.098900
     10 CAF        -1.6470    2.7360   -3.7660 c3        1 CDZ     -0.064900
     11 CAE        -3.0280    0.6510   -3.4970 c3        1 CDZ     -0.064900
     12 CAW        -0.3390    1.2720    0.8800 c2        1 CDZ      0.192900
     13 OAJ        -0.8050    2.5180    1.1950 oh        1 CDZ     -0.483100
     14 CAY         1.2740   -0.0360   -0.5750 c         1 CDZ      0.624300
     15 OAL         2.2360   -0.0540   -1.3600 o         1 CDZ     -0.563100
     16 CBA         0.7130   -1.2440    0.0250 ce        1 CDZ     -0.443400
     17 CAV         1.1690   -2.5630   -0.4520 c         1 CDZ      0.616300
     18 OAI         1.2410   -3.5270    0.3320 o         1 CDZ     -0.595100
     19 CBB         1.5100   -2.7420   -1.9140 c3        1 CDZ     -0.160700
     20 CAH         1.9360   -4.1670   -2.2020 c3        1 CDZ     -0.083600
     21 CAG         0.3340   -2.3540   -2.7870 c3        1 CDZ     -0.083600
     22 CAX        -0.1910   -1.1400    1.0640 cf        1 CDZ      0.327100
     23 OAK        -0.6890   -2.1950    1.7610 oh        1 CDZ     -0.496100
     24 CAZ        -0.7440    0.1300    1.5060 cf        1 CDZ     -0.245200
     25 CAP        -1.7280    0.1390    2.6280 c3        1 CDZ      0.006000
     26 CAM        -3.1230    0.3090    2.1480 c2        1 CDZ     -0.199200
     27 CAS        -4.1060   -0.5910    2.3040 c2        1 CDZ     -0.087400
     28 CAB        -3.9130   -1.9030    2.9700 c3        1 CDZ     -0.066900
     29 CAA        -5.4800   -0.3240    1.8090 c3        1 CDZ     -0.066900
     30 HAC         5.6430    0.9710    0.8830 hc        1 CDZ      0.044700
     31 HACA        4.2620    0.7970   -0.2820 hc        1 CDZ      0.044700
     32 HACB        4.9240    2.4410    0.1060 hc        1 CDZ      0.044700
     33 HAD         5.1370    1.9220    3.2180 hc        1 CDZ      0.044700
     34 HADA        3.4920    1.4270    3.8000 hc        1 CDZ      0.044700
     35 HADB        4.5960    0.2000    3.0490 hc        1 CDZ      0.044700
     36 HAN         1.7570    1.9960    2.3430 ha        1 CDZ      0.124000
     37 HAQ         1.3930    3.3170    0.2590 hc        1 CDZ      0.069700
     38 HAQA        2.5770    2.2740   -0.6500 hc        1 CDZ      0.069700
     39 HAR        -0.3230    2.9470   -1.2720 hc        1 CDZ      0.069700
     40 HARA        0.8080    1.9580   -2.2940 hc        1 CDZ      0.069700
     41 HAO        -1.3290    0.1550   -1.4510 ha        1 CDZ      0.124000
     42 HAF        -0.5910    2.7750   -4.1340 hc        1 CDZ      0.044700
     43 HAFA       -2.3310    2.8290   -4.6450 hc        1 CDZ      0.044700
     44 HAFB       -1.8110    3.6170   -3.0950 hc        1 CDZ      0.044700
     45 HAE        -3.9750    1.2450   -3.4540 hc        1 CDZ      0.044700
     46 HAEA       -2.8610    0.3390   -4.5590 hc        1 CDZ      0.044700
     47 HAEB       -3.1590   -0.2690   -2.8760 hc        1 CDZ      0.044700
     48 HBB         2.3790   -2.0570   -2.1430 hc        1 CDZ      0.105700
     49 HAH         1.1000   -4.8770   -1.9920 hc        1 CDZ      0.040033
     50 HAHA        2.2340   -4.2650   -3.2730 hc        1 CDZ      0.040033
     51 HAHB        2.8010   -4.4490   -1.5550 hc        1 CDZ      0.040033
     52 HAG         0.0430   -1.2910   -2.5970 hc        1 CDZ      0.040033
     53 HAGA        0.6140   -2.4590   -3.8630 hc        1 CDZ      0.040033
     54 HAGB       -0.5450   -3.0110   -2.5840 hc        1 CDZ      0.040033
     55 HOAK       -0.2690   -3.0300    1.4880 ho        1 CDZ      0.471000
     56 HAP        -1.6250   -0.8070    3.2280 hc        1 CDZ      0.062200
     57 HAPA       -1.4820    0.9830    3.3340 hc        1 CDZ      0.062200
     58 HAM        -3.3240    1.2590    1.6250 ha        1 CDZ      0.112000
     59 HAB        -3.7800   -1.7610    4.0720 hc        1 CDZ      0.045867
     60 HABA       -4.7940   -2.5710    2.8070 hc        1 CDZ      0.045867
     61 HABB       -3.0010   -2.4170    2.5710 hc        1 CDZ      0.045867
     62 HAA        -5.7560   -1.0760    1.0270 hc        1 CDZ      0.045867
     63 HAAA       -6.2130   -0.4110    2.6490 hc        1 CDZ      0.045867
     64 HAAB       -5.5710    0.6970    1.3640 hc        1 CDZ      0.045867
     65 H36        -1.4960    2.4430    1.8730 ho        1 CDZ      0.436000
@<TRIPOS>BOND
     1    1    2 1   
     2    1   30 1   
     3    1   31 1   
     4    1   32 1   
     5    2    3 1   
     6    2    4 2   
     7    3   33 1   
     8    3   34 1   
     9    3   35 1   
    10    4    5 1   
    11    4   36 1   
    12    5    6 1   
    13    5   37 1   
    14    5   38 1   
    15    6    7 1   
    16    6   12 1   
    17    6   14 1   
    18    7    8 1   
    19    7   39 1   
    20    7   40 1   
    21    8    9 2   
    22    8   41 1   
    23    9   10 1   
    24    9   11 1   
    25   10   42 1   
    26   10   43 1   
    27   10   44 1   
    28   11   45 1   
    29   11   46 1   
    30   11   47 1   
    31   12   13 1   
    32   12   24 2   
    33   13   65 1   
    34   14   15 2   
    35   14   16 1   
    36   16   17 1   
    37   16   22 2   
    38   17   18 2   
    39   17   19 1   
    40   19   20 1   
    41   19   21 1   
    42   19   48 1   
    43   20   49 1   
    44   20   50 1   
    45   20   51 1   
    46   21   52 1   
    47   21   53 1   
    48   21   54 1   
    49   22   23 1   
    50   22   24 1   
    51   23   55 1   
    52   24   25 1   
    53   25   26 1   
    54   25   56 1   
    55   25   57 1   
    56   26   27 2   
    57   26   58 1   
    58   27   28 1   
    59   27   29 1   
    60   28   59 1   
    61   28   60 1   
    62   28   61 1   
    63   29   62 1   
    64   29   63 1   
    65   29   64 1   
@<TRIPOS>SUBSTRUCTURE
     1 CDZ         1 TEMP              0 ****  ****    0 ROOT
