@<TRIPOS>MOLECULE
CDZ
   65    65     1     0     0
SMALL
bcc


@<TRIPOS>ATOM
      1 CAC         0.1690    0.1590    0.3020 c3        1 CDZ     -0.065650
      2 CAT         1.5770   -0.2160    0.0250 c2        1 CDZ     -0.094400
      3 CAD         2.4000   -0.5350    1.2180 c3        1 CDZ     -0.065650
      4 CAN         2.0960   -0.2660   -1.2120 c2        1 CDZ     -0.199200
      5 CAQ         1.3490   -0.0030   -2.4630 c3        1 CDZ     -0.028700
      6 CBC         1.8810    1.2180   -3.2410 c3        1 CDZ     -0.103800
      7 CAR         1.1390    1.2690   -4.5930 c3        1 CDZ     -0.028700
      8 CAO         1.4540    2.4820   -5.3810 c2        1 CDZ     -0.199200
      9 CAU         2.0470    2.4920   -6.5840 c2        1 CDZ     -0.094400
     10 CAF         2.5070    1.2620   -7.2750 c3        1 CDZ     -0.065650
     11 CAE         2.2840    3.7640   -7.3120 c3        1 CDZ     -0.065650
     12 CAW         3.3530    1.0450   -3.4820 c2        1 CDZ      0.192900
     13 OAJ         3.6170   -0.1020   -4.1790 oh        1 CDZ     -0.487100
     14 CAY         1.5340    2.4870   -2.4630 c         1 CDZ      0.625300
     15 OAL         0.3590    2.6320   -2.0890 o         1 CDZ     -0.564100
     16 CBA         2.5840    3.4600   -2.1760 ce        1 CDZ     -0.443400
     17 CAV         2.2140    4.7770   -1.6250 c         1 CDZ      0.618300
     18 OAI         2.9150    5.3210   -0.7530 o         1 CDZ     -0.587100
     19 CBB         1.0160    5.4960   -2.2080 c3        1 CDZ     -0.159700
     20 CAH         0.4480    6.4870   -1.2140 c3        1 CDZ     -0.086100
     21 CAG         1.4350    6.2000   -3.4850 c3        1 CDZ     -0.086100
     22 CAX         3.9080    3.1240   -2.3720 cf        1 CDZ      0.325100
     23 OAK         4.9600    3.9010   -1.9980 oh        1 CDZ     -0.495100
     24 CAZ         4.3180    1.9070   -3.0510 cf        1 CDZ     -0.239200
     25 CAP         5.7740    1.6510   -3.2600 c3        1 CDZ      0.006000
     26 CAM         6.2050    1.9610   -4.6470 c2        1 CDZ     -0.197200
     27 CAS         7.1200    2.8840   -4.9800 c2        1 CDZ     -0.089400
     28 CAB         7.8110    3.7420   -3.9870 c3        1 CDZ     -0.066400
     29 CAA         7.5060    3.1090   -6.3960 c3        1 CDZ     -0.066400
     30 HAC        -0.5240   -0.6400   -0.0620 hc        1 CDZ      0.044700
     31 HACA       -0.0930    1.1160   -0.2200 hc        1 CDZ      0.044700
     32 HACB       -0.0020    0.2980    1.3980 hc        1 CDZ      0.044700
     33 HAD         1.9210   -1.3590    1.8040 hc        1 CDZ      0.044700
     34 HADA        2.4770    0.3650    1.8790 hc        1 CDZ      0.044700
     35 HADB        3.4330   -0.8550    0.9370 hc        1 CDZ      0.044700
     36 HAN         3.1540   -0.5420   -1.3610 ha        1 CDZ      0.123000
     37 HAQ         1.4400   -0.9030   -3.1310 hc        1 CDZ      0.068700
     38 HAQA        0.2590    0.1720   -2.2580 hc        1 CDZ      0.068700
     39 HAR         0.0350    1.2620   -4.3710 hc        1 CDZ      0.068700
     40 HARA        1.3850    0.3330   -5.1620 hc        1 CDZ      0.068700
     41 HAO         1.1420    3.4290   -4.9060 ha        1 CDZ      0.123000
     42 HAF         1.6300    0.6470   -7.5980 hc        1 CDZ      0.044700
     43 HAFA        3.1120    1.5110   -8.1810 hc        1 CDZ      0.044700
     44 HAFB        3.1370    0.6390   -6.5890 hc        1 CDZ      0.044700
     45 HAE         1.9260    4.6470   -6.7290 hc        1 CDZ      0.044700
     46 HAEA        3.3780    3.8930   -7.5110 hc        1 CDZ      0.044700
     47 HAEB        1.7500    3.7470   -8.2950 hc        1 CDZ      0.044700
     48 HBB         0.2160    4.7430   -2.4560 hc        1 CDZ      0.095700
     49 HAH         1.2250    7.2320   -0.9160 hc        1 CDZ      0.041033
     50 HAHA        0.1020    5.9550   -0.2960 hc        1 CDZ      0.041033
     51 HAHB       -0.4180    7.0270   -1.6660 hc        1 CDZ      0.041033
     52 HAG         1.8260    5.4650   -4.2310 hc        1 CDZ      0.041033
     53 HAGA        0.5560    6.7250   -3.9300 hc        1 CDZ      0.041033
     54 HAGB        2.2300    6.9560   -3.2750 hc        1 CDZ      0.041033
     55 HOAK        4.6570    4.6760   -1.4910 ho        1 CDZ      0.468000
     56 HAP         6.3700    2.2460   -2.5140 hc        1 CDZ      0.062200
     57 HAPA        5.9970    0.5670   -3.0440 hc        1 CDZ      0.062200
     58 HAM         5.7050    1.3690   -5.4330 ha        1 CDZ      0.111000
     59 HAB         8.5360    3.1350   -3.3880 hc        1 CDZ      0.045700
     60 HABA        8.3750    4.5650   -4.4890 hc        1 CDZ      0.045700
     61 HABB        7.0710    4.2000   -3.2800 hc        1 CDZ      0.045700
     62 HAA         6.9880    2.4000   -7.0870 hc        1 CDZ      0.045700
     63 HAAA        8.6110    2.9780   -6.5160 hc        1 CDZ      0.045700
     64 HAAB        7.2440    4.1540   -6.7000 hc        1 CDZ      0.045700
     65 H36         4.5700   -0.1620   -4.3540 ho        1 CDZ      0.435000
@<TRIPOS>BOND
     1    1    2 1   
     2    1   30 1   
     3    1   31 1   
     4    1   32 1   
     5    2    3 1   
     6    2    4 2   
     7    3   33 1   
     8    3   34 1   
     9    3   35 1   
    10    4    5 1   
    11    4   36 1   
    12    5    6 1   
    13    5   37 1   
    14    5   38 1   
    15    6    7 1   
    16    6   12 1   
    17    6   14 1   
    18    7    8 1   
    19    7   39 1   
    20    7   40 1   
    21    8    9 2   
    22    8   41 1   
    23    9   10 1   
    24    9   11 1   
    25   10   42 1   
    26   10   43 1   
    27   10   44 1   
    28   11   45 1   
    29   11   46 1   
    30   11   47 1   
    31   12   13 1   
    32   12   24 2   
    33   13   65 1   
    34   14   15 2   
    35   14   16 1   
    36   16   17 1   
    37   16   22 2   
    38   17   18 2   
    39   17   19 1   
    40   19   20 1   
    41   19   21 1   
    42   19   48 1   
    43   20   49 1   
    44   20   50 1   
    45   20   51 1   
    46   21   52 1   
    47   21   53 1   
    48   21   54 1   
    49   22   23 1   
    50   22   24 1   
    51   23   55 1   
    52   24   25 1   
    53   25   26 1   
    54   25   56 1   
    55   25   57 1   
    56   26   27 2   
    57   26   58 1   
    58   27   28 1   
    59   27   29 1   
    60   28   59 1   
    61   28   60 1   
    62   28   61 1   
    63   29   62 1   
    64   29   63 1   
    65   29   64 1   
@<TRIPOS>SUBSTRUCTURE
     1 CDZ         1 TEMP              0 ****  ****    0 ROOT
