@<TRIPOS>MOLECULE
CDZ
   65    61     1     0     0
SMALL
bcc


@<TRIPOS>ATOM
      1 CAC        -3.4680   -0.3870    3.5540 c3        1 CDZ     -0.189500
      2 CAT        -1.9700   -0.5950    3.5560 c2        1 CDZ     -0.082000
      3 CAD        -1.2620   -0.9860    4.8350 c3        1 CDZ     -0.189500
      4 CAN        -1.2650   -0.4330    2.4190 c1        1 CDZ     -0.195000
      5 CAQ        -1.9730   -0.0420    1.1410 c2        1 CDZ     -0.109000
      6 CBC        -1.0000   -0.1100   -0.0150 c3        1 CDZ     -0.058000
      7 CAR        -1.9300    0.1370   -1.1830 c3        1 CDZ     -0.114000
      8 CAO        -2.5160    1.5280   -1.0750 c2        1 CDZ     -0.183000
      9 CAU        -3.4510    1.9360   -1.9560 c1        1 CDZ     -0.107000
     10 CAF        -3.9150    1.0020   -3.0530 c2        1 CDZ     -0.185000
     11 CAE        -4.0370    3.3260   -1.8490 c3        1 CDZ     -0.180000
     12 CAW         0.0290    1.0220    0.0910 c2        1 CDZ      0.159000
     13 OAJ        -0.3120    2.2220    0.7410 oh        1 CDZ     -0.238000
     14 CAY        -0.3910   -1.5120   -0.1120 c2        1 CDZ      0.308000
     15 OAL        -0.9890   -2.4660    0.3430 o         1 CDZ     -0.314000
     16 CBA         0.9880   -1.6980   -0.7050 c2        1 CDZ     -0.415000
     17 CAV         1.4210   -3.0620   -1.2030 c2        1 CDZ      0.310000
     18 OAI         2.5290   -3.2110   -1.6790 o         1 CDZ     -0.357000
     19 CBB         0.4660   -4.2340   -1.1270 c3        1 CDZ     -0.132000
     20 CAH         0.2600   -4.8080   -2.5120 c3        1 CDZ     -0.206000
     21 CAG         1.0450   -5.2980   -0.2210 c3        1 CDZ     -0.206000
     22 CAX         1.8870   -0.5200   -0.8820 c1        1 CDZ      0.289000
     23 OAK         3.2060   -0.7030   -1.3370 o         1 CDZ     -0.249000
     24 CAZ         1.4160    0.8410   -0.4880 c2        1 CDZ     -0.252000
     25 CAP         2.3010    2.0460   -0.7220 c3        1 CDZ     -0.086000
     26 CAM         3.4580    2.0180    0.2510 c2        1 CDZ     -0.204000
     27 CAS         4.4190    2.9610    0.1830 c1        1 CDZ     -0.098000
     28 CAB         5.5770    2.9330    1.1560 c2        1 CDZ     -0.185000
     29 CAA         4.3420    4.0440   -0.8700 c3        1 CDZ     -0.188000
     30 HAC        -3.8270   -0.5870    4.4440 hc        1 CDZ      0.085000
     31 HACA       -3.8800   -0.9830    2.8950 hc        1 CDZ      0.085000
     32 HACB       -3.6680    0.5440    3.3230 hc        1 CDZ      0.085000
     33 HAD        -0.5790   -0.3170    5.0480 hc        1 CDZ      0.085000
     34 HADA       -1.9130   -1.0330    5.5670 hc        1 CDZ      0.085000
     35 HADB       -0.8370   -1.8610    4.7190 hc        1 CDZ      0.085000
     36 HAN        -0.2990   -0.5670    2.4210 ha        1 CDZ      0.117000
     37 HAQ        -2.7160   -0.6570    0.9780 ha        1 CDZ      0.111000
     38 HAQA       -2.3170    0.8700    1.2240 ha        1 CDZ      0.111000
     39 HAR        -1.4310    0.0580   -2.0200 hc        1 CDZ      0.103500
     40 HARA       -2.6520   -0.5230   -1.1700 hc        1 CDZ      0.103500
     41 HAO        -2.2170    2.1310   -0.3680 ha        1 CDZ      0.142000
     42 HAF        -4.3720    0.2320   -2.6550 ha        1 CDZ      0.083167
     43 HAFA       -3.1400    0.6920   -3.5670 ha        1 CDZ      0.083167
     44 HAFB       -4.5330    1.4780   -3.6470 ha        1 CDZ      0.083167
     45 HAE        -3.3330    3.9580   -1.5930 hc        1 CDZ      0.081333
     46 HAEA       -4.4140    3.5900   -2.7140 hc        1 CDZ      0.081333
     47 HAEB       -4.7430    3.3310   -1.1690 hc        1 CDZ      0.081333
     48 HBB        -0.3890   -3.9330   -0.7690 hc        1 CDZ      0.109000
     49 HAH         0.4370   -5.7720   -2.4960 hc        1 CDZ      0.083167
     50 HAHA        0.8740   -4.3730   -3.1400 hc        1 CDZ      0.083167
     51 HAHB       -0.6650   -4.6500   -2.7960 hc        1 CDZ      0.083167
     52 HAG         1.5380   -5.9530   -0.7590 hc        1 CDZ      0.083167
     53 HAGA        1.6540   -4.8820    0.4250 hc        1 CDZ      0.083167
     54 HAGB        0.3190   -5.7500    0.2580 hc        1 CDZ      0.083167
     55 HOAK        3.6770   -1.1300   -0.7160 ho        1 CDZ      0.274000
     56 HAP         2.6440    2.0250   -1.6380 hc        1 CDZ      0.108000
     57 HAPA        1.7810    2.8630   -0.5880 hc        1 CDZ      0.108000
     58 HAM         3.5060    1.3220    0.9340 ha        1 CDZ      0.131000
     59 HAB         5.4790    2.1650    1.7580 ha        1 CDZ      0.083167
     60 HABA        6.4190    2.8550    0.6610 ha        1 CDZ      0.083167
     61 HABB        5.5820    3.7610    1.6810 ha        1 CDZ      0.083167
     62 HAA         3.4880    4.5180   -0.7900 hc        1 CDZ      0.083667
     63 HAAA        4.4090    3.6390   -1.7610 hc        1 CDZ      0.083667
     64 HAAB        5.0800    4.6760   -0.7430 hc        1 CDZ      0.083667
     65 H36         0.1730    2.3060    1.4820 ho        1 CDZ      0.240000
@<TRIPOS>BOND
     1    1    2 1   
     2    1   30 1   
     3    1   31 1   
     4    1   32 1   
     5    2    3 1   
     6    2    4 1   
     7    3   33 1   
     8    3   34 1   
     9    3   35 1   
    10    4   36 1   
    11    5    6 1   
    12    5   37 1   
    13    5   38 1   
    14    6    7 1   
    15    6   12 1   
    16    6   14 1   
    17    7    8 1   
    18    7   39 1   
    19    7   40 1   
    20    8    9 1   
    21    8   41 1   
    22    9   11 1   
    23   10   42 1   
    24   10   43 1   
    25   10   44 1   
    26   11   45 1   
    27   11   46 1   
    28   11   47 1   
    29   12   13 1   
    30   12   24 1   
    31   13   65 1   
    32   14   15 1   
    33   14   16 1   
    34   16   17 1   
    35   16   22 1   
    36   17   18 1   
    37   17   19 1   
    38   19   20 1   
    39   19   21 1   
    40   19   48 1   
    41   20   49 1   
    42   20   50 1   
    43   20   51 1   
    44   21   52 1   
    45   21   53 1   
    46   21   54 1   
    47   22   24 1   
    48   23   55 1   
    49   24   25 1   
    50   25   26 1   
    51   25   56 1   
    52   25   57 1   
    53   26   27 1   
    54   26   58 1   
    55   27   29 1   
    56   28   59 1   
    57   28   60 1   
    58   28   61 1   
    59   29   62 1   
    60   29   63 1   
    61   29   64 1   
@<TRIPOS>SUBSTRUCTURE
     1 CDZ         1 TEMP              0 ****  ****    0 ROOT
