@<TRIPOS>MOLECULE
CDZ
   65    65     1     0     0
SMALL
bcc


@<TRIPOS>ATOM
      1 CAC         0.1680    0.1770    0.3090 c3        1 CDZ     -0.065650
      2 CAT         1.5730   -0.2060    0.0280 c2        1 CDZ     -0.094400
      3 CAD         2.3980   -0.5280    1.2190 c3        1 CDZ     -0.065650
      4 CAN         2.0880   -0.2600   -1.2100 c2        1 CDZ     -0.199200
      5 CAQ         1.3400    0.0060   -2.4590 c3        1 CDZ     -0.028700
      6 CBC         1.8750    1.2240   -3.2400 c3        1 CDZ     -0.103800
      7 CAR         1.1280    1.2780   -4.5880 c3        1 CDZ     -0.028700
      8 CAO         1.4470    2.4870   -5.3790 c2        1 CDZ     -0.199200
      9 CAU         2.0360    2.4930   -6.5850 c2        1 CDZ     -0.094400
     10 CAF         2.4850    1.2600   -7.2770 c3        1 CDZ     -0.065650
     11 CAE         2.2770    3.7630   -7.3150 c3        1 CDZ     -0.065650
     12 CAW         3.3450    1.0430   -3.4870 c2        1 CDZ      0.192900
     13 OAJ         3.6000   -0.1050   -4.1860 oh        1 CDZ     -0.487100
     14 CAY         1.5370    2.4950   -2.4610 c         1 CDZ      0.625300
     15 OAL         0.3630    2.6470   -2.0860 o         1 CDZ     -0.564100
     16 CBA         2.5940    3.4590   -2.1730 ce        1 CDZ     -0.443400
     17 CAV         2.2350    4.7770   -1.6150 c         1 CDZ      0.618300
     18 OAI         2.9410    5.3100   -0.7410 o         1 CDZ     -0.587100
     19 CBB         1.0410    5.5070   -2.1920 c3        1 CDZ     -0.159700
     20 CAH         0.4910    6.5080   -1.1980 c3        1 CDZ     -0.086100
     21 CAG         1.4580    6.2000   -3.4750 c3        1 CDZ     -0.086100
     22 CAX         3.9150    3.1160   -2.3730 cf        1 CDZ      0.325100
     23 OAK         4.9740    3.8850   -2.0010 oh        1 CDZ     -0.495100
     24 CAZ         4.3160    1.8980   -3.0580 cf        1 CDZ     -0.239200
     25 CAP         5.7700    1.6350   -3.2720 c3        1 CDZ      0.006000
     26 CAM         6.1970    1.9450   -4.6600 c2        1 CDZ     -0.197200
     27 CAS         7.1160    2.8640   -4.9950 c2        1 CDZ     -0.089400
     28 CAB         7.8150    3.7160   -4.0020 c3        1 CDZ     -0.066400
     29 CAA         7.4980    3.0900   -6.4120 c3        1 CDZ     -0.066400
     30 HAC        -0.5310   -0.6190   -0.0520 hc        1 CDZ      0.044700
     31 HACA        0.0000    0.3180    1.4050 hc        1 CDZ      0.044700
     32 HACB       -0.0920    1.1340   -0.2140 hc        1 CDZ      0.044700
     33 HAD         3.4280   -0.8530    0.9360 hc        1 CDZ      0.044700
     34 HADA        2.4810    0.3730    1.8790 hc        1 CDZ      0.044700
     35 HADB        1.9160   -1.3480    1.8080 hc        1 CDZ      0.044700
     36 HAN         3.1450   -0.5410   -1.3610 ha        1 CDZ      0.123000
     37 HAQ         1.4240   -0.8950   -3.1270 hc        1 CDZ      0.068700
     38 HAQA        0.2500    0.1860   -2.2520 hc        1 CDZ      0.068700
     39 HAR         1.3650    0.3400   -5.1580 hc        1 CDZ      0.068700
     40 HARA        0.0250    1.2780   -4.3620 hc        1 CDZ      0.068700
     41 HAO         1.1420    3.4370   -4.9040 ha        1 CDZ      0.123000
     42 HAF         3.1140    0.6340   -6.5920 hc        1 CDZ      0.044700
     43 HAFA        3.0890    1.5040   -8.1850 hc        1 CDZ      0.044700
     44 HAFB        1.6030    0.6500   -7.5960 hc        1 CDZ      0.044700
     45 HAE         1.7400    3.7480   -8.2960 hc        1 CDZ      0.044700
     46 HAEA        3.3710    3.8860   -7.5180 hc        1 CDZ      0.044700
     47 HAEB        1.9260    4.6490   -6.7320 hc        1 CDZ      0.044700
     48 HBB         0.2300    4.7610   -2.4300 hc        1 CDZ      0.095700
     49 HAH        -0.3730    7.0540   -1.6450 hc        1 CDZ      0.041033
     50 HAHA        1.2780    7.2470   -0.9110 hc        1 CDZ      0.041033
     51 HAHB        0.1480    5.9840   -0.2740 hc        1 CDZ      0.041033
     52 HAG         2.2600    6.9500   -3.2740 hc        1 CDZ      0.041033
     53 HAGA        0.5800    6.7310   -3.9160 hc        1 CDZ      0.041033
     54 HAGB        1.8370    5.4590   -4.2200 hc        1 CDZ      0.041033
     55 HOAK        4.6770    4.6600   -1.4900 ho        1 CDZ      0.467000
     56 HAP         6.3720    2.2240   -2.5280 hc        1 CDZ      0.062200
     57 HAPA        5.9880    0.5490   -3.0600 hc        1 CDZ      0.062200
     58 HAM         5.6920    1.3570   -5.4460 ha        1 CDZ      0.111000
     59 HAB         7.0800    4.1770   -3.2920 hc        1 CDZ      0.045700
     60 HABA        8.5390    3.1050   -3.4080 hc        1 CDZ      0.045700
     61 HABB        8.3810    4.5380   -4.5050 hc        1 CDZ      0.045700
     62 HAA         8.6010    2.9540   -6.5370 hc        1 CDZ      0.045700
     63 HAAA        6.9740    2.3850   -7.1020 hc        1 CDZ      0.045700
     64 HAAB        7.2400    4.1370   -6.7130 hc        1 CDZ      0.045700
     65 H36         4.5520   -0.1700   -4.3650 ho        1 CDZ      0.435000
@<TRIPOS>BOND
     1    1    2 1   
     2    1   30 1   
     3    1   31 1   
     4    1   32 1   
     5    2    3 1   
     6    2    4 2   
     7    3   33 1   
     8    3   34 1   
     9    3   35 1   
    10    4    5 1   
    11    4   36 1   
    12    5    6 1   
    13    5   37 1   
    14    5   38 1   
    15    6    7 1   
    16    6   12 1   
    17    6   14 1   
    18    7    8 1   
    19    7   39 1   
    20    7   40 1   
    21    8    9 2   
    22    8   41 1   
    23    9   10 1   
    24    9   11 1   
    25   10   42 1   
    26   10   43 1   
    27   10   44 1   
    28   11   45 1   
    29   11   46 1   
    30   11   47 1   
    31   12   13 1   
    32   12   24 2   
    33   13   65 1   
    34   14   15 2   
    35   14   16 1   
    36   16   17 1   
    37   16   22 2   
    38   17   18 2   
    39   17   19 1   
    40   19   20 1   
    41   19   21 1   
    42   19   48 1   
    43   20   49 1   
    44   20   50 1   
    45   20   51 1   
    46   21   52 1   
    47   21   53 1   
    48   21   54 1   
    49   22   23 1   
    50   22   24 1   
    51   23   55 1   
    52   24   25 1   
    53   25   26 1   
    54   25   56 1   
    55   25   57 1   
    56   26   27 2   
    57   26   58 1   
    58   27   28 1   
    59   27   29 1   
    60   28   59 1   
    61   28   60 1   
    62   28   61 1   
    63   29   62 1   
    64   29   63 1   
    65   29   64 1   
@<TRIPOS>SUBSTRUCTURE
     1 CDZ         1 TEMP              0 ****  ****    0 ROOT
