@<TRIPOS>MOLECULE
CE0
   57    57     1     0     0
SMALL
bcc


@<TRIPOS>ATOM
      1 N          -4.8240   -2.0590    3.7880 n3        1 CE0     -0.335000
      2 CA         -3.4800   -1.6820    3.7340 c3        1 CE0     -0.143000
      3 C          -3.0880   -1.0260    5.0360 c2        1 CE0      0.312000
      4 O          -2.1690   -1.5170    5.7330 o         1 CE0     -0.580500
      5 CB         -3.2600   -0.6710    2.5510 c3        1 CE0     -0.007000
      6 OG         -1.8950   -0.6960    2.1590 os        1 CE0     -0.258000
      7 OXT        -3.7070   -0.0080    5.4380 o         1 CE0     -0.580500
      8 S1         -1.1850    2.5070    0.2520 ss        1 CE0     -0.071000
      9 C2         -1.0880    4.2540    0.0930 c3        1 CE0     -0.179000
     10 C3         -0.1920    4.8310    1.1340 c2        1 CE0     -0.250000
     11 C3'        -0.7180    5.9300    2.0990 c3        1 CE0     -0.140000
     12 C4          1.2200    3.7620    1.6320 c1        1 CE0      0.006000
     13 C4'         2.2620    4.2880    2.6370 c2        1 CE0      0.369000
     14 O4A         2.0970    4.0920    3.8890 o         1 CE0     -0.561000
     15 O4B         3.2920    4.8870    2.2240 o         1 CE0     -0.561000
     16 N5          0.9830    2.3030    1.5080 n2        1 CE0     -0.262000
     17 C6          0.0690    1.8280    0.3450 c3        1 CE0     -0.085000
     18 C7         -0.2320    0.2110    0.5490 c3        1 CE0      0.036000
     19 C8         -1.6200    0.0220    0.9850 c2        1 CE0      0.310000
     20 O9         -2.5240    0.4640    0.3230 o         1 CE0     -0.374000
     21 N10        -0.0310   -0.4460   -0.6420 n         1 CE0     -0.327000
     22 C11         1.0660   -1.3390   -0.7860 c2        1 CE0      0.308000
     23 O12         1.7700   -1.5790    0.1510 o         1 CE0     -0.388000
     24 C13         1.3930   -1.9780   -2.2130 c3        1 CE0     -0.084000
     25 N16         1.2920   -3.4760   -2.1290 n3        1 CE0     -0.153000
     26 O17         0.2060   -3.8980   -2.8650 os        1 CE0     -0.219000
     27 C18         0.0300   -5.3210   -2.7110 c3        1 CE0     -0.068000
     28 C14         2.6030   -1.6400   -2.5730 c3        1 CE0     -0.022000
     29 C15         3.2600   -2.7880   -3.4270 c3        1 CE0     -0.266000
     30 S16         3.1660   -2.2150   -5.0740 ss        1 CE0     -0.003000
     31 C17         3.0140   -0.8210   -4.9240 c2        1 CE0      0.042000
     32 N18         3.8450    0.0600   -5.6450 n3        1 CE0     -0.297000
     33 N19         2.5450   -0.4580   -3.6850 n2        1 CE0     -0.258000
     34 HN         -5.3510   -1.3440    3.5730 hn        1 CE0      0.137000
     35 HNA        -4.9720   -2.7290    3.2010 hn        1 CE0      0.137000
     36 HA         -2.9320   -2.4660    3.5920 h1        1 CE0      0.096000
     37 HB         -3.8340   -0.9340    1.7750 h1        1 CE0      0.110500
     38 HBA        -3.5060    0.2520    2.8500 h1        1 CE0      0.110500
     39 H2         -0.9340    4.5850   -0.8330 h1        1 CE0      0.092000
     40 H2A        -1.9870    4.6120    0.2540 h1        1 CE0      0.092000
     41 H3'        -1.3450    6.5130    1.6230 hc        1 CE0      0.065333
     42 H3'A        0.0440    6.4680    2.4330 hc        1 CE0      0.065333
     43 H3'B       -1.1750    5.5070    2.8560 hc        1 CE0      0.065333
     44 HN5         1.5370    1.7200    1.9130 hn        1 CE0      0.225000
     45 H6          0.5530    1.9520   -0.5020 h2        1 CE0      0.134000
     46 H7          0.3820   -0.1550    1.2350 h1        1 CE0      0.165000
     47 HN10       -0.5640   -0.2530   -1.3670 hn        1 CE0      0.245000
     48 H13         0.7290   -1.6340   -2.8950 h1        1 CE0      0.125000
     49 HN16        1.1870   -3.7210   -1.2740 hn        1 CE0      0.190000
     50 H18        -0.0370   -5.5450   -1.7480 h1        1 CE0      0.074000
     51 H18A       -0.7960   -5.6010   -3.1720 h1        1 CE0      0.074000
     52 H18B        0.8040   -5.7950   -3.1060 h1        1 CE0      0.074000
     53 H14         3.0110   -1.4270   -1.6950 h1        1 CE0      0.125000
     54 H15         4.2100   -2.9190   -3.1580 h1        1 CE0      0.111000
     55 H15A        2.7480   -3.6340   -3.3230 h1        1 CE0      0.111000
     56 HN18        4.1860   -0.1970   -6.4520 hn        1 CE0      0.233000
     57 HN1A        3.9440    0.9270   -5.3630 hn        1 CE0      0.233000
@<TRIPOS>BOND
     1    1    2 1   
     2    1   34 1   
     3    1   35 1   
     4    2    3 1   
     5    2    5 1   
     6    2   36 1   
     7    3    4 1   
     8    3    7 1   
     9    5    6 1   
    10    5   37 1   
    11    5   38 1   
    12    6   19 1   
    13    8    9 1   
    14    8   17 1   
    15    9   10 1   
    16    9   39 1   
    17    9   40 1   
    18   10   11 1   
    19   10   12 1   
    20   11   41 1   
    21   11   42 1   
    22   11   43 1   
    23   12   13 1   
    24   13   14 1   
    25   13   15 1   
    26   16   17 1   
    27   16   44 1   
    28   17   18 1   
    29   17   45 1   
    30   18   19 1   
    31   18   21 1   
    32   18   46 1   
    33   19   20 1   
    34   21   22 1   
    35   21   47 1   
    36   22   23 1   
    37   22   24 1   
    38   24   25 1   
    39   24   28 1   
    40   24   48 1   
    41   25   26 1   
    42   25   49 1   
    43   26   27 1   
    44   27   50 1   
    45   27   51 1   
    46   27   52 1   
    47   28   29 1   
    48   28   33 1   
    49   28   53 1   
    50   29   30 1   
    51   29   54 1   
    52   29   55 1   
    53   30   31 1   
    54   31   32 1   
    55   31   33 1   
    56   32   56 1   
    57   32   57 1   
@<TRIPOS>SUBSTRUCTURE
     1 CE0         1 TEMP              0 ****  ****    0 ROOT
