@<TRIPOS>MOLECULE
CE0
   57    58     1     0     0
SMALL
bcc


@<TRIPOS>ATOM
      1 N           1.9090   -3.6120   -1.3900 n3        1 CE0     -0.904800
      2 CA          3.1950   -3.0330   -1.7500 c3        1 CE0     -0.004500
      3 C           4.3740   -4.0580   -1.8420 c         1 CE0      0.892600
      4 O           4.0970   -5.2900   -1.7660 o         1 CE0     -0.843300
      5 CB          3.6340   -1.8950   -0.8240 c3        1 CE0      0.150400
      6 OG          2.7040   -0.7910   -0.8870 os        1 CE0     -0.428900
      7 OXT         5.5360   -3.6010   -2.0180 o         1 CE0     -0.843300
      8 S1          0.0520    1.1970    2.0390 ss        1 CE0     -0.525200
      9 C2          0.1430    2.8960    2.5690 c3        1 CE0      0.103900
     10 C3          1.3160    3.6460    2.0720 c2        1 CE0     -0.273400
     11 C3'         1.6000    4.8710    2.8570 c3        1 CE0     -0.021900
     12 C4          2.0970    3.2680    1.0240 ce        1 CE0      0.083800
     13 C4'         3.3980    4.0340    0.6570 c         1 CE0      0.924800
     14 O4A         3.2900    5.2450    0.3270 o         1 CE0     -0.812800
     15 O4B         4.4700    3.3800    0.7160 o         1 CE0     -0.812800
     16 N5          1.8360    2.1760    0.1860 nh        1 CE0     -0.717000
     17 C6          0.6020    1.4850    0.2890 c3        1 CE0      0.351600
     18 C7          0.5370    0.1670   -0.5290 c3        1 CE0      0.058700
     19 C8          1.6070   -0.8420   -0.0940 c         1 CE0      0.636100
     20 O9          1.5290   -1.6510    0.8330 o         1 CE0     -0.548000
     21 N10        -0.7570   -0.4640   -0.4530 n         1 CE0     -0.519900
     22 C11        -1.6640   -0.4630   -1.4790 c         1 CE0      0.662100
     23 O12        -1.4420    0.0720   -2.5870 o         1 CE0     -0.640100
     24 C13        -2.9860   -1.2370   -1.2460 c3        1 CE0      0.048500
     25 N16        -3.5570   -1.8170   -2.4800 n3        1 CE0     -0.521700
     26 O17        -4.4340   -1.0560   -3.1270 os        1 CE0     -0.235100
     27 C18        -3.9660    0.0550   -3.9220 c3        1 CE0      0.065700
     28 C14        -4.0120   -0.3610   -0.4670 c3        1 CE0      0.143500
     29 C15        -5.0420   -1.2780    0.2420 c3        1 CE0     -0.012300
     30 S16        -4.8610   -1.0140    1.9980 ss        1 CE0     -0.381300
     31 C17        -3.6450    0.2750    1.7270 c2        1 CE0      0.672100
     32 N18        -3.1630    0.9720    2.8280 nh        1 CE0     -0.865800
     33 N19        -3.3590    0.5230    0.4740 n2        1 CE0     -0.651900
     34 HN          1.8960   -4.5580   -1.7380 hn        1 CE0      0.340300
     35 HNA         1.8410   -3.6670   -0.3880 hn        1 CE0      0.340300
     36 HA          3.0670   -2.6060   -2.7880 h1        1 CE0      0.053700
     37 HB          3.7510   -2.2360    0.2350 h1        1 CE0      0.078200
     38 HBA         4.5900   -1.4490   -1.2080 h1        1 CE0      0.078200
     39 H2         -0.8020    3.4100    2.2580 h1        1 CE0      0.045700
     40 H2A         0.1640    2.8470    3.6870 h1        1 CE0      0.045700
     41 H3'         2.0120    4.6000    3.8620 hc        1 CE0      0.027700
     42 H3'A        2.3390    5.5270    2.3300 hc        1 CE0      0.027700
     43 H3'B        0.6580    5.4540    3.0170 hc        1 CE0      0.027700
     44 HN5         2.6490    1.6350   -0.0430 hn        1 CE0      0.448800
     45 H6         -0.2070    2.1720   -0.0990 h2        1 CE0      0.081700
     46 H7          0.7420    0.4380   -1.6150 h1        1 CE0      0.131700
     47 HN10       -1.0020   -0.8440    0.4330 hn        1 CE0      0.333500
     48 H13        -2.7480   -2.1530   -0.6230 h1        1 CE0      0.091700
     49 HN16       -2.7640   -2.0440   -3.0850 hn        1 CE0      0.368800
     50 H18        -3.2090   -0.2840   -4.6690 h1        1 CE0      0.049033
     51 H18A       -4.8950    0.4140   -4.4260 h1        1 CE0      0.049033
     52 H18B       -3.5250    0.8450   -3.2680 h1        1 CE0      0.049033
     53 H14        -4.5550    0.2960   -1.2110 h1        1 CE0      0.095700
     54 H15        -6.0770   -1.0080   -0.0670 h1        1 CE0      0.082700
     55 H15A       -4.8720   -2.3530    0.0080 h1        1 CE0      0.082700
     56 HN18       -3.1630    0.4220    3.6600 hn        1 CE0      0.419800
     57 HN1A       -2.2780    1.4380    2.6640 hn        1 CE0      0.419800
@<TRIPOS>BOND
     1    1    2 1   
     2    1   34 1   
     3    1   35 1   
     4    2    3 1   
     5    2    5 1   
     6    2   36 1   
     7    3    4 1   
     8    3    7 1   
     9    5    6 1   
    10    5   37 1   
    11    5   38 1   
    12    6   19 1   
    13    8    9 1   
    14    8   17 1   
    15    9   10 1   
    16    9   39 1   
    17    9   40 1   
    18   10   11 1   
    19   10   12 2   
    20   11   41 1   
    21   11   42 1   
    22   11   43 1   
    23   12   13 1   
    24   12   16 1   
    25   13   14 1   
    26   13   15 1   
    27   16   17 1   
    28   16   44 1   
    29   17   18 1   
    30   17   45 1   
    31   18   19 1   
    32   18   21 1   
    33   18   46 1   
    34   19   20 2   
    35   21   22 1   
    36   21   47 1   
    37   22   23 2   
    38   22   24 1   
    39   24   25 1   
    40   24   28 1   
    41   24   48 1   
    42   25   26 1   
    43   25   49 1   
    44   26   27 1   
    45   27   50 1   
    46   27   51 1   
    47   27   52 1   
    48   28   29 1   
    49   28   33 1   
    50   28   53 1   
    51   29   30 1   
    52   29   54 1   
    53   29   55 1   
    54   30   31 1   
    55   31   32 1   
    56   31   33 2   
    57   32   56 1   
    58   32   57 1   
@<TRIPOS>SUBSTRUCTURE
     1 CE0         1 TEMP              0 ****  ****    0 ROOT
