@<TRIPOS>MOLECULE
CE0
   61    62     1     0     0
SMALL
bcc


@<TRIPOS>ATOM
      1 N           2.7460    0.6810   -0.9800 n4        1 CE0     -0.834600
      2 CA          2.0350    1.9930   -1.0780 c3        1 CE0      0.037500
      3 C           2.1560    2.7590    0.2320 c         1 CE0      0.618100
      4 O           2.6770    2.3480    1.2680 o         1 CE0     -0.493000
      5 CB          0.5450    1.8770   -1.4540 c3        1 CE0      0.130400
      6 OG          0.3750    1.2960   -2.7520 os        1 CE0     -0.406900
      7 OXT         1.6300    4.0000    0.1720 oh        1 CE0     -0.574100
      8 S1          0.4460   -0.6350   -6.9860 ss        1 CE0     -0.278200
      9 C2          1.7900   -1.8310   -6.8770 c3        1 CE0      0.038900
     10 C3          2.8260   -1.3700   -5.9210 c2        1 CE0     -0.059400
     11 C3'         4.2400   -1.5140   -6.3170 c3        1 CE0     -0.074900
     12 C4          2.4210   -0.8270   -4.7440 ce        1 CE0     -0.082200
     13 C4'         3.2690   -0.0040   -3.8170 c         1 CE0      0.885800
     14 O4A         2.9020    1.2270   -3.6800 o         1 CE0     -0.846800
     15 O4B         4.2250   -0.4360   -3.1280 o         1 CE0     -0.846800
     16 N5          1.0380   -0.8870   -4.3940 nh        1 CE0     -0.678000
     17 C6          0.2030   -0.1070   -5.2560 c3        1 CE0      0.267600
     18 C7          0.4060    1.4500   -5.2180 c3        1 CE0      0.057500
     19 C8          0.6080    2.0780   -3.8400 c         1 CE0      0.685100
     20 O9          0.9190    3.2640   -3.6790 o         1 CE0     -0.577000
     21 N10         1.5770    1.8540   -6.0760 n4        1 CE0     -0.684800
     22 C11         1.4470    3.2250   -6.6000 c         1 CE0      0.559100
     23 O12         0.5070    3.4840   -7.3500 o         1 CE0     -0.459100
     24 C13         2.4700    4.2760   -6.1550 c3        1 CE0      0.048500
     25 N16         2.0680    5.6390   -6.6850 n4        1 CE0     -0.544500
     26 O17         2.2920    5.7110   -8.0370 os        1 CE0     -0.213100
     27 C18         1.2010    6.1700   -8.8690 c3        1 CE0      0.068700
     28 C14         3.9280    3.8900   -6.6070 c3        1 CE0      0.163500
     29 C15         4.9390    4.9820   -6.1860 c3        1 CE0     -0.084300
     30 S16         6.2580    4.1670   -5.3260 ss        1 CE0     -0.150300
     31 C17         5.4160    2.6110   -5.3760 c2        1 CE0      0.742100
     32 N18         5.9570    1.5450   -4.7500 nh        1 CE0     -0.871800
     33 N19         4.2720    2.6000   -6.0750 n2        1 CE0     -0.823900
     34 HN          2.9290    0.4300    0.0000 hn        1 CE0      0.483800
     35 HNA         3.6480    0.7310   -1.5050 hn        1 CE0      0.483800
     36 HA          2.5470    2.5870   -1.9080 hx        1 CE0      0.178700
     37 HB          0.0990    2.9090   -1.4170 h1        1 CE0      0.124200
     38 HBA        -0.0210    1.1690   -0.7860 h1        1 CE0      0.124200
     39 H2          2.1810   -1.9270   -7.9220 h1        1 CE0      0.124200
     40 H2A         1.3680   -2.8210   -6.5610 h1        1 CE0      0.124200
     41 H3'         4.9240   -1.2850   -5.4610 hc        1 CE0      0.071700
     42 H3'A        4.4850   -0.8390   -7.1750 hc        1 CE0      0.071700
     43 H3'B        4.4310   -2.5710   -6.6400 hc        1 CE0      0.071700
     44 HN5         0.8740   -0.7110   -3.4210 hn        1 CE0      0.406800
     45 H6         -0.8760   -0.2900   -4.9820 h2        1 CE0      0.144700
     46 H7         -0.5360    1.9120   -5.6540 hx        1 CE0      0.141700
     47 HN10        2.4760    1.7470   -5.5130 hn        1 CE0      0.527800
     48 H13         2.4220    4.3500   -5.0180 hx        1 CE0      0.172700
     49 HN16        1.0760    5.8230   -6.4530 hn        1 CE0      0.479300
     50 H18         0.9120    7.2160   -8.6040 h1        1 CE0      0.108700
     51 H18A        0.3400    5.4590   -8.8170 h1        1 CE0      0.108700
     52 H18B        1.6940    6.1350   -9.8820 h1        1 CE0      0.108700
     53 H14         3.9070    3.8220   -7.7380 h1        1 CE0      0.106700
     54 H15         5.3450    5.5050   -7.0860 h1        1 CE0      0.093200
     55 H15A        4.5080    5.7450   -5.4970 h1        1 CE0      0.093200
     56 HN18        5.4580    0.6850   -4.6460 hn        1 CE0      0.475300
     57 HN1A        1.7390    4.4480    1.0360 ho        1 CE0      0.492000
     58 HN3         2.1880   -0.0510   -1.4340 hn        1 CE0      0.483800
     59 H102        1.5930    1.1550   -6.8860 hn        1 CE0      0.527800
     60 H162        2.6800    6.3540   -6.2420 hn        1 CE0      0.479300
     61 H183        6.8420    1.6350   -4.3090 hn        1 CE0      0.475300
@<TRIPOS>BOND
     1    1    2 1   
     2    1   34 1   
     3    1   35 1   
     4    1   58 1   
     5    2    3 1   
     6    2    5 1   
     7    2   36 1   
     8    3    4 2   
     9    3    7 1   
    10    5    6 1   
    11    5   37 1   
    12    5   38 1   
    13    6   19 1   
    14    7   57 1   
    15    8    9 1   
    16    8   17 1   
    17    9   10 1   
    18    9   39 1   
    19    9   40 1   
    20   10   11 1   
    21   10   12 2   
    22   11   41 1   
    23   11   42 1   
    24   11   43 1   
    25   12   13 1   
    26   12   16 1   
    27   13   14 1   
    28   13   15 1   
    29   16   17 1   
    30   16   44 1   
    31   17   18 1   
    32   17   45 1   
    33   18   19 1   
    34   18   21 1   
    35   18   46 1   
    36   19   20 2   
    37   21   22 1   
    38   21   47 1   
    39   21   59 1   
    40   22   23 2   
    41   22   24 1   
    42   24   25 1   
    43   24   28 1   
    44   24   48 1   
    45   25   26 1   
    46   25   49 1   
    47   25   60 1   
    48   26   27 1   
    49   27   50 1   
    50   27   51 1   
    51   27   52 1   
    52   28   29 1   
    53   28   33 1   
    54   28   53 1   
    55   29   30 1   
    56   29   54 1   
    57   29   55 1   
    58   30   31 1   
    59   31   32 1   
    60   31   33 2   
    61   32   56 1   
    62   32   61 1   
@<TRIPOS>SUBSTRUCTURE
     1 CE0         1 TEMP              0 ****  ****    0 ROOT
