@<TRIPOS>MOLECULE
CE1
   95    94     1     0     0
SMALL
bcc


@<TRIPOS>ATOM
      1 C1         -1.8140    2.2170    0.8800 c3        1 CE1     -0.092100
      2 C2         -0.8120    1.1340    1.1850 c3        1 CE1     -0.080400
      3 C3          0.4670    1.7050    1.7600 c3        1 CE1     -0.079400
      4 C4          1.4700    0.6140    2.0640 c3        1 CE1     -0.079400
      5 C5          2.7480    1.1860    2.6400 c3        1 CE1     -0.079400
      6 C6          3.7510    0.0950    2.9440 c3        1 CE1     -0.079400
      7 C7          5.0290    0.6670    3.5190 c3        1 CE1     -0.079400
      8 C8          6.0320   -0.4240    3.8240 c3        1 CE1     -0.079400
      9 C9          7.3090    0.1490    4.3990 c3        1 CE1     -0.078400
     10 C10         8.3120   -0.9430    4.7040 c3        1 CE1     -0.078400
     11 C11         9.5870   -0.3670    5.2780 c3        1 CE1     -0.083400
     12 C12        10.5820   -1.4740    5.5780 c3        1 CE1      0.132400
     13 O13        11.7440   -0.8440    6.1140 os        1 CE1     -0.428600
     14 C14        12.7720   -1.7820    6.4220 c3        1 CE1      0.126400
     15 C15        13.8760   -0.9990    7.1250 c3        1 CE1      0.127400
     16 O16        13.8790   -1.4370    8.4830 os        1 CE1     -0.428600
     17 C17        14.7550   -0.6610    9.2980 c3        1 CE1      0.127400
     18 C18        14.7960   -1.3440   10.6610 c3        1 CE1      0.128400
     19 O19        16.0910   -1.9330   10.7770 os        1 CE1     -0.430600
     20 C20        16.2130   -2.7240   11.9560 c3        1 CE1      0.128400
     21 C21        17.6370   -3.2740   11.9400 c3        1 CE1      0.128400
     22 O22        17.8150   -3.9250   13.1960 os        1 CE1     -0.430600
     23 C23        19.1190   -4.4900   13.3250 c3        1 CE1      0.128400
     24 C24        19.1200   -5.2740   14.6330 c3        1 CE1      0.127400
     25 O25        19.1500   -6.6540   14.2770 os        1 CE1     -0.428600
     26 C26        18.9840   -7.5080   15.4080 c3        1 CE1      0.127400
     27 C27        19.2130   -8.9320   14.9130 c3        1 CE1      0.127400
     28 O28        20.4840   -9.3370   15.4170 os        1 CE1     -0.429600
     29 C29        20.8980  -10.5950   14.8890 c3        1 CE1      0.127400
     30 C30        22.1700  -10.9810   15.6360 c3        1 CE1      0.127400
     31 O31        21.8090  -12.0260   16.5380 os        1 CE1     -0.428600
     32 C32        22.8730  -12.3670   17.4230 c3        1 CE1      0.127400
     33 C33        22.4110  -13.5950   18.2010 c3        1 CE1      0.128400
     34 O34        23.1480  -14.7030   17.6870 os        1 CE1     -0.438600
     35 C35        22.6890  -15.9480   18.2080 c3        1 CE1      0.087400
     36 C36        23.6030  -17.0170   17.6180 c3        1 CE1      0.131400
     37 O37        24.9270  -16.8910   18.0950 oh        1 CE1     -0.600800
     38 H11        -2.0790    2.7810    1.8070 hc        1 CE1      0.032700
     39 H12        -2.7480    1.7750    0.4570 hc        1 CE1      0.032700
     40 H13        -1.3990    2.9410    0.1370 hc        1 CE1      0.032700
     41 H21        -0.5770    0.5630    0.2470 hc        1 CE1      0.038700
     42 H22        -1.2550    0.4040    1.9120 hc        1 CE1      0.038700
     43 H31         0.2340    2.2750    2.6980 hc        1 CE1      0.039700
     44 H32         0.9130    2.4340    1.0330 hc        1 CE1      0.039700
     45 H41         1.0240   -0.1150    2.7920 hc        1 CE1      0.039700
     46 H42         1.7020    0.0440    1.1260 hc        1 CE1      0.039700
     47 H51         2.5160    1.7560    3.5780 hc        1 CE1      0.039700
     48 H52         3.1940    1.9150    1.9130 hc        1 CE1      0.039700
     49 H61         3.3050   -0.6340    3.6710 hc        1 CE1      0.039700
     50 H62         3.9830   -0.4750    2.0060 hc        1 CE1      0.039700
     51 H71         4.7960    1.2370    4.4570 hc        1 CE1      0.039700
     52 H72         5.4750    1.3960    2.7920 hc        1 CE1      0.039700
     53 H81         5.5850   -1.1530    4.5510 hc        1 CE1      0.039700
     54 H82         6.2640   -0.9940    2.8860 hc        1 CE1      0.039700
     55 H91         7.0770    0.7180    5.3380 hc        1 CE1      0.041700
     56 H92         7.7560    0.8770    3.6720 hc        1 CE1      0.041700
     57 H101        7.8660   -1.6720    5.4310 hc        1 CE1      0.040200
     58 H102        8.5440   -1.5130    3.7650 hc        1 CE1      0.040200
     59 H111        9.3670    0.1980    6.2210 hc        1 CE1      0.054700
     60 H112       10.0450    0.3590    4.5560 hc        1 CE1      0.054700
     61 H121       10.8550   -2.0340    4.6440 h1        1 CE1      0.026200
     62 H122       10.1660   -2.1970    6.3280 h1        1 CE1      0.026200
     63 H141       13.1570   -2.2340    5.4700 h1        1 CE1      0.042700
     64 H142       12.3730   -2.5930    7.0880 h1        1 CE1      0.042700
     65 H151       13.6770    0.1040    7.0730 h1        1 CE1      0.043700
     66 H152       14.8730   -1.2240    6.6640 h1        1 CE1      0.043700
     67 H171       15.7790   -0.6220    8.8400 h1        1 CE1      0.044200
     68 H172       14.3450    0.3790    9.3930 h1        1 CE1      0.044200
     69 H181       14.0020   -2.1340   10.7350 h1        1 CE1      0.044700
     70 H182       14.6590   -0.5920   11.4820 h1        1 CE1      0.044700
     71 H201       15.4650   -3.5590   11.9410 h1        1 CE1      0.041200
     72 H202       16.0440   -2.0900   12.8660 h1        1 CE1      0.041200
     73 H211       17.7700   -4.0080   11.1030 h1        1 CE1      0.041200
     74 H212       18.3810   -2.4430   11.8270 h1        1 CE1      0.041200
     75 H231       19.8760   -3.6630   13.3620 h1        1 CE1      0.044700
     76 H232       19.3380   -5.1640   12.4550 h1        1 CE1      0.044700
     77 H241       20.0350   -5.0300   15.2360 h1        1 CE1      0.043700
     78 H242       18.2010   -5.0470   15.2350 h1        1 CE1      0.043700
     79 H261       17.9410   -7.3940   15.8050 h1        1 CE1      0.043700
     80 H262       19.7240   -7.2400   16.2090 h1        1 CE1      0.043700
     81 H271       19.2100   -8.9690   13.7910 h1        1 CE1      0.043700
     82 H272       18.4220   -9.6180   15.3160 h1        1 CE1      0.043700
     83 H291       21.1080  -10.4830   13.7920 h1        1 CE1      0.044200
     84 H292       20.0960  -11.3640   15.0430 h1        1 CE1      0.044200
     85 H301       22.5810  -10.1040   16.2020 h1        1 CE1      0.044200
     86 H302       22.9430  -11.3650   14.9200 h1        1 CE1      0.044200
     87 H321       23.0620  -11.5100   18.1210 h1        1 CE1      0.043200
     88 H322       23.8060  -12.5920   16.8400 h1        1 CE1      0.043200
     89 H331       21.3100  -13.7630   18.0640 h1        1 CE1      0.045200
     90 H332       22.6420  -13.4760   19.2930 h1        1 CE1      0.045200
     91 H351       22.7590  -15.9380   19.3280 h1        1 CE1      0.039200
     92 H352       21.6260  -16.1230   17.8970 h1        1 CE1      0.039200
     93 H361       23.2670  -18.0330   17.9550 h1        1 CE1      0.053700
     94 H362       23.5890  -16.9580   16.4970 h1        1 CE1      0.053700
     95 H37        25.2200  -15.9970   17.8750 ho        1 CE1      0.412000
@<TRIPOS>BOND
     1    1    2 1   
     2    1   38 1   
     3    1   39 1   
     4    1   40 1   
     5    2    3 1   
     6    2   41 1   
     7    2   42 1   
     8    3    4 1   
     9    3   43 1   
    10    3   44 1   
    11    4    5 1   
    12    4   45 1   
    13    4   46 1   
    14    5    6 1   
    15    5   47 1   
    16    5   48 1   
    17    6    7 1   
    18    6   49 1   
    19    6   50 1   
    20    7    8 1   
    21    7   51 1   
    22    7   52 1   
    23    8    9 1   
    24    8   53 1   
    25    8   54 1   
    26    9   10 1   
    27    9   55 1   
    28    9   56 1   
    29   10   11 1   
    30   10   57 1   
    31   10   58 1   
    32   11   12 1   
    33   11   59 1   
    34   11   60 1   
    35   12   13 1   
    36   12   61 1   
    37   12   62 1   
    38   13   14 1   
    39   14   15 1   
    40   14   63 1   
    41   14   64 1   
    42   15   16 1   
    43   15   65 1   
    44   15   66 1   
    45   16   17 1   
    46   17   18 1   
    47   17   67 1   
    48   17   68 1   
    49   18   19 1   
    50   18   69 1   
    51   18   70 1   
    52   19   20 1   
    53   20   21 1   
    54   20   71 1   
    55   20   72 1   
    56   21   22 1   
    57   21   73 1   
    58   21   74 1   
    59   22   23 1   
    60   23   24 1   
    61   23   75 1   
    62   23   76 1   
    63   24   25 1   
    64   24   77 1   
    65   24   78 1   
    66   25   26 1   
    67   26   27 1   
    68   26   79 1   
    69   26   80 1   
    70   27   28 1   
    71   27   81 1   
    72   27   82 1   
    73   28   29 1   
    74   29   30 1   
    75   29   83 1   
    76   29   84 1   
    77   30   31 1   
    78   30   85 1   
    79   30   86 1   
    80   31   32 1   
    81   32   33 1   
    82   32   87 1   
    83   32   88 1   
    84   33   34 1   
    85   33   89 1   
    86   33   90 1   
    87   34   35 1   
    88   35   36 1   
    89   35   91 1   
    90   35   92 1   
    91   36   37 1   
    92   36   93 1   
    93   36   94 1   
    94   37   95 1   
@<TRIPOS>SUBSTRUCTURE
     1 CE1         1 TEMP              0 ****  ****    0 ROOT
