@<TRIPOS>MOLECULE
CE1
   95    94     1     0     0
SMALL
bcc


@<TRIPOS>ATOM
      1 C1         -1.8570    4.1510    1.2840 c3        1 CE1     -0.092100
      2 C2         -0.7940    3.0990    1.0980 c3        1 CE1     -0.080400
      3 C3          0.3390    3.2730    2.0870 c3        1 CE1     -0.079400
      4 C4          1.4040    2.2150    1.8960 c3        1 CE1     -0.079400
      5 C5          2.5370    2.3900    2.8850 c3        1 CE1     -0.079400
      6 C6          3.6020    1.3320    2.6950 c3        1 CE1     -0.079400
      7 C7          4.7340    1.5070    3.6840 c3        1 CE1     -0.079400
      8 C8          5.7990    0.4480    3.4930 c3        1 CE1     -0.079400
      9 C9          6.9310    0.6240    4.4830 c3        1 CE1     -0.078400
     10 C10         7.9960   -0.4350    4.2920 c3        1 CE1     -0.078400
     11 C11         9.1240   -0.2570    5.2830 c3        1 CE1     -0.083400
     12 C12        10.1840   -1.3250    5.0760 c3        1 CE1      0.132400
     13 O13        11.2010   -1.0840    6.0470 os        1 CE1     -0.428600
     14 C14        12.2750   -2.0160    5.9450 c3        1 CE1      0.126400
     15 C15        13.1990   -1.7420    7.1270 c3        1 CE1      0.127400
     16 O16        13.0920   -2.8700    7.9940 os        1 CE1     -0.429600
     17 C17        13.7870   -2.6730    9.2230 c3        1 CE1      0.127400
     18 C18        13.7380   -4.0040    9.9660 c3        1 CE1      0.127400
     19 O19        15.0480   -4.5620    9.8850 os        1 CE1     -0.429600
     20 C20        15.1010   -5.8920   10.3980 c3        1 CE1      0.127400
     21 C21        16.5730   -6.2940   10.4070 c3        1 CE1      0.127400
     22 O22        16.9800   -6.3070   11.7740 os        1 CE1     -0.429600
     23 C23        18.3840   -6.5140   11.9160 c3        1 CE1      0.127400
     24 C24        18.6470   -6.6880   13.4080 c3        1 CE1      0.127400
     25 O25        18.9290   -8.0710   13.6110 os        1 CE1     -0.429600
     26 C26        19.0360   -8.4030   14.9940 c3        1 CE1      0.127400
     27 C27        19.5040   -9.8530   15.0560 c3        1 CE1      0.127400
     28 O28        20.8680   -9.8220   15.4700 os        1 CE1     -0.429600
     29 C29        21.4810  -11.1080   15.4060 c3        1 CE1      0.127400
     30 C30        22.8640  -10.9600   16.0330 c3        1 CE1      0.127400
     31 O31        22.8010  -11.5980   17.3080 os        1 CE1     -0.428600
     32 C32        23.9840  -11.3890   18.0750 c3        1 CE1      0.127400
     33 C33        23.8500  -12.2570   19.3210 c3        1 CE1      0.128400
     34 O34        24.7460  -13.3540   19.1510 os        1 CE1     -0.438600
     35 C35        24.5960  -14.3420   20.1680 c3        1 CE1      0.087400
     36 C36        25.6490  -15.4070   19.8840 c3        1 CE1      0.131400
     37 O37        26.9580  -14.9050   20.0560 oh        1 CE1     -0.600800
     38 H11        -2.2890    4.0970    2.3120 hc        1 CE1      0.032700
     39 H12        -2.6820    4.0040    0.5460 hc        1 CE1      0.032700
     40 H13        -1.4300    5.1730    1.1380 hc        1 CE1      0.032700
     41 H21        -0.3890    3.1530    0.0530 hc        1 CE1      0.038700
     42 H22        -1.2460    2.0800    1.2250 hc        1 CE1      0.038700
     43 H31        -0.0630    3.2190    3.1320 hc        1 CE1      0.039700
     44 H32         0.7940    4.2910    1.9610 hc        1 CE1      0.039700
     45 H41         0.9490    1.1970    2.0220 hc        1 CE1      0.039700
     46 H42         1.8070    2.2700    0.8510 hc        1 CE1      0.039700
     47 H51         2.1340    2.3350    3.9310 hc        1 CE1      0.039700
     48 H52         2.9910    3.4080    2.7600 hc        1 CE1      0.039700
     49 H61         3.1470    0.3140    2.8200 hc        1 CE1      0.039700
     50 H62         4.0040    1.3870    1.6490 hc        1 CE1      0.039700
     51 H71         4.3310    1.4510    4.7300 hc        1 CE1      0.039700
     52 H72         5.1880    2.5250    3.5590 hc        1 CE1      0.039700
     53 H81         5.3440   -0.5700    3.6180 hc        1 CE1      0.039700
     54 H82         6.2010    0.5040    2.4480 hc        1 CE1      0.039700
     55 H91         6.5280    0.5670    5.5290 hc        1 CE1      0.041700
     56 H92         7.3850    1.6420    4.3590 hc        1 CE1      0.041700
     57 H101        7.5400   -1.4530    4.4160 hc        1 CE1      0.040200
     58 H102        8.3980   -0.3780    3.2460 hc        1 CE1      0.040200
     59 H111        8.7340   -0.3210    6.3320 hc        1 CE1      0.054700
     60 H112        9.5900    0.7560    5.1630 hc        1 CE1      0.054700
     61 H121       10.6250   -1.2610    4.0460 h1        1 CE1      0.025700
     62 H122        9.7560   -2.3520    5.2260 h1        1 CE1      0.025700
     63 H141       12.8160   -1.8510    4.9770 h1        1 CE1      0.041700
     64 H142       11.8830   -3.0670    5.9820 h1        1 CE1      0.041700
     65 H151       12.8890   -0.8070    7.6670 h1        1 CE1      0.043200
     66 H152       14.2610   -1.6420    6.7820 h1        1 CE1      0.043200
     67 H171       14.8480   -2.3660    9.0260 h1        1 CE1      0.043200
     68 H172       13.2670   -1.8750    9.8160 h1        1 CE1      0.043200
     69 H181       12.9910   -4.6960    9.4940 h1        1 CE1      0.043700
     70 H182       13.4740   -3.8410   11.0440 h1        1 CE1      0.043700
     71 H201       14.5140   -6.5700    9.7240 h1        1 CE1      0.043200
     72 H202       14.6720   -5.9260   11.4340 h1        1 CE1      0.043200
     73 H211       16.7010   -7.3210    9.9750 h1        1 CE1      0.043700
     74 H212       17.1900   -5.5590    9.8250 h1        1 CE1      0.043700
     75 H231       18.9300   -5.6150   11.5250 h1        1 CE1      0.043200
     76 H232       18.7030   -7.4260   11.3460 h1        1 CE1      0.043200
     77 H241       19.5370   -6.0810   13.7220 h1        1 CE1      0.043700
     78 H242       17.7500   -6.3810   14.0100 h1        1 CE1      0.043700
     79 H261       18.0290   -8.2960   15.4780 h1        1 CE1      0.043200
     80 H262       19.7720   -7.7250   15.5010 h1        1 CE1      0.043200
     81 H271       19.4130  -10.3440   14.0510 h1        1 CE1      0.043700
     82 H272       18.9030  -10.4260   15.8120 h1        1 CE1      0.043700
     83 H291       21.5710  -11.4200   14.3320 h1        1 CE1      0.043700
     84 H292       20.8670  -11.8600   15.9690 h1        1 CE1      0.043700
     85 H301       23.1330   -9.8770   16.1540 h1        1 CE1      0.044200
     86 H302       23.6360  -11.4740   15.4030 h1        1 CE1      0.044200
     87 H321       24.0530  -10.3060   18.3590 h1        1 CE1      0.043200
     88 H322       24.8900  -11.6820   17.4800 h1        1 CE1      0.043200
     89 H331       22.7980  -12.6300   19.4360 h1        1 CE1      0.045200
     90 H332       24.1490  -11.6800   20.2360 h1        1 CE1      0.045200
     91 H351       24.7630  -13.8750   21.1750 h1        1 CE1      0.039200
     92 H352       23.5660  -14.7830   20.1220 h1        1 CE1      0.039200
     93 H361       25.5550  -16.2420   20.6280 h1        1 CE1      0.053200
     94 H362       25.5220  -15.8040   18.8420 h1        1 CE1      0.053200
     95 H37        27.0440  -14.1400   19.4730 ho        1 CE1      0.412000
@<TRIPOS>BOND
     1    1    2 1   
     2    1   38 1   
     3    1   39 1   
     4    1   40 1   
     5    2    3 1   
     6    2   41 1   
     7    2   42 1   
     8    3    4 1   
     9    3   43 1   
    10    3   44 1   
    11    4    5 1   
    12    4   45 1   
    13    4   46 1   
    14    5    6 1   
    15    5   47 1   
    16    5   48 1   
    17    6    7 1   
    18    6   49 1   
    19    6   50 1   
    20    7    8 1   
    21    7   51 1   
    22    7   52 1   
    23    8    9 1   
    24    8   53 1   
    25    8   54 1   
    26    9   10 1   
    27    9   55 1   
    28    9   56 1   
    29   10   11 1   
    30   10   57 1   
    31   10   58 1   
    32   11   12 1   
    33   11   59 1   
    34   11   60 1   
    35   12   13 1   
    36   12   61 1   
    37   12   62 1   
    38   13   14 1   
    39   14   15 1   
    40   14   63 1   
    41   14   64 1   
    42   15   16 1   
    43   15   65 1   
    44   15   66 1   
    45   16   17 1   
    46   17   18 1   
    47   17   67 1   
    48   17   68 1   
    49   18   19 1   
    50   18   69 1   
    51   18   70 1   
    52   19   20 1   
    53   20   21 1   
    54   20   71 1   
    55   20   72 1   
    56   21   22 1   
    57   21   73 1   
    58   21   74 1   
    59   22   23 1   
    60   23   24 1   
    61   23   75 1   
    62   23   76 1   
    63   24   25 1   
    64   24   77 1   
    65   24   78 1   
    66   25   26 1   
    67   26   27 1   
    68   26   79 1   
    69   26   80 1   
    70   27   28 1   
    71   27   81 1   
    72   27   82 1   
    73   28   29 1   
    74   29   30 1   
    75   29   83 1   
    76   29   84 1   
    77   30   31 1   
    78   30   85 1   
    79   30   86 1   
    80   31   32 1   
    81   32   33 1   
    82   32   87 1   
    83   32   88 1   
    84   33   34 1   
    85   33   89 1   
    86   33   90 1   
    87   34   35 1   
    88   35   36 1   
    89   35   91 1   
    90   35   92 1   
    91   36   37 1   
    92   36   93 1   
    93   36   94 1   
    94   37   95 1   
@<TRIPOS>SUBSTRUCTURE
     1 CE1         1 TEMP              0 ****  ****    0 ROOT
