@<TRIPOS>MOLECULE
CE1
   95    94     1     0     0
SMALL
bcc


@<TRIPOS>ATOM
      1 C1          5.6150    9.6580   -5.3880 c3        1 CE1     -0.092100
      2 C2          4.9910    8.7740   -6.4700 c3        1 CE1     -0.080400
      3 C3          3.4560    8.9340   -6.4390 c3        1 CE1     -0.079400
      4 C4          2.8240    8.0160   -7.4870 c3        1 CE1     -0.079400
      5 C5          1.2710    8.0580   -7.3410 c3        1 CE1     -0.079400
      6 C6          0.6250    7.0230   -8.3190 c3        1 CE1     -0.079400
      7 C7         -0.8910    6.8710   -7.9900 c3        1 CE1     -0.079400
      8 C8         -1.4800    5.6990   -8.7980 c3        1 CE1     -0.078400
      9 C9         -2.8340    5.2800   -8.1870 c3        1 CE1     -0.078400
     10 C10        -3.1480    3.8490   -8.5860 c3        1 CE1     -0.079400
     11 C11        -4.3370    3.3240   -7.7360 c3        1 CE1     -0.079400
     12 C12        -4.3390    1.7480   -7.7480 c3        1 CE1      0.132400
     13 O13        -4.1390    1.2590   -6.4030 os        1 CE1     -0.427600
     14 C14        -4.1650   -0.1680   -6.2900 c3        1 CE1      0.127400
     15 C15        -3.9010   -0.5730   -4.8250 c3        1 CE1      0.123400
     16 O16        -3.4740   -1.9370   -4.7760 os        1 CE1     -0.421600
     17 C17        -2.3770   -2.1530   -3.9640 c3        1 CE1      0.129400
     18 C18        -2.5680   -3.4680   -3.1840 c3        1 CE1      0.096400
     19 O19        -1.3780   -3.7610   -2.4320 os        1 CE1     -0.426600
     20 C20        -1.6260   -4.5210   -1.2280 c3        1 CE1      0.128400
     21 C21        -0.3120   -5.0040   -0.6530 c3        1 CE1      0.127400
     22 O22        -0.1730   -4.5320    0.7260 os        1 CE1     -0.428600
     23 C23         0.5800   -5.4140    1.5590 c3        1 CE1      0.127400
     24 C24         1.2320   -4.6220    2.6970 c3        1 CE1      0.127400
     25 O25         0.7200   -5.0700    3.9340 os        1 CE1     -0.429600
     26 C26         1.5710   -4.7580    5.0770 c3        1 CE1      0.127400
     27 C27         0.7230   -4.6790    6.3220 c3        1 CE1      0.127400
     28 O28         1.5020   -4.9970    7.4490 os        1 CE1     -0.429600
     29 C29         0.9510   -4.5250    8.6720 c3        1 CE1      0.127400
     30 C30         1.4250   -5.4390    9.8450 c3        1 CE1      0.127400
     31 O31         1.1530   -4.8090   11.0830 os        1 CE1     -0.428600
     32 C32         1.2810   -5.6440   12.1600 c3        1 CE1      0.127400
     33 C33         1.4810   -4.8300   13.4070 c3        1 CE1      0.129400
     34 O34         1.1630   -5.6220   14.5550 os        1 CE1     -0.431600
     35 C35         1.5970   -5.0500   15.7750 c3        1 CE1      0.128400
     36 C36         0.9850   -5.8220   16.9530 c3        1 CE1      0.127400
     37 O37         1.7680   -5.6030   18.1240 oh        1 CE1     -0.602800
     38 H11         5.3490    9.3260   -4.5000 hc        1 CE1      0.032700
     39 H12         6.5880    9.6320   -5.4680 hc        1 CE1      0.032700
     40 H13         5.3100   10.5590   -5.4970 hc        1 CE1      0.032700
     41 H21         5.3320    9.0470   -7.3550 hc        1 CE1      0.038700
     42 H22         5.2260    7.8370   -6.3030 hc        1 CE1      0.038700
     43 H31         3.2180    9.8770   -6.6370 hc        1 CE1      0.039700
     44 H32         3.1130    8.6870   -5.5270 hc        1 CE1      0.039700
     45 H41         3.0810    8.3290   -8.4000 hc        1 CE1      0.039700
     46 H42         3.1470    7.0830   -7.3520 hc        1 CE1      0.039700
     47 H51         0.9420    8.9760   -7.5620 hc        1 CE1      0.039700
     48 H52         1.0230    7.8350   -6.4170 hc        1 CE1      0.039700
     49 H61         0.7270    7.3360   -9.2340 hc        1 CE1      0.039700
     50 H62         1.0620    6.1720   -8.2200 hc        1 CE1      0.039700
     51 H71        -1.3600    7.6960   -8.2240 hc        1 CE1      0.039200
     52 H72        -1.0010    6.6950   -7.0430 hc        1 CE1      0.039200
     53 H81        -0.8540    4.9320   -8.7720 hc        1 CE1      0.040200
     54 H82        -1.6180    5.9840   -9.7500 hc        1 CE1      0.040200
     55 H91        -2.7840    5.3440   -7.1960 hc        1 CE1      0.038700
     56 H92        -3.5440    5.8770   -8.5190 hc        1 CE1      0.038700
     57 H101       -3.3850    3.8200   -9.5300 hc        1 CE1      0.045700
     58 H102       -2.3580    3.2840   -8.4300 hc        1 CE1      0.045700
     59 H111       -5.1880    3.6600   -8.1160 hc        1 CE1      0.051700
     60 H112       -4.2450    3.6390   -6.8260 hc        1 CE1      0.051700
     61 H121       -3.6120    1.4230   -8.3260 h1        1 CE1      0.027700
     62 H122       -5.2150    1.4170   -8.0970 h1        1 CE1      0.027700
     63 H141       -5.0350   -0.4980   -6.5630 h1        1 CE1      0.039200
     64 H142       -3.4730   -0.5560   -6.8670 h1        1 CE1      0.039200
     65 H151       -3.1910    0.0110   -4.4420 h1        1 CE1      0.041700
     66 H152       -4.7200   -0.4710   -4.3060 h1        1 CE1      0.041700
     67 H171       -2.2850   -1.4050   -3.3300 h1        1 CE1      0.061700
     68 H172       -1.5780   -2.2150   -4.5110 h1        1 CE1      0.061700
     69 H181       -2.7480   -4.2080   -3.8210 h1        1 CE1      0.035700
     70 H182       -3.3130   -3.3770   -2.5810 h1        1 CE1      0.035700
     71 H201       -2.0850   -3.9480   -0.5660 h1        1 CE1      0.044200
     72 H202       -2.1930   -5.2950   -1.4410 h1        1 CE1      0.044200
     73 H211       -0.2930   -6.0090   -0.6630 h1        1 CE1      0.044200
     74 H212        0.4290   -4.6580   -1.1940 h1        1 CE1      0.044200
     75 H231        1.2650   -5.8410    1.0340 h1        1 CE1      0.044200
     76 H232       -0.0080   -6.0880    1.9310 h1        1 CE1      0.044200
     77 H241        1.0350   -3.6650    2.5890 h1        1 CE1      0.043700
     78 H242        2.1790   -4.7570    2.6770 h1        1 CE1      0.043700
     79 H261        2.0220   -3.8830    4.9260 h1        1 CE1      0.043700
     80 H262        2.2650   -5.4800    5.1880 h1        1 CE1      0.043700
     81 H271       -0.0120   -5.3080    6.2510 h1        1 CE1      0.043700
     82 H272        0.3640   -3.7640    6.4190 h1        1 CE1      0.043700
     83 H291       -0.0520   -4.5460    8.6150 h1        1 CE1      0.043700
     84 H292        1.2570   -3.5860    8.8350 h1        1 CE1      0.043700
     85 H301        2.3840   -5.5990    9.7670 h1        1 CE1      0.043700
     86 H302        0.9370   -6.3140    9.8050 h1        1 CE1      0.043700
     87 H321        2.0700   -6.2410   12.0230 h1        1 CE1      0.043200
     88 H322        0.4570   -6.1960   12.2510 h1        1 CE1      0.043200
     89 H331        2.4400   -4.5350   13.4620 h1        1 CE1      0.044700
     90 H332        0.8810   -4.0210   13.3810 h1        1 CE1      0.044700
     91 H351        1.3080   -4.1050   15.8160 h1        1 CE1      0.041200
     92 H352        2.5640   -5.0940   15.8250 h1        1 CE1      0.041200
     93 H361        0.9710   -6.7850   16.7450 h1        1 CE1      0.035200
     94 H362        0.0600   -5.5050   17.1120 h1        1 CE1      0.035200
     95 H37         1.3710   -6.0200   18.8440 ho        1 CE1      0.405000
@<TRIPOS>BOND
     1    1    2 1   
     2    1   38 1   
     3    1   39 1   
     4    1   40 1   
     5    2    3 1   
     6    2   41 1   
     7    2   42 1   
     8    3    4 1   
     9    3   43 1   
    10    3   44 1   
    11    4    5 1   
    12    4   45 1   
    13    4   46 1   
    14    5    6 1   
    15    5   47 1   
    16    5   48 1   
    17    6    7 1   
    18    6   49 1   
    19    6   50 1   
    20    7    8 1   
    21    7   51 1   
    22    7   52 1   
    23    8    9 1   
    24    8   53 1   
    25    8   54 1   
    26    9   10 1   
    27    9   55 1   
    28    9   56 1   
    29   10   11 1   
    30   10   57 1   
    31   10   58 1   
    32   11   12 1   
    33   11   59 1   
    34   11   60 1   
    35   12   13 1   
    36   12   61 1   
    37   12   62 1   
    38   13   14 1   
    39   14   15 1   
    40   14   63 1   
    41   14   64 1   
    42   15   16 1   
    43   15   65 1   
    44   15   66 1   
    45   16   17 1   
    46   17   18 1   
    47   17   67 1   
    48   17   68 1   
    49   18   19 1   
    50   18   69 1   
    51   18   70 1   
    52   19   20 1   
    53   20   21 1   
    54   20   71 1   
    55   20   72 1   
    56   21   22 1   
    57   21   73 1   
    58   21   74 1   
    59   22   23 1   
    60   23   24 1   
    61   23   75 1   
    62   23   76 1   
    63   24   25 1   
    64   24   77 1   
    65   24   78 1   
    66   25   26 1   
    67   26   27 1   
    68   26   79 1   
    69   26   80 1   
    70   27   28 1   
    71   27   81 1   
    72   27   82 1   
    73   28   29 1   
    74   29   30 1   
    75   29   83 1   
    76   29   84 1   
    77   30   31 1   
    78   30   85 1   
    79   30   86 1   
    80   31   32 1   
    81   32   33 1   
    82   32   87 1   
    83   32   88 1   
    84   33   34 1   
    85   33   89 1   
    86   33   90 1   
    87   34   35 1   
    88   35   36 1   
    89   35   91 1   
    90   35   92 1   
    91   36   37 1   
    92   36   93 1   
    93   36   94 1   
    94   37   95 1   
@<TRIPOS>SUBSTRUCTURE
     1 CE1         1 TEMP              0 ****  ****    0 ROOT
