@<TRIPOS>MOLECULE
CE2
   31    29     1     0     0
SMALL
bcc


@<TRIPOS>ATOM
      1 C12        -1.3330    1.3840   -1.5510 c3        1 CE2     -0.202000
      2 C7          0.1790    1.3910   -1.5270 c3        1 CE2      0.014000
      3 C5          0.6610    1.3780   -0.0920 c2        1 CE2     -0.017000
      4 C3          0.5490    0.3280    0.7860 c1        1 CE2     -0.320000
      5 C2          1.1700    0.6910    1.9640 c1        1 CE2      0.175000
      6 O4          1.3230   -0.1210    3.1000 os        1 CE2     -0.574000
      7 N1          1.6540    1.9410    1.8120 n2        1 CE2     -0.262000
      8 O8          1.3380    2.3730    0.5290 os        1 CE2     -0.106000
      9 C6         -0.1610   -0.9830    0.5210 c2        1 CE2     -0.072000
     10 C11        -0.3980   -1.7010    1.8300 c3        1 CE2     -0.173000
     11 C25        -1.8830   -1.8710    2.0490 c2        1 CE2      0.338000
     12 O28        -2.5490   -2.6260    1.2930 o         1 CE2     -0.536000
     13 O27        -2.4510   -1.2790    3.0040 o         1 CE2     -0.536000
     14 N24         0.2250   -2.9800    1.7890 n4        1 CE2     -0.065000
     15 C13         0.7010    0.1660   -2.2450 c3        1 CE2     -0.202000
     16 C14         0.6890    2.6360   -2.2180 c3        1 CE2     -0.202000
     17 H121       -1.6500    1.9150   -2.3110 hc        1 CE2      0.074889
     18 H122       -1.6540    0.4620   -1.6400 hc        1 CE2      0.074889
     19 H123       -1.6750    1.7700   -0.7180 hc        1 CE2      0.074889
     20 H61        -1.0200   -0.8070    0.0860 ha        1 CE2      0.107000
     21 H62         0.3910   -1.5410   -0.0610 ha        1 CE2      0.107000
     22 H11        -0.0200   -1.1780    2.5610 hx        1 CE2      0.111000
     23 H241       -0.1080   -3.4610    1.0800 hn        1 CE2      0.247667
     24 H242        1.1320   -2.8760    1.6880 hn        1 CE2      0.247667
     25 H243        0.0540   -3.4300    2.5710 hn        1 CE2      0.247667
     26 H131        0.0970   -0.5890   -2.0830 hc        1 CE2      0.074889
     27 H132        1.5950   -0.0530   -1.9100 hc        1 CE2      0.074889
     28 H133        0.7480    0.3470   -3.2070 hc        1 CE2      0.074889
     29 H141        1.6610    2.6980   -2.1060 hc        1 CE2      0.074889
     30 H142        0.4730    2.5910   -3.1730 hc        1 CE2      0.074889
     31 H143        0.2640    3.4260   -1.8240 hc        1 CE2      0.074889
@<TRIPOS>BOND
     1    1    2 1   
     2    1   17 1   
     3    1   18 1   
     4    1   19 1   
     5    2    3 1   
     6    2   15 1   
     7    2   16 1   
     8    3    4 1   
     9    3    8 1   
    10    4    5 1   
    11    5    7 1   
    12    7    8 1   
    13    9   10 1   
    14    9   20 1   
    15    9   21 1   
    16   10   11 1   
    17   10   14 1   
    18   10   22 1   
    19   11   12 1   
    20   11   13 1   
    21   14   23 1   
    22   14   24 1   
    23   14   25 1   
    24   15   26 1   
    25   15   27 1   
    26   15   28 1   
    27   16   29 1   
    28   16   30 1   
    29   16   31 1   
@<TRIPOS>SUBSTRUCTURE
     1 CE2         1 TEMP              0 ****  ****    0 ROOT
