@<TRIPOS>MOLECULE
CE2
   31    31     1     0     0
SMALL
bcc


@<TRIPOS>ATOM
      1 C12        -1.0270    2.4080   -0.9450 c3        1 CE2     -0.084100
      2 C7         -1.9700    1.6060   -0.0530 c3        1 CE2     -0.080300
      3 C5         -1.5800    0.1700   -0.0770 cc        1 CE2      0.272000
      4 C3         -0.4280   -0.5260    0.2060 cd        1 CE2     -0.457900
      5 C2         -0.7900   -1.9680   -0.0480 cd        1 CE2      0.840300
      6 O4          0.0050   -2.9610    0.0720 o         1 CE2     -0.911000
      7 N1         -2.1030   -1.9940   -0.4540 nc        1 CE2     -0.597300
      8 O8         -2.5730   -0.7450   -0.4690 os        1 CE2     -0.163100
      9 C6          0.8660   -0.0430    0.6980 c3        1 CE2      0.013900
     10 C11         1.9810   -0.2000   -0.3350 c3        1 CE2     -0.025500
     11 C25         3.3290    0.4560    0.1600 c         1 CE2      0.918600
     12 O28         3.2530    1.6150    0.6200 o         1 CE2     -0.801300
     13 O27         4.3750   -0.2380    0.0050 o         1 CE2     -0.801300
     14 N24         2.2000   -1.6360   -0.6800 n4        1 CE2     -0.837600
     15 C13        -1.8880    2.1330    1.3760 c3        1 CE2     -0.084100
     16 C14        -3.3980    1.7840   -0.5610 c3        1 CE2     -0.084100
     17 H121        0.0320    2.2710   -0.6170 hc        1 CE2      0.035589
     18 H122       -1.1200    2.0700   -2.0050 hc        1 CE2      0.035589
     19 H123       -1.2840    3.4930   -0.8910 hc        1 CE2      0.035589
     20 H61         0.8320    1.0500    0.9580 hc        1 CE2      0.067700
     21 H62         1.1410   -0.5990    1.6370 hc        1 CE2      0.067700
     22 H11         1.6880    0.3390   -1.2800 hx        1 CE2      0.071700
     23 H241        1.7920   -2.2370    0.0670 hn        1 CE2      0.452467
     24 H242        1.7180   -1.8770   -1.5410 hn        1 CE2      0.452467
     25 H243        3.2140   -1.7920   -0.7590 hn        1 CE2      0.452467
     26 H131       -2.1870    3.2080    1.4020 hc        1 CE2      0.035589
     27 H132       -2.5720    1.5520    2.0390 hc        1 CE2      0.035589
     28 H133       -0.8470    2.0410    1.7670 hc        1 CE2      0.035589
     29 H141       -3.4850    1.3930   -1.6030 hc        1 CE2      0.035589
     30 H142       -4.1080    1.2150    0.0860 hc        1 CE2      0.035589
     31 H143       -3.6760    2.8640   -0.5500 hc        1 CE2      0.035589
@<TRIPOS>BOND
     1    1    2 1   
     2    1   17 1   
     3    1   18 1   
     4    1   19 1   
     5    2    3 1   
     6    2   15 1   
     7    2   16 1   
     8    3    4 2   
     9    3    8 1   
    10    4    5 1   
    11    4    9 1   
    12    5    6 1   
    13    5    7 2   
    14    7    8 1   
    15    9   10 1   
    16    9   20 1   
    17    9   21 1   
    18   10   11 1   
    19   10   14 1   
    20   10   22 1   
    21   11   12 1   
    22   11   13 1   
    23   14   23 1   
    24   14   24 1   
    25   14   25 1   
    26   15   26 1   
    27   15   27 1   
    28   15   28 1   
    29   16   29 1   
    30   16   30 1   
    31   16   31 1   
@<TRIPOS>SUBSTRUCTURE
     1 CE2         1 TEMP              0 ****  ****    0 ROOT
