@<TRIPOS>MOLECULE
CE2
   31    31     1     0     0
SMALL
bcc


@<TRIPOS>ATOM
      1 C12         0.1300    0.2460   -0.3380 c3        1 CE2     -0.084100
      2 C7          1.6300    0.0700   -0.1180 c3        1 CE2     -0.080300
      3 C5          1.9100   -0.0530    1.3370 cc        1 CE2      0.272000
      4 C3          1.4810   -0.8920    2.3400 cd        1 CE2     -0.457900
      5 C2          2.2060   -0.4060    3.5710 cd        1 CE2      0.840300
      6 O4          2.0790   -0.8960    4.7440 o         1 CE2     -0.911000
      7 N1          2.9840    0.6610    3.1920 nc        1 CE2     -0.597300
      8 O8          2.8190    0.8710    1.8840 os        1 CE2     -0.163100
      9 C6          0.5760   -2.0430    2.2800 c3        1 CE2      0.013900
     10 C11        -0.7360   -1.7970    3.0230 c3        1 CE2     -0.025500
     11 C25        -1.7510   -2.9890    2.8250 c         1 CE2      0.918600
     12 O28        -1.9240   -3.3900    1.6540 o         1 CE2     -0.801300
     13 O27        -2.3320   -3.4060    3.8680 o         1 CE2     -0.801300
     14 N24        -0.4960   -1.5580    4.4770 nz        1 CE2     -0.837600
     15 C13         2.1040   -1.1890   -0.8380 c3        1 CE2     -0.084100
     16 C14         2.3580    1.2750   -0.7060 c3        1 CE2     -0.084100
     17 H121       -0.2190    1.1940    0.1350 hc        1 CE2      0.035589
     18 H122       -0.4340   -0.6070    0.1120 hc        1 CE2      0.035589
     19 H123       -0.0910    0.2880   -1.4310 hc        1 CE2      0.035589
     20 H61         1.0890   -2.9470    2.7100 hc        1 CE2      0.067700
     21 H62         0.2920   -2.2970    1.2210 hc        1 CE2      0.067700
     22 H11        -1.2330   -0.8780    2.6020 hx        1 CE2      0.071700
     23 H241        0.4450   -1.9210    4.7370 hn        1 CE2      0.452467
     24 H242       -0.4900   -0.5630    4.6830 hn        1 CE2      0.452467
     25 H243       -1.2320   -2.0470    5.0050 hn        1 CE2      0.452467
     26 H131        3.2000   -1.3300   -0.6820 hc        1 CE2      0.035589
     27 H132        1.9030   -1.0990   -1.9320 hc        1 CE2      0.035589
     28 H133        1.5690   -2.0870   -0.4460 hc        1 CE2      0.035589
     29 H141        3.4590    1.1610   -0.5680 hc        1 CE2      0.035589
     30 H142        2.0350    2.2090   -0.1860 hc        1 CE2      0.035589
     31 H143        2.1320    1.3650   -1.7950 hc        1 CE2      0.035589
@<TRIPOS>BOND
     1    1    2 1   
     2    1   17 1   
     3    1   18 1   
     4    1   19 1   
     5    2    3 1   
     6    2   15 1   
     7    2   16 1   
     8    3    4 2   
     9    3    8 1   
    10    4    5 1   
    11    4    9 1   
    12    5    6 1   
    13    5    7 2   
    14    7    8 1   
    15    9   10 1   
    16    9   20 1   
    17    9   21 1   
    18   10   11 1   
    19   10   14 1   
    20   10   22 1   
    21   11   12 1   
    22   11   13 1   
    23   14   23 1   
    24   14   24 1   
    25   14   25 1   
    26   15   26 1   
    27   15   27 1   
    28   15   28 1   
    29   16   29 1   
    30   16   30 1   
    31   16   31 1   
@<TRIPOS>SUBSTRUCTURE
     1 CE2         1 TEMP              0 ****  ****    0 ROOT
