@<TRIPOS>MOLECULE
CE2
   31    31     1     0     0
SMALL
bcc


@<TRIPOS>ATOM
      1 C12         0.1060    0.2480   -0.3280 c3        1 CE2     -0.084100
      2 C7          1.6080    0.0770   -0.1250 c3        1 CE2     -0.080300
      3 C5          1.9050   -0.0490    1.3270 cc        1 CE2      0.272000
      4 C3          1.4900   -0.8920    2.3320 cd        1 CE2     -0.457900
      5 C2          2.2270   -0.4060    3.5560 cd        1 CE2      0.840300
      6 O4          2.1140   -0.9000    4.7290 o         1 CE2     -0.911000
      7 N1          2.9970    0.6650    3.1710 nc        1 CE2     -0.597300
      8 O8          2.8170    0.8770    1.8660 os        1 CE2     -0.163100
      9 C6          0.5890   -2.0460    2.2790 c3        1 CE2      0.013900
     10 C11        -0.7160   -1.8070    3.0380 c3        1 CE2     -0.025500
     11 C25        -1.7280   -3.0020    2.8470 c         1 CE2      0.918600
     12 O28        -1.9130   -3.4000    1.6770 o         1 CE2     -0.801300
     13 O27        -2.2960   -3.4230    3.8960 o         1 CE2     -0.801300
     14 N24        -0.4610   -1.5700    4.4890 n4        1 CE2     -0.837600
     15 C13         2.0790   -1.1790   -0.8520 c3        1 CE2     -0.084100
     16 C14         2.3250    1.2860   -0.7180 c3        1 CE2     -0.084100
     17 H121       -0.2420    1.1940    0.1520 hc        1 CE2      0.035589
     18 H122       -0.1280    0.2920   -1.4180 hc        1 CE2      0.035589
     19 H123       -0.4500   -0.6080    0.1260 hc        1 CE2      0.035589
     20 H61         0.2940   -2.2980    1.2230 hc        1 CE2      0.067700
     21 H62         1.1090   -2.9490    2.7020 hc        1 CE2      0.067700
     22 H11        -1.2210   -0.8880    2.6240 hx        1 CE2      0.071700
     23 H241       -1.1890   -2.0640    5.0240 hn        1 CE2      0.452467
     24 H242       -0.4570   -0.5760    4.6980 hn        1 CE2      0.452467
     25 H243        0.4840   -1.9300    4.7380 hn        1 CE2      0.452467
     26 H131        1.5510   -2.0790   -0.4580 hc        1 CE2      0.035589
     27 H132        3.1770   -1.3160   -0.7090 hc        1 CE2      0.035589
     28 H133        1.8660   -1.0870   -1.9440 hc        1 CE2      0.035589
     29 H141        3.4290    1.1760   -0.5920 hc        1 CE2      0.035589
     30 H142        2.0870    1.3780   -1.8040 hc        1 CE2      0.035589
     31 H143        2.0050    2.2170   -0.1920 hc        1 CE2      0.035589
@<TRIPOS>BOND
     1    1    2 1   
     2    1   17 1   
     3    1   18 1   
     4    1   19 1   
     5    2    3 1   
     6    2   15 1   
     7    2   16 1   
     8    3    4 2   
     9    3    8 1   
    10    4    5 1   
    11    4    9 1   
    12    5    6 1   
    13    5    7 2   
    14    7    8 1   
    15    9   10 1   
    16    9   20 1   
    17    9   21 1   
    18   10   11 1   
    19   10   14 1   
    20   10   22 1   
    21   11   12 1   
    22   11   13 1   
    23   14   23 1   
    24   14   24 1   
    25   14   25 1   
    26   15   26 1   
    27   15   27 1   
    28   15   28 1   
    29   16   29 1   
    30   16   30 1   
    31   16   31 1   
@<TRIPOS>SUBSTRUCTURE
     1 CE2         1 TEMP              0 ****  ****    0 ROOT
