@<TRIPOS>MOLECULE
CE3
   46    48     1     0     0
SMALL
bcc


@<TRIPOS>ATOM
      1 C           0.5360   -0.5930   -1.5850 cy        1 CE3      0.121800
      2 C1         -0.8020   -1.3880   -1.3330 cy        1 CE3      0.009700
      3 S           0.6590    1.0620   -0.9450 ss        1 CE3     -0.390200
      4 C2          2.4050    1.0870   -0.5670 c3        1 CE3      0.091900
      5 C3          2.9470   -0.1430    0.0450 c2        1 CE3     -0.275400
      6 C4          2.4120   -1.3910   -0.0890 ce        1 CE3      0.030400
      7 N           1.2650   -1.6250   -0.8420 n         1 CE3     -0.338000
      8 C5          0.1080   -2.3900   -0.5200 c         1 CE3      0.703500
      9 O          -0.1080   -3.4330    0.0680 o         1 CE3     -0.518500
     10 N1         -1.8230   -0.7450   -0.5880 n         1 CE3     -0.522900
     11 C6         -3.1310   -0.6900   -1.0230 c         1 CE3      0.589800
     12 O2         -3.5420   -1.2650   -2.0460 o         1 CE3     -0.584100
     13 C7         -4.0780    0.0970   -0.1360 ce        1 CE3      0.293300
     14 N2         -5.1050   -0.4000    0.5050 n2        1 CE3     -0.404200
     15 O1         -5.2780   -1.7020    0.4010 os        1 CE3     -0.160300
     16 C8         -6.4140   -2.2030    1.1420 c3        1 CE3      0.130700
     17 C14        -3.7880    1.5350   -0.0380 cc        1 CE3      0.324000
     18 N3         -2.9760    2.1420   -0.9950 nc        1 CE3     -0.657000
     19 C15        -2.8130    3.4400   -0.6880 cd        1 CE3      0.604300
     20 N4         -2.1340    4.4040   -1.4470 nh        1 CE3     -0.878500
     21 S1         -3.6610    3.9280    0.7670 ss        1 CE3     -0.113300
     22 C13        -4.2270    2.3740    0.9800 cd        1 CE3     -0.227400
     23 C9          4.1760    0.0690    0.8580 c3        1 CE3      0.208600
     24 O3          5.2250    0.4690   -0.0640 os        1 CE3     -0.435900
     25 C10         6.3300    1.0530    0.4580 c         1 CE3      0.629100
     26 O4          6.3630    1.3610    1.6550 o         1 CE3     -0.572000
     27 C11         7.4080    1.2620   -0.5540 c3        1 CE3     -0.152100
     28 C12         3.0950   -2.6340    0.5710 c         1 CE3      0.929800
     29 O5          3.6350   -3.4490   -0.2120 o         1 CE3     -0.786300
     30 O6          3.0700   -2.6780    1.8250 o         1 CE3     -0.786300
     31 HC          0.8360   -0.5850   -2.6600 h2        1 CE3      0.092700
     32 H1         -1.2170   -1.8510   -2.2670 h1        1 CE3      0.116700
     33 H21         2.9630    1.3160   -1.5100 h1        1 CE3      0.062200
     34 H22         2.5220    1.9570    0.1280 h1        1 CE3      0.062200
     35 HN1        -1.5290   -0.1450    0.1510 hn        1 CE3      0.336500
     36 H81        -7.3630   -1.7560    0.7630 h1        1 CE3      0.048367
     37 H82        -6.3670   -3.2980    0.9210 h1        1 CE3      0.048367
     38 H83        -6.2920   -2.0070    2.2340 h1        1 CE3      0.048367
     39 H41        -1.8510    4.0610   -2.3470 hn        1 CE3      0.392300
     40 H42        -1.3430    4.7630   -0.9450 hn        1 CE3      0.392300
     41 H13        -4.8510    2.0670    1.8170 h4        1 CE3      0.191000
     42 H91         4.0260    0.8890    1.6100 h1        1 CE3      0.074200
     43 H92         4.5190   -0.8670    1.3760 h1        1 CE3      0.074200
     44 H111        6.9680    1.4440   -1.5630 hc        1 CE3      0.064367
     45 H112        8.0400    2.1310   -0.2510 hc        1 CE3      0.064367
     46 H113        8.0390    0.3410   -0.5960 hc        1 CE3      0.064367
@<TRIPOS>BOND
     1    1    2 1   
     2    1    3 1   
     3    1    7 1   
     4    1   31 1   
     5    2    8 1   
     6    2   10 1   
     7    2   32 1   
     8    3    4 1   
     9    4    5 1   
    10    4   33 1   
    11    4   34 1   
    12    5    6 2   
    13    5   23 1   
    14    6    7 1   
    15    6   28 1   
    16    7    8 1   
    17    8    9 2   
    18   10   11 1   
    19   10   35 1   
    20   11   12 2   
    21   11   13 1   
    22   13   14 2   
    23   13   17 1   
    24   14   15 1   
    25   15   16 1   
    26   16   36 1   
    27   16   37 1   
    28   16   38 1   
    29   17   18 1   
    30   17   22 2   
    31   18   19 2   
    32   19   20 1   
    33   19   21 1   
    34   20   39 1   
    35   20   40 1   
    36   21   22 1   
    37   22   41 1   
    38   23   24 1   
    39   23   42 1   
    40   23   43 1   
    41   24   25 1   
    42   25   26 2   
    43   25   27 1   
    44   27   44 1   
    45   27   45 1   
    46   27   46 1   
    47   28   29 1   
    48   28   30 1   
@<TRIPOS>SUBSTRUCTURE
     1 CE3         1 TEMP              0 ****  ****    0 ROOT
