@<TRIPOS>MOLECULE
CE3
   48    50     1     0     0
SMALL
bcc


@<TRIPOS>ATOM
      1 C           0.2890    0.6000    1.6770 cy        1 CE3      0.052800
      2 C1          1.6880    0.0490    1.2140 cy        1 CE3     -0.032500
      3 S          -1.0500    0.6590    0.5390 ss        1 CE3     -0.287200
      4 C2         -2.3330    0.0020    1.6090 c3        1 CE3      0.036900
      5 C3         -1.9120   -1.3190    2.1180 c2        1 CE3     -0.111400
      6 C4         -0.6370   -1.5130    2.5550 ce        1 CE3     -0.094600
      7 N           0.2460   -0.4140    2.7820 n         1 CE3     -0.246000
      8 C5          1.6720   -0.7060    2.6070 c         1 CE3      0.713500
      9 O           2.5680   -1.1260    3.3010 o         1 CE3     -0.445500
     10 N1          1.6080   -0.8980    0.0730 n4        1 CE3     -0.665800
     11 C6          2.8340   -0.9630   -0.7870 c         1 CE3      0.457800
     12 O2          3.5370    0.0320   -0.8800 o         1 CE3     -0.398100
     13 C7          3.0790   -2.2720   -1.4770 ce        1 CE3      0.229300
     14 N2          3.3420   -2.4170   -2.7520 n2        1 CE3     -0.276200
     15 O1          3.3310   -1.3500   -3.4900 os        1 CE3     -0.170300
     16 C8          3.6790   -1.5660   -4.8940 c3        1 CE3      0.131700
     17 C14         3.0630   -3.4430   -0.5860 cc        1 CE3      0.293000
     18 N3          1.8950   -4.1410   -0.3650 nc        1 CE3     -0.580000
     19 C15         2.1110   -5.0180    0.6500 cd        1 CE3      0.411300
     20 N4          1.0130   -5.6900    1.3170 n4        1 CE3     -0.812300
     21 S1          3.7300   -5.0570    1.2220 ss        1 CE3      0.202700
     22 C13         4.1630   -3.8700    0.1760 cd        1 CE3     -0.222400
     23 C9         -2.9380   -2.4070    2.0970 c3        1 CE3      0.162600
     24 O3         -3.1100   -2.9420    0.7790 os        1 CE3     -0.449900
     25 C10        -4.1640   -2.5000    0.0200 c         1 CE3      0.632100
     26 O4         -4.8280   -1.5490    0.4380 o         1 CE3     -0.539000
     27 C11        -4.3400   -3.2740   -1.2380 c3        1 CE3     -0.150100
     28 C12        -0.0080   -2.8840    2.5700 c         1 CE3      0.928800
     29 O5          1.1590   -2.9630    2.0340 o         1 CE3     -0.836300
     30 O6         -0.5650   -3.9500    2.9420 o         1 CE3     -0.836300
     31 HC          0.4230    1.6170    2.1360 h2        1 CE3      0.142700
     32 H1          2.4880    0.8140    1.0630 hx        1 CE3      0.150700
     33 H21        -2.5250    0.7270    2.4390 h1        1 CE3      0.125700
     34 H22        -3.2600   -0.0660    0.9780 h1        1 CE3      0.125700
     35 HN1         0.7980   -0.6190   -0.5150 hn        1 CE3      0.494800
     36 H81         4.7210   -1.9550   -4.9760 h1        1 CE3      0.077367
     37 H82         2.9440   -2.2550   -5.3710 h1        1 CE3      0.077367
     38 H83         3.5950   -0.5250   -5.2970 h1        1 CE3      0.077367
     39 H41         0.6960   -5.0740    2.1380 hn        1 CE3      0.487467
     40 H42         0.2090   -5.7940    0.6880 hn        1 CE3      0.487467
     41 H13         5.1720   -3.4550    0.0850 h4        1 CE3      0.221000
     42 H91        -2.6090   -3.2980    2.7040 h1        1 CE3      0.106200
     43 H92        -3.9100   -2.0030    2.4930 h1        1 CE3      0.106200
     44 H111       -4.5110   -2.5640   -2.0840 hc        1 CE3      0.080367
     45 H112       -3.4460   -3.9080   -1.4500 hc        1 CE3      0.080367
     46 H113       -5.2400   -3.9300   -1.1290 hc        1 CE3      0.080367
     47 H12         1.4010   -1.8470    0.4700 hn        1 CE3      0.494800
     48 H43         1.3100   -6.6070    1.6470 hn        1 CE3      0.487467
@<TRIPOS>BOND
     1    1    2 1   
     2    1    3 1   
     3    1    7 1   
     4    1   31 1   
     5    2    8 1   
     6    2   10 1   
     7    2   32 1   
     8    3    4 1   
     9    4    5 1   
    10    4   33 1   
    11    4   34 1   
    12    5    6 2   
    13    5   23 1   
    14    6    7 1   
    15    6   28 1   
    16    7    8 1   
    17    8    9 2   
    18   10   11 1   
    19   10   35 1   
    20   10   47 1   
    21   11   12 2   
    22   11   13 1   
    23   13   14 2   
    24   13   17 1   
    25   14   15 1   
    26   15   16 1   
    27   16   36 1   
    28   16   37 1   
    29   16   38 1   
    30   17   18 1   
    31   17   22 2   
    32   18   19 2   
    33   19   20 1   
    34   19   21 1   
    35   20   39 1   
    36   20   40 1   
    37   20   48 1   
    38   21   22 1   
    39   22   41 1   
    40   23   24 1   
    41   23   42 1   
    42   23   43 1   
    43   24   25 1   
    44   25   26 2   
    45   25   27 1   
    46   27   44 1   
    47   27   45 1   
    48   27   46 1   
    49   28   29 1   
    50   28   30 1   
@<TRIPOS>SUBSTRUCTURE
     1 CE3         1 TEMP              0 ****  ****    0 ROOT
