@<TRIPOS>MOLECULE
CE3
   47    49     1     0     0
SMALL
bcc


@<TRIPOS>ATOM
      1 C           0.1090    0.9780    1.0240 cy        1 CE3      0.055800
      2 C1          1.5720    0.4130    0.8770 cy        1 CE3     -0.026500
      3 S          -1.1020    0.5610   -0.1810 ss        1 CE3     -0.306200
      4 C2         -2.4400    0.0620    0.9060 c3        1 CE3      0.049900
      5 C3         -1.9560   -0.9550    1.8590 c2        1 CE3     -0.174400
      6 C4         -0.7460   -0.8290    2.4690 ce        1 CE3     -0.088600
      7 N           0.0090    0.3760    2.3940 n         1 CE3     -0.256000
      8 C5          1.4650    0.1880    2.4430 c         1 CE3      0.712500
      9 O           2.3050    0.1510    3.3120 o         1 CE3     -0.445500
     10 N1          1.6240   -0.8780    0.1590 n4        1 CE3     -0.673800
     11 C6          2.7950   -1.1140   -0.7270 c         1 CE3      0.457800
     12 O2          3.5740   -0.1930   -0.9430 o         1 CE3     -0.438100
     13 C7          2.9190   -2.5060   -1.2860 ce        1 CE3      0.279300
     14 N2          3.3600   -2.7890   -2.4850 n2        1 CE3     -0.320200
     15 O1          3.6770   -1.7850   -3.2600 os        1 CE3     -0.175300
     16 C8          4.1900   -2.1730   -4.5650 c3        1 CE3      0.131700
     17 C14         2.5540   -3.5860   -0.3540 cc        1 CE3      0.279000
     18 N3          1.2320   -3.7030    0.0670 nc        1 CE3     -0.754000
     19 C15         1.1660   -4.5940    1.0820 cd        1 CE3      0.690300
     20 N4          0.0300   -4.9530    1.7960 nh        1 CE3     -0.882500
     21 S1          2.7060   -5.3730    1.4100 ss        1 CE3     -0.051300
     22 C13         3.4610   -4.4420    0.2520 cd        1 CE3     -0.228400
     23 C9         -2.8410   -2.1370    2.0820 c3        1 CE3      0.175600
     24 O3         -2.5740   -3.1850    1.1360 os        1 CE3     -0.441900
     25 C10        -3.3010   -3.2400   -0.0190 c         1 CE3      0.636100
     26 O4         -4.1310   -2.3560   -0.2460 o         1 CE3     -0.562000
     27 C11        -2.9650   -4.4270   -0.8550 c3        1 CE3     -0.152100
     28 C12        -0.0220   -2.0540    3.0490 c         1 CE3      0.926800
     29 O5          1.1750   -2.2040    2.6190 o         1 CE3     -0.794800
     30 O6         -0.5950   -2.8740    3.7930 o         1 CE3     -0.794800
     31 HC          0.1460    2.0950    1.1270 h2        1 CE3      0.124700
     32 H1          2.3500    1.1280    0.5210 hx        1 CE3      0.139700
     33 H21        -3.2390   -0.3450    0.2320 h1        1 CE3      0.110200
     34 H22        -2.8340    0.9680    1.4290 h1        1 CE3      0.110200
     35 HN1         1.5920   -1.6440    0.9060 hn        1 CE3      0.511300
     36 H81         4.3810   -1.1750   -5.0330 h1        1 CE3      0.064033
     37 H82         5.1320   -2.7580   -4.4530 h1        1 CE3      0.064033
     38 H83         3.4210   -2.7500   -5.1300 h1        1 CE3      0.064033
     39 H41         0.1720   -4.8610    2.7910 hn        1 CE3      0.427800
     40 H42        -0.8000   -4.4540    1.5210 hn        1 CE3      0.427800
     41 H13         4.5260   -4.4930    0.0310 h4        1 CE3      0.187000
     42 H91        -2.6180   -2.6300    3.0730 h1        1 CE3      0.099200
     43 H92        -3.9180   -1.8270    2.0230 h1        1 CE3      0.099200
     44 H111       -2.0090   -4.8960   -0.5160 hc        1 CE3      0.078367
     45 H112       -2.8720   -4.1080   -1.9210 hc        1 CE3      0.078367
     46 H113       -3.7930   -5.1730   -0.7650 hc        1 CE3      0.078367
     47 H12         0.7550   -0.9800   -0.4070 hn        1 CE3      0.511300
@<TRIPOS>BOND
     1    1    2 1   
     2    1    3 1   
     3    1    7 1   
     4    1   31 1   
     5    2    8 1   
     6    2   10 1   
     7    2   32 1   
     8    3    4 1   
     9    4    5 1   
    10    4   33 1   
    11    4   34 1   
    12    5    6 2   
    13    5   23 1   
    14    6    7 1   
    15    6   28 1   
    16    7    8 1   
    17    8    9 2   
    18   10   11 1   
    19   10   35 1   
    20   10   47 1   
    21   11   12 2   
    22   11   13 1   
    23   13   14 2   
    24   13   17 1   
    25   14   15 1   
    26   15   16 1   
    27   16   36 1   
    28   16   37 1   
    29   16   38 1   
    30   17   18 1   
    31   17   22 2   
    32   18   19 2   
    33   19   20 1   
    34   19   21 1   
    35   20   39 1   
    36   20   40 1   
    37   21   22 1   
    38   22   41 1   
    39   23   24 1   
    40   23   42 1   
    41   23   43 1   
    42   24   25 1   
    43   25   26 2   
    44   25   27 1   
    45   27   44 1   
    46   27   45 1   
    47   27   46 1   
    48   28   29 1   
    49   28   30 1   
@<TRIPOS>SUBSTRUCTURE
     1 CE3         1 TEMP              0 ****  ****    0 ROOT
