@<TRIPOS>MOLECULE
CE3
   47    49     1     0     0
SMALL
bcc


@<TRIPOS>ATOM
      1 C          -0.5130    0.8110   -0.3340 cy        1 CE3      0.060800
      2 C1          0.8310    0.3410   -1.0040 cy        1 CE3     -0.023500
      3 S          -1.9110   -0.2570   -0.3320 ss        1 CE3     -0.320200
      4 C2         -2.3700   -0.1390    1.4010 c3        1 CE3      0.057900
      5 C3         -1.2010   -0.4410    2.2480 c2        1 CE3     -0.175400
      6 C4          0.0290    0.0570    1.9500 ce        1 CE3     -0.097600
      7 N           0.2160    1.0550    0.9540 n         1 CE3     -0.255000
      8 C5          1.5090    0.9870    0.2670 c         1 CE3      0.704500
      9 O           2.6170    1.4320    0.4620 o         1 CE3     -0.446500
     10 N1          1.0040   -1.1260   -1.0070 ny        1 CE3     -0.686800
     11 C6          2.0000   -1.6390   -1.9930 c         1 CE3      0.494800
     12 O2          2.2310   -1.0120   -3.0150 o         1 CE3     -0.434100
     13 C7          2.5940   -2.9480   -1.5580 ce        1 CE3      0.239300
     14 N2          3.6130   -3.0660   -0.7410 n2        1 CE3     -0.304200
     15 O1          4.1740   -1.9500   -0.3670 os        1 CE3     -0.182300
     16 C8          4.8540   -1.9960    0.9250 c3        1 CE3      0.125700
     17 C14         1.8960   -4.1120   -2.1100 cc        1 CE3      0.325000
     18 N3          0.5760   -3.9660   -2.5400 nc        1 CE3     -0.738000
     19 C15         0.1240   -5.1560   -2.9890 cd        1 CE3      0.635300
     20 N4         -1.1780   -5.4370   -3.3810 nv        1 CE3     -0.895500
     21 S1          1.3170   -6.4370   -2.8920 ss        1 CE3     -0.075300
     22 C13         2.4370   -5.3810   -2.2510 cd        1 CE3     -0.213400
     23 C9         -1.4200   -1.3350    3.4230 c3        1 CE3      0.175600
     24 O3         -1.5390   -2.7100    3.0260 os        1 CE3     -0.428900
     25 C10        -2.7800   -3.2520    2.8660 c         1 CE3      0.631100
     26 O4         -3.7740   -2.5290    2.9750 o         1 CE3     -0.564000
     27 C11        -2.7370   -4.7130    2.5740 c3        1 CE3     -0.151100
     28 C12         1.3100   -0.5990    2.4940 c         1 CE3      0.931800
     29 O5          2.0370   -1.1270    1.5770 o         1 CE3     -0.781300
     30 O6          1.5690   -0.6230    3.7070 o         1 CE3     -0.781300
     31 HC         -0.8210    1.8010   -0.7640 h2        1 CE3      0.122700
     32 H1          1.0730    0.7920   -1.9950 hx        1 CE3      0.135700
     33 H21        -3.1970   -0.8810    1.5500 h1        1 CE3      0.106700
     34 H22        -2.7690    0.8870    1.5940 h1        1 CE3      0.106700
     35 HN1         0.0860   -1.5720   -1.1840 hn        1 CE3      0.505300
     36 H81         5.5280   -2.8790    0.9930 h1        1 CE3      0.078367
     37 H82         5.4280   -1.0370    0.8990 h1        1 CE3      0.078367
     38 H83         4.0770   -1.9840    1.7330 h1        1 CE3      0.078367
     39 H41        -1.2350   -6.0270   -4.1830 hn        1 CE3      0.411300
     40 H42        -1.7920   -4.6500   -3.4250 hn        1 CE3      0.411300
     41 H13         3.4540   -5.6650   -1.9760 h4        1 CE3      0.202000
     42 H91        -0.5180   -1.3420    4.1020 h1        1 CE3      0.099700
     43 H92        -2.3370   -1.0080    3.9820 h1        1 CE3      0.099700
     44 H111       -3.1450   -5.2650    3.4560 hc        1 CE3      0.075700
     45 H112       -1.6910   -5.0510    2.3790 hc        1 CE3      0.075700
     46 H113       -3.3750   -4.9260    1.6830 hc        1 CE3      0.075700
     47 H12         1.3240   -1.4160   -0.0160 hn        1 CE3      0.505300
@<TRIPOS>BOND
     1    1    2 1   
     2    1    3 1   
     3    1    7 1   
     4    1   31 1   
     5    2    8 1   
     6    2   10 1   
     7    2   32 1   
     8    3    4 1   
     9    4    5 1   
    10    4   33 1   
    11    4   34 1   
    12    5    6 2   
    13    5   23 1   
    14    6    7 1   
    15    6   28 1   
    16    7    8 1   
    17    8    9 2   
    18   10   11 1   
    19   10   35 1   
    20   10   47 1   
    21   11   12 2   
    22   11   13 1   
    23   13   14 2   
    24   13   17 1   
    25   14   15 1   
    26   15   16 1   
    27   16   36 1   
    28   16   37 1   
    29   16   38 1   
    30   17   18 1   
    31   17   22 2   
    32   18   19 2   
    33   19   20 1   
    34   19   21 1   
    35   20   39 1   
    36   20   40 1   
    37   21   22 1   
    38   22   41 1   
    39   23   24 1   
    40   23   42 1   
    41   23   43 1   
    42   24   25 1   
    43   25   26 2   
    44   25   27 1   
    45   27   44 1   
    46   27   45 1   
    47   27   46 1   
    48   28   29 1   
    49   28   30 1   
@<TRIPOS>SUBSTRUCTURE
     1 CE3         1 TEMP              0 ****  ****    0 ROOT
