@<TRIPOS>MOLECULE
CE9
  102   101     1     0     0
SMALL
bcc


@<TRIPOS>ATOM
      1 C1        -10.4900   -0.4340    7.4010 c3        1 CE9     -0.092100
      2 C2         -9.1900   -1.1910    7.0470 c3        1 CE9     -0.080400
      3 C3         -7.9890   -0.5720    7.8350 c3        1 CE9     -0.079400
      4 C4         -6.6740   -0.8690    7.0830 c3        1 CE9     -0.079400
      5 C5         -5.4980   -0.0980    7.7630 c3        1 CE9     -0.078400
      6 C6         -4.3110   -0.0410    6.8100 c3        1 CE9     -0.079400
      7 C7         -3.3770    1.1210    7.2180 c3        1 CE9     -0.079400
      8 C8         -2.3580    1.3730    6.0920 c3        1 CE9     -0.077400
      9 C9         -1.5600    2.6580    6.3980 c3        1 CE9     -0.077400
     10 C10        -1.4850    3.5420    5.1180 c3        1 CE9     -0.079400
     11 C11        -0.1980    4.4070    5.1590 c3        1 CE9     -0.079400
     12 C12        -0.4000    5.6770    4.2920 c3        1 CE9      0.131400
     13 O13        -0.6940    5.2900    2.9330 os        1 CE9     -0.427600
     14 C14        -0.3370    6.2720    1.9630 c3        1 CE9      0.125400
     15 C15        -0.4380    5.6620    0.5550 c3        1 CE9      0.121400
     16 O16        -0.9350    6.6360   -0.3470 os        1 CE9     -0.420600
     17 C17        -1.7650    6.1060   -1.3620 c3        1 CE9      0.128400
     18 C18        -1.3950    6.7380   -2.7060 c3        1 CE9      0.095400
     19 O19        -1.2090    5.7050   -3.6850 os        1 CE9     -0.426600
     20 C20        -1.3100    6.1660   -5.0480 c3        1 CE9      0.127400
     21 C21        -1.7140    5.0160   -5.9380 c3        1 CE9      0.122400
     22 O22        -0.6030    4.1250   -6.1010 os        1 CE9     -0.422600
     23 C23        -0.5360    3.5060   -7.3970 c3        1 CE9      0.128400
     24 C24        -0.4580    1.9680   -7.2300 c3        1 CE9      0.099400
     25 O25         0.8930    1.5150   -7.5300 os        1 CE9     -0.430600
     26 C26         1.0060    0.0940   -7.7010 c3        1 CE9      0.129400
     27 C27         2.4820   -0.3090   -7.6820 c3        1 CE9      0.128400
     28 O28         2.6070   -1.6330   -7.1680 os        1 CE9     -0.428600
     29 C29         3.9120   -1.9390   -6.6640 c3        1 CE9      0.128400
     30 C30         4.0550   -3.4470   -6.5010 c3        1 CE9      0.128400
     31 O31         5.0500   -3.7230   -5.5250 os        1 CE9     -0.429600
     32 C32         5.5890   -5.0290   -5.6090 c3        1 CE9      0.128400
     33 C33         6.5300   -5.2830   -4.3890 c3        1 CE9      0.130400
     34 O34         6.5950   -6.7060   -4.1170 os        1 CE9     -0.430600
     35 C35         7.5200   -7.0640   -3.0380 c3        1 CE9      0.130400
     36 C36         7.1190   -8.4320   -2.4480 c3        1 CE9      0.130400
     37 O37         7.3890   -8.4430   -1.0230 os        1 CE9     -0.431600
     38 C38         7.4670   -9.7750   -0.4470 c3        1 CE9      0.129400
     39 C39         7.7910   -9.6670    1.0710 c3        1 CE9      0.127400
     40 OXT         7.9600  -10.9900    1.6210 oh        1 CE9     -0.602800
     41 H11       -11.2560   -0.8870    6.9820 hc        1 CE9      0.032367
     42 H12       -10.6080   -0.4250    8.3720 hc        1 CE9      0.032367
     43 H13       -10.4330    0.4880    7.0690 hc        1 CE9      0.032367
     44 H21        -9.2870   -2.1440    7.2900 hc        1 CE9      0.038700
     45 H22        -9.0210   -1.1170    6.0870 hc        1 CE9      0.038700
     46 H31        -8.1110    0.3960    7.9090 hc        1 CE9      0.039200
     47 H32        -7.9480   -0.9680    8.7360 hc        1 CE9      0.039200
     48 H41        -6.7580   -0.5800    6.1550 hc        1 CE9      0.039200
     49 H42        -6.4930   -1.8300    7.1100 hc        1 CE9      0.039200
     50 H51        -5.2350   -0.5630    8.5850 hc        1 CE9      0.039200
     51 H52        -5.7860    0.8120    7.9810 hc        1 CE9      0.039200
     52 H61        -4.6300    0.1040    5.9030 hc        1 CE9      0.039200
     53 H62        -3.8190   -0.8840    6.8510 hc        1 CE9      0.039200
     54 H71        -3.9070    1.9300    7.3660 hc        1 CE9      0.039700
     55 H72        -2.9010    0.8850    8.0440 hc        1 CE9      0.039700
     56 H81        -1.7460    0.6160    6.0330 hc        1 CE9      0.040200
     57 H82        -2.8310    1.4770    5.2430 hc        1 CE9      0.040200
     58 H91        -0.6570    2.4190    6.6830 hc        1 CE9      0.037700
     59 H92        -2.0080    3.1570    7.1140 hc        1 CE9      0.037700
     60 H101       -2.2700    4.1270    5.0800 hc        1 CE9      0.047200
     61 H102       -1.4660    2.9630    4.3190 hc        1 CE9      0.047200
     62 H111       -0.0120    4.6690    6.0780 hc        1 CE9      0.049700
     63 H112        0.5550    3.8890    4.8080 hc        1 CE9      0.049700
     64 H121        0.4140    6.2140    4.3080 h1        1 CE9      0.026200
     65 H122       -1.1490    6.2050    4.6520 h1        1 CE9      0.026200
     66 H141        0.5830    6.5710    2.1250 h1        1 CE9      0.042200
     67 H142       -0.9520    7.0420    2.0330 h1        1 CE9      0.042200
     68 H151        0.4490    5.3700    0.2620 h1        1 CE9      0.045200
     69 H152       -1.0400    4.9000    0.5740 h1        1 CE9      0.045200
     70 H171       -1.6410    5.1330   -1.4130 h1        1 CE9      0.062200
     71 H172       -2.6990    6.3050   -1.1560 h1        1 CE9      0.062200
     72 H181       -0.5680    7.2480   -2.6080 h1        1 CE9      0.034200
     73 H182       -2.1080    7.3300   -2.9910 h1        1 CE9      0.034200
     74 H201       -1.9770    6.8670   -5.1040 h1        1 CE9      0.044700
     75 H202       -0.4430    6.5160   -5.3400 h1        1 CE9      0.044700
     76 H211       -1.9860    5.3600   -6.8080 h1        1 CE9      0.045700
     77 H212       -2.4610    4.5360   -5.5300 h1        1 CE9      0.045700
     78 H231       -1.3370    3.7390   -7.9120 h1        1 CE9      0.060200
     79 H232        0.2520    3.8210   -7.8650 h1        1 CE9      0.060200
     80 H241       -1.0830    1.5450   -7.8390 h1        1 CE9      0.040200
     81 H242       -0.6860    1.7280   -6.3090 h1        1 CE9      0.040200
     82 H261        0.5320   -0.3630   -6.9700 h1        1 CE9      0.042200
     83 H262        0.6090   -0.1640   -8.5560 h1        1 CE9      0.042200
     84 H271        2.9830    0.3100   -7.1130 h1        1 CE9      0.041200
     85 H272        2.8410   -0.2780   -8.5920 h1        1 CE9      0.041200
     86 H291        4.0380   -1.5000   -5.7910 h1        1 CE9      0.044700
     87 H292        4.5880   -1.6140   -7.2930 h1        1 CE9      0.044700
     88 H301        4.3150   -3.8420   -7.3510 h1        1 CE9      0.045700
     89 H302        3.2020   -3.8260   -6.2130 h1        1 CE9      0.045700
     90 H321        4.8540   -5.6890   -5.6020 h1        1 CE9      0.041700
     91 H322        6.1040   -5.1180   -6.4460 h1        1 CE9      0.041700
     92 H331        6.1810   -4.8190   -3.6080 h1        1 CE9      0.042700
     93 H332        7.4260   -4.9490   -4.5940 h1        1 CE9      0.042700
     94 H351        7.4820   -6.3880   -2.3420 h1        1 CE9      0.041700
     95 H352        8.4450   -7.1170   -3.3980 h1        1 CE9      0.041700
     96 H361        7.6400   -9.1450   -2.8870 h1        1 CE9      0.042700
     97 H362        6.1690   -8.5840   -2.5990 h1        1 CE9      0.042700
     98 H381        6.6060  -10.2350   -0.5660 h1        1 CE9      0.042700
     99 H382        8.1690  -10.2810   -0.8920 h1        1 CE9      0.042700
    100 H391        7.0470   -9.2100    1.5340 h1        1 CE9      0.035700
    101 H392        8.6180   -9.1530    1.1930 h1        1 CE9      0.035700
    102 HXT         8.1700  -10.9270    2.5050 ho        1 CE9      0.405000
@<TRIPOS>BOND
     1    1    2 1   
     2    1   41 1   
     3    1   42 1   
     4    1   43 1   
     5    2    3 1   
     6    2   44 1   
     7    2   45 1   
     8    3    4 1   
     9    3   46 1   
    10    3   47 1   
    11    4    5 1   
    12    4   48 1   
    13    4   49 1   
    14    5    6 1   
    15    5   50 1   
    16    5   51 1   
    17    6    7 1   
    18    6   52 1   
    19    6   53 1   
    20    7    8 1   
    21    7   54 1   
    22    7   55 1   
    23    8    9 1   
    24    8   56 1   
    25    8   57 1   
    26    9   10 1   
    27    9   58 1   
    28    9   59 1   
    29   10   11 1   
    30   10   60 1   
    31   10   61 1   
    32   11   12 1   
    33   11   62 1   
    34   11   63 1   
    35   12   13 1   
    36   12   64 1   
    37   12   65 1   
    38   13   14 1   
    39   14   15 1   
    40   14   66 1   
    41   14   67 1   
    42   15   16 1   
    43   15   68 1   
    44   15   69 1   
    45   16   17 1   
    46   17   18 1   
    47   17   70 1   
    48   17   71 1   
    49   18   19 1   
    50   18   72 1   
    51   18   73 1   
    52   19   20 1   
    53   20   21 1   
    54   20   74 1   
    55   20   75 1   
    56   21   22 1   
    57   21   76 1   
    58   21   77 1   
    59   22   23 1   
    60   23   24 1   
    61   23   78 1   
    62   23   79 1   
    63   24   25 1   
    64   24   80 1   
    65   24   81 1   
    66   25   26 1   
    67   26   27 1   
    68   26   82 1   
    69   26   83 1   
    70   27   28 1   
    71   27   84 1   
    72   27   85 1   
    73   28   29 1   
    74   29   30 1   
    75   29   86 1   
    76   29   87 1   
    77   30   31 1   
    78   30   88 1   
    79   30   89 1   
    80   31   32 1   
    81   32   33 1   
    82   32   90 1   
    83   32   91 1   
    84   33   34 1   
    85   33   92 1   
    86   33   93 1   
    87   34   35 1   
    88   35   36 1   
    89   35   94 1   
    90   35   95 1   
    91   36   37 1   
    92   36   96 1   
    93   36   97 1   
    94   37   38 1   
    95   38   39 1   
    96   38   98 1   
    97   38   99 1   
    98   39   40 1   
    99   39  100 1   
   100   39  101 1   
   101   40  102 1   
@<TRIPOS>SUBSTRUCTURE
     1 CE9         1 TEMP              0 ****  ****    0 ROOT
