@<TRIPOS>MOLECULE
CE9
  102   101     1     0     0
SMALL
bcc


@<TRIPOS>ATOM
      1 C1          0.7670   -0.3430   -0.3170 c3        1 CE9     -0.090100
      2 C2          2.2340   -0.0200   -0.2090 c3        1 CE9     -0.085400
      3 C3          2.6450    0.2340    1.2270 c3        1 CE9     -0.072400
      4 C4          4.1350    0.4800    1.3260 c3        1 CE9     -0.085400
      5 C5          4.5790    0.6320    2.7640 c3        1 CE9     -0.078400
      6 C6          6.0820    0.7930    2.8560 c3        1 CE9     -0.077400
      7 C7          6.5360    0.9490    4.2910 c3        1 CE9     -0.079400
      8 C8          8.0430    1.0630    4.3790 c3        1 CE9     -0.079400
      9 C9          8.4990    1.2530    5.8100 c3        1 CE9     -0.077400
     10 C10        10.0090    1.3170    5.8960 c3        1 CE9     -0.080400
     11 C11        10.4730    1.5490    7.3170 c3        1 CE9     -0.080400
     12 C12        11.9880    1.5330    7.4190 c3        1 CE9      0.130400
     13 O13        12.4020    0.1710    7.3220 os        1 CE9     -0.431600
     14 C14        13.8170    0.0370    7.2340 c3        1 CE9      0.093400
     15 C15        14.1250   -1.4560    7.1880 c3        1 CE9      0.131400
     16 O16        14.0980   -1.9600    5.8610 os        1 CE9     -0.426600
     17 C17        12.7750   -2.2060    5.3820 c3        1 CE9      0.121400
     18 C18        12.9310   -2.5850    3.9120 c3        1 CE9      0.128400
     19 O19        11.6620   -3.0930    3.5070 os        1 CE9     -0.429600
     20 C20        11.6460   -3.4610    2.1290 c3        1 CE9      0.128400
     21 C21        10.3030   -4.1420    1.8850 c3        1 CE9      0.126400
     22 O22        10.5910   -5.5010    1.5620 os        1 CE9     -0.427600
     23 C23         9.4180   -6.3090    1.5240 c3        1 CE9      0.126400
     24 C24         9.8420   -7.6630    0.9670 c3        1 CE9      0.128400
     25 O25         9.2900   -7.7520   -0.3460 os        1 CE9     -0.435600
     26 C26         9.7550   -8.9070   -1.0430 c3        1 CE9      0.128400
     27 C27         9.0650   -8.8750   -2.4020 c3        1 CE9      0.121400
     28 O28         9.2850  -10.1580   -2.9860 os        1 CE9     -0.424600
     29 C29         8.7030  -10.2900   -4.2750 c3        1 CE9      0.129400
     30 C30         7.1810  -10.3760   -4.2100 c3        1 CE9      0.092400
     31 O31         6.6830   -9.0480   -4.3610 os        1 CE9     -0.438600
     32 C32         5.2760   -8.9660   -4.1440 c3        1 CE9      0.094400
     33 C33         4.8670   -7.5120   -4.3630 c3        1 CE9      0.129400
     34 O34         5.0590   -6.7370   -3.1900 os        1 CE9     -0.423600
     35 C35         6.3870   -6.2260   -3.0580 c3        1 CE9      0.118400
     36 C36         6.5420   -5.7740   -1.6110 c3        1 CE9      0.119400
     37 O37         6.4930   -4.3470   -1.6260 os        1 CE9     -0.436600
     38 C38         6.5980   -3.7840   -0.3220 c3        1 CE9      0.087400
     39 C39         6.3570   -2.2870   -0.4880 c3        1 CE9      0.130400
     40 OXT         5.0270   -2.0140   -0.8770 oh        1 CE9     -0.603800
     41 H11         0.5220   -1.2640    0.2660 hc        1 CE9      0.029367
     42 H12         0.4850   -0.5160   -1.3840 hc        1 CE9      0.029367
     43 H13         0.1460    0.4970    0.0790 hc        1 CE9      0.029367
     44 H21         2.8450   -0.8680   -0.6230 hc        1 CE9      0.046200
     45 H22         2.4680    0.8860   -0.8280 hc        1 CE9      0.046200
     46 H31         2.3670   -0.6510    1.8570 hc        1 CE9      0.034200
     47 H32         2.0850    1.1180    1.6320 hc        1 CE9      0.034200
     48 H41         4.6840   -0.3760    0.8460 hc        1 CE9      0.047200
     49 H42         4.4010    1.4060    0.7500 hc        1 CE9      0.047200
     50 H51         4.2630   -0.2690    3.3540 hc        1 CE9      0.037200
     51 H52         4.0750    1.5220    3.2240 hc        1 CE9      0.037200
     52 H61         6.4010    1.6890    2.2610 hc        1 CE9      0.036700
     53 H62         6.5820   -0.1020    2.3970 hc        1 CE9      0.036700
     54 H71         6.1900    0.0680    4.8930 hc        1 CE9      0.039700
     55 H72         6.0610    1.8610    4.7380 hc        1 CE9      0.039700
     56 H81         8.3910    1.9280    3.7560 hc        1 CE9      0.040200
     57 H82         8.5150    0.1380    3.9550 hc        1 CE9      0.040200
     58 H91         8.0570    2.1970    6.2240 hc        1 CE9      0.039200
     59 H92         8.1230    0.4060    6.4410 hc        1 CE9      0.039200
     60 H101       10.3890    2.1400    5.2350 hc        1 CE9      0.045200
     61 H102       10.4520    0.3560    5.5190 hc        1 CE9      0.045200
     62 H111       10.0500    0.7550    7.9870 hc        1 CE9      0.051700
     63 H112       10.1050    2.5420    7.6840 hc        1 CE9      0.051700
     64 H121       12.3250    1.9460    8.4070 h1        1 CE9      0.026700
     65 H122       12.4540    2.1340    6.5930 h1        1 CE9      0.026700
     66 H141       14.1900    0.5470    6.3070 h1        1 CE9      0.037700
     67 H142       14.2970    0.5010    8.1360 h1        1 CE9      0.037700
     68 H151       13.4150   -2.0220    7.8460 h1        1 CE9      0.060200
     69 H152       15.1850   -1.6280    7.5180 h1        1 CE9      0.060200
     70 H171       12.3170   -3.0500    5.9620 h1        1 CE9      0.052700
     71 H172       12.1420   -1.2870    5.5000 h1        1 CE9      0.052700
     72 H181       13.7190   -3.3730    3.7870 h1        1 CE9      0.038700
     73 H182       13.2020   -1.6890    3.2950 h1        1 CE9      0.038700
     74 H201       11.7420   -2.5380    1.4990 h1        1 CE9      0.044700
     75 H202       12.4950   -4.1610    1.9030 h1        1 CE9      0.044700
     76 H211        9.6570   -4.0860    2.8020 h1        1 CE9      0.043200
     77 H212        9.7690   -3.6670    1.0200 h1        1 CE9      0.043200
     78 H231        9.0130   -6.4200    2.5640 h1        1 CE9      0.041700
     79 H232        8.6400   -5.8350    0.8660 h1        1 CE9      0.041700
     80 H241        9.4280   -8.4950    1.5960 h1        1 CE9      0.046700
     81 H242       10.9610   -7.7440    0.9250 h1        1 CE9      0.046700
     82 H261        9.4770   -9.8350   -0.4780 h1        1 CE9      0.041200
     83 H262       10.8700   -8.8630   -1.1580 h1        1 CE9      0.041200
     84 H271        7.9630   -8.6940   -2.2850 h1        1 CE9      0.047700
     85 H272        9.5020   -8.0760   -3.0560 h1        1 CE9      0.047700
     86 H291        9.1210  -11.2600   -4.6560 h1        1 CE9      0.062200
     87 H292        9.0180   -9.4410   -4.9380 h1        1 CE9      0.062200
     88 H301        6.7900  -11.0120   -5.0470 h1        1 CE9      0.041200
     89 H302        6.8510  -10.8050   -3.2270 h1        1 CE9      0.041200
     90 H321        5.0360   -9.2910   -3.0970 h1        1 CE9      0.039700
     91 H322        4.7440   -9.6300   -4.8760 h1        1 CE9      0.039700
     92 H331        3.7590   -7.4660   -4.5430 h1        1 CE9      0.059700
     93 H332        5.4200   -7.0750   -5.2340 h1        1 CE9      0.059700
     94 H351        7.1350   -7.0290   -3.2970 h1        1 CE9      0.054200
     95 H352        6.5150   -5.3650   -3.7660 h1        1 CE9      0.054200
     96 H361        5.7090   -6.1760   -0.9750 h1        1 CE9      0.052200
     97 H362        7.5310   -6.1120   -1.1980 h1        1 CE9      0.052200
     98 H381        7.6240   -3.9770    0.0910 h1        1 CE9      0.036200
     99 H382        5.8280   -4.2370    0.3560 h1        1 CE9      0.036200
    100 H391        6.4870   -1.7670    0.4990 h1        1 CE9      0.052200
    101 H392        7.0720   -1.8650   -1.2430 h1        1 CE9      0.052200
    102 HXT         4.8530   -2.5340   -1.6730 ho        1 CE9      0.417000
@<TRIPOS>BOND
     1    1    2 1   
     2    1   41 1   
     3    1   42 1   
     4    1   43 1   
     5    2    3 1   
     6    2   44 1   
     7    2   45 1   
     8    3    4 1   
     9    3   46 1   
    10    3   47 1   
    11    4    5 1   
    12    4   48 1   
    13    4   49 1   
    14    5    6 1   
    15    5   50 1   
    16    5   51 1   
    17    6    7 1   
    18    6   52 1   
    19    6   53 1   
    20    7    8 1   
    21    7   54 1   
    22    7   55 1   
    23    8    9 1   
    24    8   56 1   
    25    8   57 1   
    26    9   10 1   
    27    9   58 1   
    28    9   59 1   
    29   10   11 1   
    30   10   60 1   
    31   10   61 1   
    32   11   12 1   
    33   11   62 1   
    34   11   63 1   
    35   12   13 1   
    36   12   64 1   
    37   12   65 1   
    38   13   14 1   
    39   14   15 1   
    40   14   66 1   
    41   14   67 1   
    42   15   16 1   
    43   15   68 1   
    44   15   69 1   
    45   16   17 1   
    46   17   18 1   
    47   17   70 1   
    48   17   71 1   
    49   18   19 1   
    50   18   72 1   
    51   18   73 1   
    52   19   20 1   
    53   20   21 1   
    54   20   74 1   
    55   20   75 1   
    56   21   22 1   
    57   21   76 1   
    58   21   77 1   
    59   22   23 1   
    60   23   24 1   
    61   23   78 1   
    62   23   79 1   
    63   24   25 1   
    64   24   80 1   
    65   24   81 1   
    66   25   26 1   
    67   26   27 1   
    68   26   82 1   
    69   26   83 1   
    70   27   28 1   
    71   27   84 1   
    72   27   85 1   
    73   28   29 1   
    74   29   30 1   
    75   29   86 1   
    76   29   87 1   
    77   30   31 1   
    78   30   88 1   
    79   30   89 1   
    80   31   32 1   
    81   32   33 1   
    82   32   90 1   
    83   32   91 1   
    84   33   34 1   
    85   33   92 1   
    86   33   93 1   
    87   34   35 1   
    88   35   36 1   
    89   35   94 1   
    90   35   95 1   
    91   36   37 1   
    92   36   96 1   
    93   36   97 1   
    94   37   38 1   
    95   38   39 1   
    96   38   98 1   
    97   38   99 1   
    98   39   40 1   
    99   39  100 1   
   100   39  101 1   
   101   40  102 1   
@<TRIPOS>SUBSTRUCTURE
     1 CE9         1 TEMP              0 ****  ****    0 ROOT
