@<TRIPOS>MOLECULE
CE9
  102   101     1     0     0
SMALL
bcc


@<TRIPOS>ATOM
      1 C1          4.1940    9.9250    1.4250 c3        1 CE9     -0.089100
      2 C2          4.9780    8.7990    2.0470 c3        1 CE9     -0.088400
      3 C3          5.1310    8.9860    3.5410 c3        1 CE9     -0.074400
      4 C4          5.8810    7.8280    4.1640 c3        1 CE9     -0.082400
      5 C5          6.0070    7.9970    5.6620 c3        1 CE9     -0.078400
      6 C6          6.8010    6.8670    6.2820 c3        1 CE9     -0.078400
      7 C7          6.9450    7.0550    7.7770 c3        1 CE9     -0.079400
      8 C8          7.7790    5.9530    8.3950 c3        1 CE9     -0.079400
      9 C9          7.9460    6.1620    9.8850 c3        1 CE9     -0.077400
     10 C10         8.8040    5.0770   10.4990 c3        1 CE9     -0.080400
     11 C11         8.9990    5.3070   11.9820 c3        1 CE9     -0.080400
     12 C12         9.8240    4.2030   12.6180 c3        1 CE9      0.130400
     13 O13         8.9820    3.0550   12.7250 os        1 CE9     -0.430600
     14 C14         9.6780    1.9150   13.2210 c3        1 CE9      0.093400
     15 C15         8.6740    0.7670   13.2710 c3        1 CE9      0.131400
     16 O16         8.6520    0.0340   12.0570 os        1 CE9     -0.427600
     17 C17         7.9200    0.6880   11.0200 c3        1 CE9      0.121400
     18 C18         8.1700   -0.1280    9.7560 c3        1 CE9      0.128400
     19 O19         7.6350    0.6450    8.6840 os        1 CE9     -0.428600
     20 C20         7.7910   -0.0040    7.4240 c3        1 CE9      0.128400
     21 C21         7.0580    0.8600    6.4030 c3        1 CE9      0.127400
     22 O22         5.8650    0.1580    6.0580 os        1 CE9     -0.427600
     23 C23         4.9580    0.9670    5.3130 c3        1 CE9      0.120400
     24 C24         3.8210    0.0530    4.8720 c3        1 CE9      0.126400
     25 O25         4.0360   -0.2330    3.4910 os        1 CE9     -0.434600
     26 C26         3.1060   -1.1940    2.9930 c3        1 CE9      0.128400
     27 C27         3.5390   -1.5050    1.5630 c3        1 CE9      0.117400
     28 O28         2.5010   -2.3240    1.0240 os        1 CE9     -0.429600
     29 C29         2.6930   -2.6510   -0.3440 c3        1 CE9      0.128400
     30 C30         2.3600   -1.4740   -1.2560 c3        1 CE9      0.095400
     31 O31         3.5830   -0.7920   -1.5180 os        1 CE9     -0.429600
     32 C32         3.4160    0.5880   -1.8250 c3        1 CE9      0.129400
     33 C33         4.7570    1.2610   -1.5510 c3        1 CE9      0.124400
     34 O34         4.8250    1.4590   -0.1420 os        1 CE9     -0.428600
     35 C35         6.0990    1.9330    0.2880 c3        1 CE9      0.096400
     36 C36         6.1240    1.8120    1.8090 c3        1 CE9      0.119400
     37 O37         5.6240    2.9840    2.4390 os        1 CE9     -0.441600
     38 C38         4.1970    3.0630    2.4280 c3        1 CE9      0.076400
     39 C39         3.8430    4.4290    3.0040 c3        1 CE9      0.129400
     40 OXT         4.2610    5.4790    2.1560 oh        1 CE9     -0.604800
     41 H11         4.7010   10.9050    1.6010 hc        1 CE9      0.030033
     42 H12         4.0990    9.7700    0.3230 hc        1 CE9      0.030033
     43 H13         3.1680    9.9790    1.8630 hc        1 CE9      0.030033
     44 H21         4.4630    7.8190    1.8470 hc        1 CE9      0.047200
     45 H22         5.9940    8.7410    1.5730 hc        1 CE9      0.047200
     46 H31         4.1170    9.0740    4.0130 hc        1 CE9      0.036200
     47 H32         5.6770    9.9450    3.7480 hc        1 CE9      0.036200
     48 H41         6.9020    7.7530    3.7060 hc        1 CE9      0.041700
     49 H42         5.3430    6.8680    3.9320 hc        1 CE9      0.041700
     50 H51         6.5080    8.9750    5.8880 hc        1 CE9      0.038200
     51 H52         4.9850    8.0360    6.1240 hc        1 CE9      0.038200
     52 H61         7.8170    6.8190    5.8090 hc        1 CE9      0.038700
     53 H62         6.2930    5.8900    6.0720 hc        1 CE9      0.038700
     54 H71         5.9300    7.0710    8.2540 hc        1 CE9      0.039200
     55 H72         7.4230    8.0490    7.9860 hc        1 CE9      0.039200
     56 H81         8.7880    5.9250    7.9040 hc        1 CE9      0.040700
     57 H82         7.2930    4.9600    8.2060 hc        1 CE9      0.040700
     58 H91         8.4150    7.1640   10.0730 hc        1 CE9      0.038200
     59 H92         6.9390    6.1700   10.3780 hc        1 CE9      0.038200
     60 H101        9.8010    5.0510    9.9870 hc        1 CE9      0.047200
     61 H102        8.3230    4.0750   10.3430 hc        1 CE9      0.047200
     62 H111        8.0000    5.3610   12.4900 hc        1 CE9      0.050700
     63 H112        9.5250    6.2820   12.1530 hc        1 CE9      0.050700
     64 H121       10.1660    4.5030   13.6450 h1        1 CE9      0.026700
     65 H122       10.7230    3.9570   11.9910 h1        1 CE9      0.026700
     66 H141       10.5340    1.6630   12.5410 h1        1 CE9      0.037700
     67 H142       10.0690    2.1340   14.2500 h1        1 CE9      0.037700
     68 H151        7.6520    1.1520   13.5240 h1        1 CE9      0.060200
     69 H152        9.0080    0.0120   14.0330 h1        1 CE9      0.060200
     70 H171        6.8290    0.6960   11.2810 h1        1 CE9      0.051700
     71 H172        8.2790    1.7450   10.8950 h1        1 CE9      0.051700
     72 H181        7.6530   -1.1210    9.8110 h1        1 CE9      0.038200
     73 H182        9.2690   -0.2910    9.6000 h1        1 CE9      0.038200
     74 H201        8.8830   -0.0660    7.1730 h1        1 CE9      0.043700
     75 H202        7.3530   -1.0370    7.4610 h1        1 CE9      0.043700
     76 H211        7.6820    0.9930    5.4800 h1        1 CE9      0.044700
     77 H212        6.8100    1.8640    6.8380 h1        1 CE9      0.044700
     78 H231        4.5650    1.7840    5.9740 h1        1 CE9      0.048200
     79 H232        5.4770    1.4200    4.4230 h1        1 CE9      0.048200
     80 H241        2.8340    0.5750    4.9880 h1        1 CE9      0.044200
     81 H242        3.8180   -0.8970    5.4700 h1        1 CE9      0.044200
     82 H261        3.1290   -2.1200    3.6240 h1        1 CE9      0.038700
     83 H262        2.0710   -0.7610    3.0100 h1        1 CE9      0.038700
     84 H271        4.5080   -2.0700    1.5550 h1        1 CE9      0.054700
     85 H272        3.6550   -0.5670    0.9560 h1        1 CE9      0.054700
     86 H291        3.7430   -3.0020   -0.5260 h1        1 CE9      0.060700
     87 H292        1.9650   -3.4870   -0.5220 h1        1 CE9      0.060700
     88 H301        1.6120   -0.8000   -0.7610 h1        1 CE9      0.042700
     89 H302        1.9460   -1.8390   -2.2330 h1        1 CE9      0.042700
     90 H321        3.1510    0.6880   -2.9100 h1        1 CE9      0.042700
     91 H322        2.6140    1.0490   -1.1910 h1        1 CE9      0.042700
     92 H331        4.8010    2.2540   -2.0710 h1        1 CE9      0.041200
     93 H332        5.6040    0.6110   -1.8950 h1        1 CE9      0.041200
     94 H351        6.9160    1.3060   -0.1580 h1        1 CE9      0.038700
     95 H352        6.2240    3.0000   -0.0350 h1        1 CE9      0.038700
     96 H361        7.1880    1.7510    2.1630 h1        1 CE9      0.073200
     97 H362        5.5450    0.9070    2.1390 h1        1 CE9      0.073200
     98 H381        3.8230    2.9590    1.3750 h1        1 CE9      0.056200
     99 H382        3.7770    2.2360    3.0610 h1        1 CE9      0.056200
    100 H391        4.3060    4.5530    4.0200 h1        1 CE9      0.049700
    101 H392        2.7280    4.5350    3.0740 h1        1 CE9      0.049700
    102 HXT         5.2080    5.3590    2.0050 ho        1 CE9      0.412000
@<TRIPOS>BOND
     1    1    2 1   
     2    1   41 1   
     3    1   42 1   
     4    1   43 1   
     5    2    3 1   
     6    2   44 1   
     7    2   45 1   
     8    3    4 1   
     9    3   46 1   
    10    3   47 1   
    11    4    5 1   
    12    4   48 1   
    13    4   49 1   
    14    5    6 1   
    15    5   50 1   
    16    5   51 1   
    17    6    7 1   
    18    6   52 1   
    19    6   53 1   
    20    7    8 1   
    21    7   54 1   
    22    7   55 1   
    23    8    9 1   
    24    8   56 1   
    25    8   57 1   
    26    9   10 1   
    27    9   58 1   
    28    9   59 1   
    29   10   11 1   
    30   10   60 1   
    31   10   61 1   
    32   11   12 1   
    33   11   62 1   
    34   11   63 1   
    35   12   13 1   
    36   12   64 1   
    37   12   65 1   
    38   13   14 1   
    39   14   15 1   
    40   14   66 1   
    41   14   67 1   
    42   15   16 1   
    43   15   68 1   
    44   15   69 1   
    45   16   17 1   
    46   17   18 1   
    47   17   70 1   
    48   17   71 1   
    49   18   19 1   
    50   18   72 1   
    51   18   73 1   
    52   19   20 1   
    53   20   21 1   
    54   20   74 1   
    55   20   75 1   
    56   21   22 1   
    57   21   76 1   
    58   21   77 1   
    59   22   23 1   
    60   23   24 1   
    61   23   78 1   
    62   23   79 1   
    63   24   25 1   
    64   24   80 1   
    65   24   81 1   
    66   25   26 1   
    67   26   27 1   
    68   26   82 1   
    69   26   83 1   
    70   27   28 1   
    71   27   84 1   
    72   27   85 1   
    73   28   29 1   
    74   29   30 1   
    75   29   86 1   
    76   29   87 1   
    77   30   31 1   
    78   30   88 1   
    79   30   89 1   
    80   31   32 1   
    81   32   33 1   
    82   32   90 1   
    83   32   91 1   
    84   33   34 1   
    85   33   92 1   
    86   33   93 1   
    87   34   35 1   
    88   35   36 1   
    89   35   94 1   
    90   35   95 1   
    91   36   37 1   
    92   36   96 1   
    93   36   97 1   
    94   37   38 1   
    95   38   39 1   
    96   38   98 1   
    97   38   99 1   
    98   39   40 1   
    99   39  100 1   
   100   39  101 1   
   101   40  102 1   
@<TRIPOS>SUBSTRUCTURE
     1 CE9         1 TEMP              0 ****  ****    0 ROOT
