@<TRIPOS>MOLECULE
CE9
  102   101     1     0     0
SMALL
bcc


@<TRIPOS>ATOM
      1 C1          0.5460   -0.7100   -0.1300 c3        1 CE9     -0.089100
      2 C2          2.0510   -0.7560   -0.0720 c3        1 CE9     -0.088400
      3 C3          2.5710   -0.2660    1.2620 c3        1 CE9     -0.074400
      4 C4          4.0810   -0.3590    1.3280 c3        1 CE9     -0.082400
      5 C5          4.6010    0.0990    2.6730 c3        1 CE9     -0.078400
      6 C6          6.1130    0.0570    2.7250 c3        1 CE9     -0.078400
      7 C7          6.6290    0.5410    4.0630 c3        1 CE9     -0.079400
      8 C8          8.1420    0.5460    4.1030 c3        1 CE9     -0.079400
      9 C9          8.6530    1.0600    5.4320 c3        1 CE9     -0.077400
     10 C10        10.1660    1.0940    5.4640 c3        1 CE9     -0.080400
     11 C11        10.6750    1.6420    6.7790 c3        1 CE9     -0.080400
     12 C12        12.1920    1.6430    6.8380 c3        1 CE9      0.130400
     13 O13        12.6060    0.2920    7.0370 os        1 CE9     -0.430600
     14 C14        14.0240    0.1490    7.0110 c3        1 CE9      0.093400
     15 C15        14.3270   -1.3310    7.2210 c3        1 CE9      0.131400
     16 O16        14.3860   -2.0370    5.9910 os        1 CE9     -0.427600
     17 C17        13.0970   -2.3310    5.4510 c3        1 CE9      0.121400
     18 C18        13.3500   -2.8990    4.0580 c3        1 CE9      0.128400
     19 O19        12.0710   -2.9740    3.4320 os        1 CE9     -0.428600
     20 C20        12.1500   -3.5050    2.1110 c3        1 CE9      0.128400
     21 C21        10.7130   -3.6570    1.6230 c3        1 CE9      0.127400
     22 O22        10.4250   -5.0530    1.6370 os        1 CE9     -0.427600
     23 C23         9.0360   -5.3200    1.4560 c3        1 CE9      0.120400
     24 C24         8.8970   -6.8330    1.3270 c3        1 CE9      0.126400
     25 O25         8.6980   -7.1090   -0.0590 os        1 CE9     -0.434600
     26 C26         8.6870   -8.5100   -0.3290 c3        1 CE9      0.128400
     27 C27         8.6120   -8.6510   -1.8460 c3        1 CE9      0.117400
     28 O28         8.4190  -10.0460   -2.0860 os        1 CE9     -0.429600
     29 C29         8.2440  -10.3640   -3.4580 c3        1 CE9      0.128400
     30 C30         6.8450   -9.9960   -3.9470 c3        1 CE9      0.095400
     31 O31         6.9360   -8.6990   -4.5290 os        1 CE9     -0.429600
     32 C32         5.7150   -7.9690   -4.4960 c3        1 CE9      0.129400
     33 C33         6.0830   -6.4950   -4.6380 c3        1 CE9      0.124400
     34 O34         6.5150   -6.0650   -3.3500 os        1 CE9     -0.428600
     35 C35         7.0500   -4.7440   -3.3600 c3        1 CE9      0.096400
     36 C36         7.7340   -4.5350   -2.0120 c3        1 CE9      0.119400
     37 O37         6.8350   -4.0200   -1.0400 os        1 CE9     -0.441600
     38 C38         5.9680   -5.0160   -0.4920 c3        1 CE9      0.076400
     39 C39         4.9900   -4.2760    0.4120 c3        1 CE9      0.129400
     40 OXT         4.1320   -3.4300   -0.3260 oh        1 CE9     -0.604800
     41 H11         0.1010   -1.3600    0.6620 hc        1 CE9      0.030033
     42 H12         0.1850   -1.0690   -1.1240 hc        1 CE9      0.030033
     43 H13         0.1750    0.3330    0.0250 hc        1 CE9      0.030033
     44 H21         2.4070   -1.8080   -0.2460 hc        1 CE9      0.047200
     45 H22         2.4780   -0.1220   -0.8940 hc        1 CE9      0.047200
     46 H31         2.1210   -0.8790    2.0870 hc        1 CE9      0.036200
     47 H32         2.2500    0.7960    1.4270 hc        1 CE9      0.036200
     48 H41         4.3970   -1.4210    1.1370 hc        1 CE9      0.041700
     49 H42         4.5310    0.2710    0.5160 hc        1 CE9      0.041700
     50 H51         4.1790   -0.5530    3.4820 hc        1 CE9      0.038200
     51 H52         4.2480    1.1450    2.8750 hc        1 CE9      0.038200
     52 H61         6.5350    0.6980    1.9050 hc        1 CE9      0.038700
     53 H62         6.4680   -0.9910    2.5390 hc        1 CE9      0.038700
     54 H71         6.2340   -0.1190    4.8790 hc        1 CE9      0.039200
     55 H72         6.2450    1.5760    4.2610 hc        1 CE9      0.039200
     56 H81         8.5380    1.1910    3.2740 hc        1 CE9      0.040700
     57 H82         8.5290   -0.4920    3.9270 hc        1 CE9      0.040700
     58 H91         8.2500    2.0910    5.6160 hc        1 CE9      0.038200
     59 H92         8.2740    0.4040    6.2590 hc        1 CE9      0.038200
     60 H101       10.5460    1.7270    4.6190 hc        1 CE9      0.047200
     61 H102       10.5750    0.0590    5.3140 hc        1 CE9      0.047200
     62 H111       10.2730    1.0260    7.6250 hc        1 CE9      0.050700
     63 H112       10.3170    2.6960    6.9200 hc        1 CE9      0.050700
     64 H121       12.5550    2.2680    7.6980 h1        1 CE9      0.026700
     65 H122       12.6340    2.0390    5.8850 h1        1 CE9      0.026700
     66 H141       14.4250    0.4990    6.0230 h1        1 CE9      0.037700
     67 H142       14.4770    0.7580    7.8370 h1        1 CE9      0.037700
     68 H151       13.5710   -1.7920    7.9090 h1        1 CE9      0.060200
     69 H152       15.3610   -1.4450    7.6440 h1        1 CE9      0.060200
     70 H171       12.5820   -3.0840    6.1020 h1        1 CE9      0.051700
     71 H172       12.4740   -1.3980    5.3980 h1        1 CE9      0.051700
     72 H181       13.8100   -3.9200    4.1200 h1        1 CE9      0.038200
     73 H182       14.0260   -2.2240    3.4700 h1        1 CE9      0.038200
     74 H201       12.7110   -2.7860    1.4570 h1        1 CE9      0.043700
     75 H202       12.6760   -4.4960    2.1200 h1        1 CE9      0.043700
     76 H211       10.0050   -3.1030    2.2960 h1        1 CE9      0.044700
     77 H212       10.6120   -3.2750    0.5730 h1        1 CE9      0.044700
     78 H231        8.4710   -4.9550    2.3550 h1        1 CE9      0.048200
     79 H232        8.6550   -4.8010    0.5340 h1        1 CE9      0.048200
     80 H241        8.0040   -7.1930    1.9030 h1        1 CE9      0.044200
     81 H242        9.8210   -7.3510    1.6970 h1        1 CE9      0.044200
     82 H261        7.7940   -8.9810    0.1600 h1        1 CE9      0.038700
     83 H262        9.6200   -8.9890    0.0670 h1        1 CE9      0.038700
     84 H271        7.7570   -8.0580   -2.2720 h1        1 CE9      0.054700
     85 H272        9.5680   -8.3150   -2.3250 h1        1 CE9      0.054700
     86 H291        8.3760  -11.4780   -3.4930 h1        1 CE9      0.060700
     87 H292        9.0230   -9.8590   -4.0870 h1        1 CE9      0.060700
     88 H301        6.5050  -10.7130   -4.7400 h1        1 CE9      0.042700
     89 H302        6.1200  -10.0120   -3.0910 h1        1 CE9      0.042700
     90 H321        5.1670   -8.1400   -3.5320 h1        1 CE9      0.042700
     91 H322        5.0770   -8.2890   -5.3620 h1        1 CE9      0.042700
     92 H331        5.1830   -5.9030   -4.9480 h1        1 CE9      0.041200
     93 H332        6.9060   -6.3640   -5.3880 h1        1 CE9      0.041200
     94 H351        7.7990   -4.6360   -4.1890 h1        1 CE9      0.038700
     95 H352        6.2160   -4.0090   -3.5090 h1        1 CE9      0.038700
     96 H361        8.1970   -5.4950   -1.6560 h1        1 CE9      0.073200
     97 H362        8.5140   -3.7320   -2.1080 h1        1 CE9      0.073200
     98 H381        6.5800   -5.7550    0.0930 h1        1 CE9      0.056200
     99 H382        5.4310   -5.5440   -1.3230 h1        1 CE9      0.056200
    100 H391        4.3100   -5.0110    0.9190 h1        1 CE9      0.049700
    101 H392        5.5480   -3.6760    1.1800 h1        1 CE9      0.049700
    102 HXT         4.6960   -2.8420   -0.8450 ho        1 CE9      0.412000
@<TRIPOS>BOND
     1    1    2 1   
     2    1   41 1   
     3    1   42 1   
     4    1   43 1   
     5    2    3 1   
     6    2   44 1   
     7    2   45 1   
     8    3    4 1   
     9    3   46 1   
    10    3   47 1   
    11    4    5 1   
    12    4   48 1   
    13    4   49 1   
    14    5    6 1   
    15    5   50 1   
    16    5   51 1   
    17    6    7 1   
    18    6   52 1   
    19    6   53 1   
    20    7    8 1   
    21    7   54 1   
    22    7   55 1   
    23    8    9 1   
    24    8   56 1   
    25    8   57 1   
    26    9   10 1   
    27    9   58 1   
    28    9   59 1   
    29   10   11 1   
    30   10   60 1   
    31   10   61 1   
    32   11   12 1   
    33   11   62 1   
    34   11   63 1   
    35   12   13 1   
    36   12   64 1   
    37   12   65 1   
    38   13   14 1   
    39   14   15 1   
    40   14   66 1   
    41   14   67 1   
    42   15   16 1   
    43   15   68 1   
    44   15   69 1   
    45   16   17 1   
    46   17   18 1   
    47   17   70 1   
    48   17   71 1   
    49   18   19 1   
    50   18   72 1   
    51   18   73 1   
    52   19   20 1   
    53   20   21 1   
    54   20   74 1   
    55   20   75 1   
    56   21   22 1   
    57   21   76 1   
    58   21   77 1   
    59   22   23 1   
    60   23   24 1   
    61   23   78 1   
    62   23   79 1   
    63   24   25 1   
    64   24   80 1   
    65   24   81 1   
    66   25   26 1   
    67   26   27 1   
    68   26   82 1   
    69   26   83 1   
    70   27   28 1   
    71   27   84 1   
    72   27   85 1   
    73   28   29 1   
    74   29   30 1   
    75   29   86 1   
    76   29   87 1   
    77   30   31 1   
    78   30   88 1   
    79   30   89 1   
    80   31   32 1   
    81   32   33 1   
    82   32   90 1   
    83   32   91 1   
    84   33   34 1   
    85   33   92 1   
    86   33   93 1   
    87   34   35 1   
    88   35   36 1   
    89   35   94 1   
    90   35   95 1   
    91   36   37 1   
    92   36   96 1   
    93   36   97 1   
    94   37   38 1   
    95   38   39 1   
    96   38   98 1   
    97   38   99 1   
    98   39   40 1   
    99   39  100 1   
   100   39  101 1   
   101   40  102 1   
@<TRIPOS>SUBSTRUCTURE
     1 CE9         1 TEMP              0 ****  ****    0 ROOT
