@<TRIPOS>MOLECULE
CEA
   14    13     1     0     0
SMALL
bcc


@<TRIPOS>ATOM
      1 N           1.8550    0.2220    0.3820 n3        1 CEA     -0.887800
      2 CA          0.4130    0.3810    0.5220 c3        1 CEA      0.022500
      3 CB         -0.3680   -0.1990   -0.6470 c3        1 CEA     -0.016300
      4 SG          0.0780    0.6280   -2.1460 ss        1 CEA     -0.063300
      5 O1         -1.2220    0.1570   -3.1610 oh        1 CEA     -0.541800
      6 C          -0.1820   -0.2310    1.8430 c         1 CEA      0.892600
      7 OXT        -1.4350   -0.2220    1.9740 o         1 CEA     -0.834300
      8 HN1         2.0580   -0.7550    0.2680 hn        1 CEA      0.334300
      9 HN2         2.2670    0.4930    1.2610 hn        1 CEA      0.334300
     10 HA          0.2120    1.4910    0.5720 h1        1 CEA      0.057700
     11 HB1        -0.1750   -1.2930   -0.7500 h1        1 CEA      0.073700
     12 HB2        -1.4590   -0.0590   -0.4320 h1        1 CEA      0.073700
     13 HO1        -0.9450   -0.6670   -3.5670 ho        1 CEA      0.390000
     14 O           0.6340   -0.6760    2.6970 o         1 CEA     -0.834300
@<TRIPOS>BOND
     1    1    2 1   
     2    1    8 1   
     3    1    9 1   
     4    2    3 1   
     5    2    6 1   
     6    2   10 1   
     7    3    4 1   
     8    3   11 1   
     9    3   12 1   
    10    4    5 1   
    11    5   13 1   
    12    6    7 1   
    13    6   14 1   
@<TRIPOS>SUBSTRUCTURE
     1 CEA         1 TEMP              0 ****  ****    0 ROOT
