@<TRIPOS>MOLECULE
CEA
   14    13     1     0     0
SMALL
bcc


@<TRIPOS>ATOM
      1 N          -1.8990    0.1600   -0.7380 n3        1 CEA     -0.886800
      2 CA         -0.4980    0.3210   -0.6150 c3        1 CEA      0.019500
      3 CB         -0.0980    0.1710    0.8400 c3        1 CEA     -0.019300
      4 SG          1.6320   -0.3020    0.9430 ss        1 CEA     -0.093300
      5 O1          2.1870    0.1150    2.2860 oh        1 CEA     -0.549800
      6 O           1.2140   -0.4290   -2.1420 o         1 CEA     -0.844300
      7 C           0.2140   -0.7400   -1.4520 c         1 CEA      0.889600
      8 OXT        -0.1860   -1.9310   -1.4290 o         1 CEA     -0.844300
      9 HN1        -2.1620    0.4260   -1.5650 hn        1 CEA      0.333300
     10 HN2        -2.3180    0.6650   -0.1110 hn        1 CEA      0.333300
     11 HA         -0.2450    1.2100   -0.9310 h1        1 CEA      0.058700
     12 HB1        -0.6520   -0.5230    1.2600 h1        1 CEA      0.068200
     13 HB2        -0.2310    1.0130    1.3000 h1        1 CEA      0.068200
     14 HO1         3.0420   -0.1560    2.3540 ho        1 CEA      0.469000
@<TRIPOS>BOND
     1    1    2 1   
     2    1    9 1   
     3    1   10 1   
     4    2    3 1   
     5    2    7 1   
     6    2   11 1   
     7    3    4 1   
     8    3   12 1   
     9    3   13 1   
    10    4    5 1   
    11    5   14 1   
    12    6    7 1   
    13    7    8 1   
@<TRIPOS>SUBSTRUCTURE
     1 CEA         1 TEMP              0 ****  ****    0 ROOT
