@<TRIPOS>MOLECULE
CEB
   32    32     1     0     0
SMALL
bcc


@<TRIPOS>ATOM
      1 N1          0.7740   -0.0780    2.2430 nb        1 CEB     -0.798000
      2 C2          1.4200   -0.1960    1.0520 ca        1 CEB      0.806000
      3 CL2         3.1440   -0.1830    1.1160 cl        1 CEB     -0.107000
      4 N3          0.8660   -0.3200   -0.1870 nb        1 CEB     -0.796000
      5 C4         -0.5280   -0.3220   -0.1910 ca        1 CEB      0.928900
      6 N5         -1.3170   -0.1810    0.9380 nb        1 CEB     -0.846000
      7 C6         -0.6210   -0.0870    2.1380 ca        1 CEB      0.937900
      8 N7         -1.2060   -0.5320   -1.3980 nh        1 CEB     -0.834900
      9 C8         -0.5670   -0.3400   -2.7040 c3        1 CEB      0.319300
     10 C9          0.2870    0.8620   -2.7290 c1        1 CEB      0.195700
     11 N9          0.9690    1.8020   -2.7470 n1        1 CEB     -0.352800
     12 C10        -1.6750   -0.1540   -3.7830 c3        1 CEB     -0.089400
     13 C11        -1.1180    0.0120   -5.1720 c3        1 CEB     -0.097100
     14 C12         0.2990   -1.5540   -3.0910 c3        1 CEB     -0.093100
     15 N13        -1.3760   -0.0250    3.2970 nh        1 CEB     -0.849900
     16 C14        -0.7820    0.2500    4.5820 c3        1 CEB      0.217800
     17 C15        -1.8110    0.3630    5.6950 c3        1 CEB     -0.114100
     18 HN7        -2.1840   -0.3240   -1.3790 hn        1 CEB      0.441800
     19 H101       -2.3490   -1.0520   -3.7590 hc        1 CEB      0.054700
     20 H102       -2.2920    0.7470   -3.5230 hc        1 CEB      0.054700
     21 H111       -1.9390    0.3070   -5.8700 hc        1 CEB      0.045700
     22 H112       -0.3310    0.8040   -5.2010 hc        1 CEB      0.045700
     23 H113       -0.6730   -0.9430   -5.5430 hc        1 CEB      0.045700
     24 H121       -0.3550   -2.4440   -3.2540 hc        1 CEB      0.059033
     25 H122        0.8460   -1.3220   -4.0370 hc        1 CEB      0.059033
     26 H123        1.0490   -1.7950   -2.3020 hc        1 CEB      0.059033
     27 HN3        -2.3620    0.0760    3.2060 hn        1 CEB      0.449800
     28 H141       -0.1860    1.2090    4.5320 h1        1 CEB      0.058700
     29 H142       -0.0590   -0.5830    4.8260 h1        1 CEB      0.058700
     30 H151       -1.2720    0.5630    6.6530 hc        1 CEB      0.046700
     31 H152       -2.5230    1.2030    5.5080 hc        1 CEB      0.046700
     32 H153       -2.3950   -0.5810    5.8070 hc        1 CEB      0.046700
@<TRIPOS>BOND
     1    1    2 ar  
     2    1    7 ar  
     3    2    3 1   
     4    2    4 ar  
     5    4    5 ar  
     6    5    6 ar  
     7    5    8 1   
     8    6    7 ar  
     9    7   15 1   
    10    8    9 1   
    11    8   18 1   
    12    9   10 1   
    13    9   12 1   
    14    9   14 1   
    15   10   11 3   
    16   12   13 1   
    17   12   19 1   
    18   12   20 1   
    19   13   21 1   
    20   13   22 1   
    21   13   23 1   
    22   14   24 1   
    23   14   25 1   
    24   14   26 1   
    25   15   16 1   
    26   15   27 1   
    27   16   17 1   
    28   16   28 1   
    29   16   29 1   
    30   17   30 1   
    31   17   31 1   
    32   17   32 1   
@<TRIPOS>SUBSTRUCTURE
     1 CEB         1 TEMP              0 ****  ****    0 ROOT
