@<TRIPOS>MOLECULE
CEB
   32    32     1     0     0
SMALL
bcc


@<TRIPOS>ATOM
      1 N1         -0.0790   -0.1310   -0.2590 nb        1 CEB     -0.798000
      2 C2          1.2800   -0.1390   -0.2180 ca        1 CEB      0.806000
      3 CL2         2.0870   -0.4110   -1.7180 cl        1 CEB     -0.107000
      4 N3          2.0820    0.0400    0.8700 nb        1 CEB     -0.796000
      5 C4          1.3890    0.2530    2.0600 ca        1 CEB      0.928900
      6 N5          0.0090    0.2590    2.1750 nb        1 CEB     -0.846000
      7 C6         -0.6850    0.0870    0.9830 ca        1 CEB      0.937900
      8 N7          2.1090    0.5370    3.2280 nh        1 CEB     -0.834900
      9 C8          3.5330    0.2220    3.3700 c3        1 CEB      0.319300
     10 C9          3.8670   -1.0970    2.7980 c1        1 CEB      0.195700
     11 N9          4.1340   -2.1290    2.3370 n1        1 CEB     -0.352800
     12 C10         3.8900    0.1820    4.8860 c3        1 CEB     -0.089400
     13 C11         5.3490   -0.0970    5.1360 c3        1 CEB     -0.097100
     14 C12         4.4160    1.2820    2.6830 c3        1 CEB     -0.093100
     15 N13        -2.0660    0.1670    1.0450 nh        1 CEB     -0.849900
     16 C14        -2.9010   -0.1660   -0.0830 c3        1 CEB      0.217800
     17 C15        -4.3850   -0.0960    0.2420 c3        1 CEB     -0.114100
     18 HN7         1.5830    0.4800    4.0760 hn        1 CEB      0.441800
     19 H101        3.2730   -0.6110    5.3860 hc        1 CEB      0.054700
     20 H102        3.6190    1.1710    5.3410 hc        1 CEB      0.054700
     21 H111        5.9820    0.7720    4.8320 hc        1 CEB      0.045700
     22 H112        5.6920   -0.9990    4.5740 hc        1 CEB      0.045700
     23 H113        5.5110   -0.2800    6.2270 hc        1 CEB      0.045700
     24 H121        4.3150    2.2560    3.2180 hc        1 CEB      0.059033
     25 H122        5.4810    0.9490    2.7250 hc        1 CEB      0.059033
     26 H123        4.1350    1.4240    1.6140 hc        1 CEB      0.059033
     27 HN3        -2.4910    0.2150    1.9440 hn        1 CEB      0.449800
     28 H141       -2.6530   -1.2050   -0.4510 h1        1 CEB      0.058700
     29 H142       -2.6700    0.5530   -0.9220 h1        1 CEB      0.058700
     30 H151       -4.9590   -0.3530   -0.6810 hc        1 CEB      0.046700
     31 H152       -4.6610   -0.8220    1.0440 hc        1 CEB      0.046700
     32 H153       -4.6820    0.9290    0.5700 hc        1 CEB      0.046700
@<TRIPOS>BOND
     1    1    2 ar  
     2    1    7 ar  
     3    2    3 1   
     4    2    4 ar  
     5    4    5 ar  
     6    5    6 ar  
     7    5    8 1   
     8    6    7 ar  
     9    7   15 1   
    10    8    9 1   
    11    8   18 1   
    12    9   10 1   
    13    9   12 1   
    14    9   14 1   
    15   10   11 3   
    16   12   13 1   
    17   12   19 1   
    18   12   20 1   
    19   13   21 1   
    20   13   22 1   
    21   13   23 1   
    22   14   24 1   
    23   14   25 1   
    24   14   26 1   
    25   15   16 1   
    26   15   27 1   
    27   16   17 1   
    28   16   28 1   
    29   16   29 1   
    30   17   30 1   
    31   17   31 1   
    32   17   32 1   
@<TRIPOS>SUBSTRUCTURE
     1 CEB         1 TEMP              0 ****  ****    0 ROOT
