@<TRIPOS>MOLECULE
CEB
   34    34     1     0     0
SMALL
bcc


@<TRIPOS>ATOM
      1 N1          0.1130    0.0770   -0.5340 nb        1 CEB     -0.656000
      2 C2          1.2970    0.7730   -0.6730 ca        1 CEB      0.808000
      3 CL2         1.8500    1.0880   -2.2330 cl        1 CEB      0.107000
      4 N3          2.0600    1.2240    0.3880 nb        1 CEB     -0.659000
      5 C4          1.5560    0.9450    1.6270 ca        1 CEB      0.813900
      6 N5          0.3780    0.2740    1.8920 nb        1 CEB     -0.703000
      7 C6         -0.2840   -0.1410    0.7570 ca        1 CEB      0.811900
      8 N7          2.3540    1.3990    2.8010 n4        1 CEB     -0.777700
      9 C8          3.3440    0.3060    3.3160 c3        1 CEB      0.263300
     10 C9          2.7100   -0.9950    3.1160 c1        1 CEB      0.140700
     11 N9          2.2200   -2.0380    2.9670 n1        1 CEB     -0.234800
     12 C10         3.5810    0.5670    4.8230 c3        1 CEB     -0.098400
     13 C11         4.5210   -0.4560    5.4150 c3        1 CEB     -0.109100
     14 C12         4.6520    0.3960    2.5330 c3        1 CEB     -0.139100
     15 N13        -1.5520   -0.9030    0.9540 n4        1 CEB     -0.758700
     16 C14        -2.7630   -0.0530    0.6360 c3        1 CEB      0.122800
     17 C15        -4.0440   -0.8190    0.8790 c3        1 CEB     -0.149100
     18 HN7         1.7150    1.6530    3.5700 hn        1 CEB      0.494300
     19 H101        4.0230    1.5920    4.9530 hc        1 CEB      0.081200
     20 H102        2.6030    0.5250    5.3750 hc        1 CEB      0.081200
     21 H111        4.1700   -1.4980    5.2170 hc        1 CEB      0.077367
     22 H112        4.5630   -0.3070    6.5250 hc        1 CEB      0.077367
     23 H113        5.5560   -0.3380    5.0120 hc        1 CEB      0.077367
     24 H121        5.1950    1.3440    2.7740 hc        1 CEB      0.103033
     25 H122        4.4950    0.3250    1.4290 hc        1 CEB      0.103033
     26 H123        5.3030   -0.4650    2.8430 hc        1 CEB      0.103033
     27 HN3        -1.5430   -1.7280    0.3280 hn        1 CEB      0.493800
     28 H141       -2.6880    0.2580   -0.4470 hx        1 CEB      0.120700
     29 H142       -2.7150    0.8610    1.2940 hx        1 CEB      0.120700
     30 H151       -4.8970   -0.1330    0.6230 hc        1 CEB      0.099033
     31 H152       -4.1270   -1.7220    0.2250 hc        1 CEB      0.099033
     32 H153       -4.1600   -1.1240    1.9480 hc        1 CEB      0.099033
     33 H72         2.9140    2.2270    2.5350 hn        1 CEB      0.494300
     34 H132       -1.6130   -1.2360    1.9300 hn        1 CEB      0.493800
@<TRIPOS>BOND
     1    1    2 ar  
     2    1    7 ar  
     3    2    3 1   
     4    2    4 ar  
     5    4    5 ar  
     6    5    6 ar  
     7    5    8 1   
     8    6    7 ar  
     9    7   15 1   
    10    8    9 1   
    11    8   18 1   
    12    8   33 1   
    13    9   10 1   
    14    9   12 1   
    15    9   14 1   
    16   10   11 3   
    17   12   13 1   
    18   12   19 1   
    19   12   20 1   
    20   13   21 1   
    21   13   22 1   
    22   13   23 1   
    23   14   24 1   
    24   14   25 1   
    25   14   26 1   
    26   15   16 1   
    27   15   27 1   
    28   15   34 1   
    29   16   17 1   
    30   16   28 1   
    31   16   29 1   
    32   17   30 1   
    33   17   31 1   
    34   17   32 1   
@<TRIPOS>SUBSTRUCTURE
     1 CEB         1 TEMP              0 ****  ****    0 ROOT
