@<TRIPOS>MOLECULE
CEB
   32    29     1     0     0
SMALL
bcc


@<TRIPOS>ATOM
      1 N1         -1.3010   -0.2670   -2.2430 n1        1 CEB     -0.597800
      2 C2          0.0380   -0.3100   -2.3010 c1        1 CEB      0.529700
      3 CL2         0.8440   -0.3000   -3.8470 cl        1 CEB     -0.030900
      4 N3          0.7540   -0.4170   -1.1720 n1        1 CEB     -0.596800
      5 C4          0.1320   -0.4800    0.0140 c1        1 CEB      0.592600
      6 N5         -1.2070   -0.4370    0.0720 n1        1 CEB     -0.646800
      7 C6         -1.9240   -0.3310   -1.0570 c1        1 CEB      0.600600
      8 N7          0.8870   -0.6440    1.2030 n3        1 CEB     -0.700800
      9 C8          2.0820    0.0970    1.3920 c3        1 CEB      0.321300
     10 C9          2.4010    0.8690    0.1310 c1        1 CEB      0.195700
     11 N9          2.6420    1.4520   -0.8200 n1        1 CEB     -0.352800
     12 C10         3.2220   -0.8530    1.7050 c3        1 CEB     -0.080400
     13 C11         4.5440   -0.1460    1.4840 c3        1 CEB     -0.099100
     14 C12         1.8990    1.0620    2.5410 c3        1 CEB     -0.111100
     15 N13        -3.3410   -0.3270   -0.9990 n3        1 CEB     -0.712800
     16 C14        -4.0980    0.0410   -2.1450 c3        1 CEB      0.217800
     17 C15        -5.5220    0.3430   -1.7330 c3        1 CEB     -0.114100
     18 HN7         0.6100   -1.2320    1.8420 hn        1 CEB      0.443800
     19 H101        3.1590   -1.1420    2.6370 hc        1 CEB      0.069700
     20 H102        3.1670   -1.6340    1.1170 hc        1 CEB      0.069700
     21 H111        5.2640   -0.8100    1.4200 hc        1 CEB      0.040367
     22 H112        4.5020    0.3720    0.6520 hc        1 CEB      0.040367
     23 H113        4.7210    0.4570    2.2350 hc        1 CEB      0.040367
     24 H121        2.7300    1.5620    2.6830 hc        1 CEB      0.057033
     25 H122        1.6760    0.5620    3.3550 hc        1 CEB      0.057033
     26 H123        1.1740    1.6860    2.3310 hc        1 CEB      0.057033
     27 HN3        -3.7660   -0.5380   -0.2200 hn        1 CEB      0.449800
     28 H141       -4.0940   -0.6970   -2.7900 h1        1 CEB      0.058700
     29 H142       -3.7020    0.8370   -2.5570 h1        1 CEB      0.058700
     30 H151       -5.9420    0.9180   -2.4060 hc        1 CEB      0.046700
     31 H152       -6.0250   -0.4950   -1.6590 hc        1 CEB      0.046700
     32 H153       -5.5210    0.8000   -0.8660 hc        1 CEB      0.046700
@<TRIPOS>BOND
     1    1    7 3   
     2    2    3 1   
     3    2    4 3   
     4    5    6 3   
     5    5    8 1   
     6    7   15 1   
     7    8    9 1   
     8    8   18 1   
     9    9   10 1   
    10    9   12 1   
    11    9   14 1   
    12   10   11 3   
    13   12   13 1   
    14   12   19 1   
    15   12   20 1   
    16   13   21 1   
    17   13   22 1   
    18   13   23 1   
    19   14   24 1   
    20   14   25 1   
    21   14   26 1   
    22   15   16 1   
    23   15   27 1   
    24   16   17 1   
    25   16   28 1   
    26   16   29 1   
    27   17   30 1   
    28   17   31 1   
    29   17   32 1   
@<TRIPOS>SUBSTRUCTURE
     1 CEB         1 TEMP              0 ****  ****    0 ROOT
