@<TRIPOS>MOLECULE
CEB
   32    32     1     0     0
SMALL
bcc


@<TRIPOS>ATOM
      1 N1         -0.0460    0.0600   -0.2310 nb        1 CEB     -0.798000
      2 C2          1.3120    0.0960   -0.1830 ca        1 CEB      0.806000
      3 Cl2         2.1310    0.0090   -1.6990 cl        1 CEB     -0.107000
      4 N3          2.1050    0.1900    0.9220 nb        1 CEB     -0.796000
      5 C4          1.4020    0.2550    2.1240 ca        1 CEB      0.928900
      6 N5          0.0230    0.1980    2.2310 nb        1 CEB     -0.846000
      7 C6         -0.6630    0.1260    1.0240 ca        1 CEB      0.937900
      8 N7          2.1090    0.4420    3.3190 nu        1 CEB     -0.834900
      9 C8          3.5440    0.1640    3.4350 c3        1 CEB      0.319300
     10 C9          3.9260   -1.0750    2.7330 c1        1 CEB      0.195700
     11 N9          4.2300   -2.0450    2.1700 n1        1 CEB     -0.352800
     12 C10         3.8990   -0.0190    4.9410 c3        1 CEB     -0.089400
     13 C11         5.3650   -0.2720    5.1700 c3        1 CEB     -0.097100
     14 C12         4.3900    1.3200    2.8670 c3        1 CEB     -0.093100
     15 N13        -2.0450    0.1490    1.0850 nu        1 CEB     -0.849900
     16 C14        -2.8650   -0.0960   -0.0760 c3        1 CEB      0.217800
     17 C15        -4.3510   -0.1150    0.2460 c3        1 CEB     -0.114100
     18 HN7         1.5840    0.2790    4.1540 hn        1 CEB      0.441800
     19 H101        3.5920    0.9080    5.4950 hc        1 CEB      0.054700
     20 H102        3.3090   -0.8800    5.3540 hc        1 CEB      0.054700
     21 H111        5.5320   -0.5600    6.2370 hc        1 CEB      0.045700
     22 H112        5.7420   -1.0990    4.5210 hc        1 CEB      0.045700
     23 H113        5.9680    0.6450    4.9600 hc        1 CEB      0.045700
     24 H121        5.4660    1.0220    2.8810 hc        1 CEB      0.059033
     25 H122        4.2520    2.2300    3.4980 hc        1 CEB      0.059033
     26 H123        4.1060    1.5620    1.8160 hc        1 CEB      0.059033
     27 HN3        -2.4730    0.0890    1.9820 hn        1 CEB      0.449800
     28 H141       -2.5780   -1.0820   -0.5470 h1        1 CEB      0.058700
     29 H142       -2.6590    0.7140   -0.8350 h1        1 CEB      0.058700
     30 H151       -4.9130   -0.2960   -0.7020 hc        1 CEB      0.046700
     31 H152       -4.6020   -0.9280    0.9680 hc        1 CEB      0.046700
     32 H153       -4.6870    0.8600    0.6770 hc        1 CEB      0.046700
@<TRIPOS>BOND
     1    1    2 ar  
     2    1    7 ar  
     3    2    3 1   
     4    2    4 ar  
     5    4    5 ar  
     6    5    6 ar  
     7    5    8 1   
     8    6    7 ar  
     9    7   15 1   
    10    8    9 1   
    11    8   18 1   
    12    9   10 1   
    13    9   12 1   
    14    9   14 1   
    15   10   11 3   
    16   12   13 1   
    17   12   19 1   
    18   12   20 1   
    19   13   21 1   
    20   13   22 1   
    21   13   23 1   
    22   14   24 1   
    23   14   25 1   
    24   14   26 1   
    25   15   16 1   
    26   15   27 1   
    27   16   17 1   
    28   16   28 1   
    29   16   29 1   
    30   17   30 1   
    31   17   31 1   
    32   17   32 1   
@<TRIPOS>SUBSTRUCTURE
     1 CEB         1 TEMP              0 ****  ****    0 ROOT
