@<TRIPOS>MOLECULE
CEC
   13    12     1     0     0
SMALL
bcc


@<TRIPOS>ATOM
      1 C1          0.1260   -0.0090   -0.0740 c         1 CEC      0.546900
      2 O1          1.3290    0.0010    0.0730 o         1 CEC     -0.352100
      3 N1         -0.7600   -0.0090    1.1520 ny        1 CEC     -0.698800
      4 C2         -0.0010    0.0030    2.4390 c3        1 CEC      0.086800
      5 C3         -0.9200    0.0040    3.6560 c3        1 CEC     -0.027000
      6 Cl1         0.0510    0.0170    5.0930 cl        1 CEC     -0.066400
      7 H11        -0.4690   -0.0200   -1.0170 hx        1 CEC      0.140200
      8 HN1        -1.3700    0.8180    1.1140 hn        1 CEC      0.463800
      9 H21         0.6700   -0.9060    2.4540 hx        1 CEC      0.129700
     10 H22         0.6590    0.9200    2.4440 hx        1 CEC      0.129700
     11 H31        -1.5690    0.9140    3.6810 h1        1 CEC      0.091700
     12 H32        -1.5590   -0.9140    3.6910 h1        1 CEC      0.091700
     13 H12        -1.3600   -0.8430    1.1230 hn        1 CEC      0.463800
@<TRIPOS>BOND
     1    1    2 2   
     2    1    3 1   
     3    1    7 1   
     4    3    4 1   
     5    3    8 1   
     6    3   13 1   
     7    4    5 1   
     8    4    9 1   
     9    4   10 1   
    10    5    6 1   
    11    5   11 1   
    12    5   12 1   
@<TRIPOS>SUBSTRUCTURE
     1 CEC         1 TEMP              0 ****  ****    0 ROOT
