@<TRIPOS>MOLECULE
CEC
   12    11     1     0     0
SMALL
bcc


@<TRIPOS>ATOM
      1 C1          2.6610   -0.1990   -0.0000 c         1 CEC      0.658900
      2 O1          2.8520    1.0270    0.0000 o         1 CEC     -0.597100
      3 N1          1.4060   -0.7590   -0.0000 n         1 CEC     -0.594900
      4 C2          0.2170    0.0510    0.0000 c3        1 CEC      0.080000
      5 C3         -1.0650   -0.7760    0.0000 c3        1 CEC      0.014000
      6 CL1        -2.4630    0.2760    0.0000 cl        1 CEC     -0.168400
      7 H11         3.4890   -0.9460   -0.0000 h5        1 CEC      0.029200
      8 HN1         1.3030   -1.7430    0.0000 hn        1 CEC      0.310500
      9 H21         0.2330    0.7240   -0.9080 h1        1 CEC      0.066700
     10 H22         0.2330    0.7240    0.9080 h1        1 CEC      0.066700
     11 H31        -1.1420   -1.4130    0.9130 h1        1 CEC      0.067700
     12 H32        -1.1420   -1.4130   -0.9130 h1        1 CEC      0.067700
@<TRIPOS>BOND
     1    1    2 2   
     2    1    3 1   
     3    1    7 1   
     4    3    4 1   
     5    3    8 1   
     6    4    5 1   
     7    4    9 1   
     8    4   10 1   
     9    5    6 1   
    10    5   11 1   
    11    5   12 1   
@<TRIPOS>SUBSTRUCTURE
     1 CEC         1 TEMP              0 ****  ****    0 ROOT
