@<TRIPOS>MOLECULE
CEC
   12    10     1     0     0
SMALL
bcc


@<TRIPOS>ATOM
      1 C1          0.3990   -0.0770   -2.0390 c1        1 CEC      0.261000
      2 O1          1.5910    0.1090   -2.0800 o         1 CEC     -0.359000
      3 N1         -0.2520   -0.2670   -0.7790 n2        1 CEC     -0.388000
      4 C2          0.4770   -0.0510    0.4520 c3        1 CEC     -0.043000
      5 C3         -0.5040    0.0820    1.6060 c3        1 CEC     -0.145000
      6 CL1        -1.4310    1.5460    1.4160 cl        1 CEC     -0.110000
      7 H11        -0.1250   -0.1280   -2.8800 ha        1 CEC      0.123000
      8 HN1        -1.1180   -0.6060   -0.7520 hn        1 CEC      0.222000
      9 H21         1.0090    0.7720    0.3780 h1        1 CEC      0.111000
     10 H22         1.0730   -0.8110    0.6160 h1        1 CEC      0.111000
     11 H31        -1.1080   -0.6850    1.6110 h1        1 CEC      0.109000
     12 H32        -0.0110    0.1150    2.4510 h1        1 CEC      0.109000
@<TRIPOS>BOND
     1    1    2 1   
     2    1    7 1   
     3    3    4 1   
     4    3    8 1   
     5    4    5 1   
     6    4    9 1   
     7    4   10 1   
     8    5    6 1   
     9    5   11 1   
    10    5   12 1   
@<TRIPOS>SUBSTRUCTURE
     1 CEC         1 TEMP              0 ****  ****    0 ROOT
