@<TRIPOS>MOLECULE
CEC
   13    12     1     0     0
SMALL
bcc


@<TRIPOS>ATOM
      1 C1          0.1280   -0.0160   -0.0730 c         1 CEC      0.546900
      2 O1          1.3300   -0.0040    0.0740 o         1 CEC     -0.352100
      3 N1         -0.7590   -0.0110    1.1520 n4        1 CEC     -0.698800
      4 C2         -0.0010    0.0040    2.4400 c3        1 CEC      0.086800
      5 C3         -0.9210    0.0100    3.6550 c3        1 CEC     -0.027000
      6 CL1         0.0490    0.0280    5.0930 cl        1 CEC     -0.066400
      7 H11        -0.4660   -0.0320   -1.0160 hx        1 CEC      0.140200
      8 HN1        -1.3590   -0.8460    1.1250 hn        1 CEC      0.463800
      9 H21         0.6600    0.9210    2.4410 hx        1 CEC      0.129700
     10 H22         0.6690   -0.9050    2.4580 hx        1 CEC      0.129700
     11 H31        -1.5610   -0.9060    3.6930 h1        1 CEC      0.091700
     12 H32        -1.5700    0.9220    3.6770 h1        1 CEC      0.091700
     13 H12        -1.3690    0.8160    1.1110 hn        1 CEC      0.463800
@<TRIPOS>BOND
     1    1    2 2   
     2    1    3 1   
     3    1    7 1   
     4    3    4 1   
     5    3    8 1   
     6    3   13 1   
     7    4    5 1   
     8    4    9 1   
     9    4   10 1   
    10    5    6 1   
    11    5   11 1   
    12    5   12 1   
@<TRIPOS>SUBSTRUCTURE
     1 CEC         1 TEMP              0 ****  ****    0 ROOT
