@<TRIPOS>MOLECULE
CEC
   13    12     1     0     0
SMALL
bcc


@<TRIPOS>ATOM
      1 C1          0.1300   -0.0050   -0.0730 c         1 CEC      0.546900
      2 O1          1.3320   -0.0040    0.0760 o         1 CEC     -0.352100
      3 N1         -0.7590   -0.0040    1.1520 n4        1 CEC     -0.698800
      4 C2         -0.0020   -0.0010    2.4400 c3        1 CEC      0.086800
      5 C3         -0.9230    0.0010    3.6550 c3        1 CEC     -0.027000
      6 CL1         0.0460    0.0040    5.0940 cl        1 CEC     -0.066400
      7 H11        -0.4640   -0.0070   -1.0170 hx        1 CEC      0.140200
      8 HN1        -1.3640    0.8260    1.1150 hn        1 CEC      0.463800
      9 H21         0.6650   -0.9130    2.4520 hx        1 CEC      0.129700
     10 H22         0.6630    0.9130    2.4490 hx        1 CEC      0.129700
     11 H31        -1.5680    0.9140    3.6820 h1        1 CEC      0.091700
     12 H32        -1.5660   -0.9140    3.6860 h1        1 CEC      0.091700
     13 H12        -1.3630   -0.8350    1.1190 hn        1 CEC      0.463800
@<TRIPOS>BOND
     1    1    2 2   
     2    1    3 1   
     3    1    7 1   
     4    3    4 1   
     5    3    8 1   
     6    3   13 1   
     7    4    5 1   
     8    4    9 1   
     9    4   10 1   
    10    5    6 1   
    11    5   11 1   
    12    5   12 1   
@<TRIPOS>SUBSTRUCTURE
     1 CEC         1 TEMP              0 ****  ****    0 ROOT
