@<TRIPOS>MOLECULE
CED
   37    34     1     0     0
SMALL
bcc


@<TRIPOS>ATOM
      1 S1          1.5290   -1.2780    1.5550 ss        1 CED     -0.035000
      2 C2          3.2040   -1.6150    1.8850 c3        1 CED     -0.182000
      3 C3          3.8200   -2.4140    0.7990 c2        1 CED     -0.189000
      4 C3'         5.2220   -2.9550    0.9620 c3        1 CED     -0.159000
      5 C4          3.1560   -2.0780   -0.8840 c1        1 CED     -0.063000
      6 C4'         3.7630   -2.7640   -2.0870 c1        1 CED      0.363000
      7 O4A         4.5200   -2.1230   -2.8600 o         1 CED     -0.549500
      8 O4B         3.4730   -3.9650   -2.3400 o         1 CED     -0.549500
      9 N5          1.7560   -1.6230   -0.9250 n3        1 CED     -0.252000
     10 C6          1.2570   -0.7430    0.2680 c3        1 CED     -0.087000
     11 C7         -0.3730   -0.5590    0.1230 c3        1 CED     -0.075000
     12 C8         -1.0520   -1.4210    1.0930 c2        1 CED      0.168000
     13 O9         -1.1850   -1.0540    2.2440 o         1 CED     -0.318000
     14 N10        -0.7110    0.7580    0.3600 n         1 CED     -0.347000
     15 C11        -1.9350    1.2930   -0.1710 c2        1 CED      0.306000
     16 O12        -2.7690    0.5470   -0.6470 o         1 CED     -0.392000
     17 C13        -2.2120    2.7970   -0.0880 c3        1 CED     -0.116000
     18 C14        -3.7000    3.0660   -0.4000 c2        1 CED     -0.379000
     19 C15        -4.2080    3.9680   -1.4150 c1        1 CED     -0.143000
     20 C16        -5.7970    4.0060   -1.3010 c1        1 CED     -0.157000
     21 C17        -6.1970    3.1270   -0.2210 c1        1 CED     -0.437000
     22 S19        -4.9130    2.5020    0.3880 ss        1 CED      0.557000
     23 H21         3.5990   -0.7550    2.1370 h1        1 CED      0.098000
     24 H22         3.3490   -2.1300    2.7110 h1        1 CED      0.098000
     25 H3'1        5.8610   -2.3480    0.5240 hc        1 CED      0.078000
     26 H3'2        5.4370   -3.0210    1.9150 hc        1 CED      0.078000
     27 H3'3        5.2800   -3.8440    0.5510 hc        1 CED      0.078000
     28 HN5         1.1560   -2.0490   -1.4560 hn        1 CED      0.201000
     29 H6          1.6780    0.1370    0.2020 h2        1 CED      0.118000
     30 H7         -0.6490   -0.8070   -0.7840 h1        1 CED      0.141000
     31 H8         -1.3760   -2.3010    0.8210 h4        1 CED      0.195000
     32 HN1        -0.1350    1.3010    0.8190 hn        1 CED      0.245000
     33 H131       -2.0060    3.1170    0.8120 hc        1 CED      0.116500
     34 H132       -1.6520    3.2680   -0.7380 hc        1 CED      0.116500
     35 H15        -3.6670    4.4680   -2.0600 DU        1 CED      0.157333
     36 H16        -6.4010    4.5350   -1.8650 DU        1 CED      0.157333
     37 H17        -7.1190    2.9560    0.0730 DU        1 CED      0.157333
@<TRIPOS>BOND
     1    1    2 1   
     2    1   10 1   
     3    2    3 1   
     4    2   23 1   
     5    2   24 1   
     6    3    4 1   
     7    3    5 1   
     8    4   25 1   
     9    4   26 1   
    10    4   27 1   
    11    5    9 1   
    12    6    7 1   
    13    6    8 1   
    14    9   10 1   
    15    9   28 1   
    16   10   11 1   
    17   10   29 1   
    18   11   12 1   
    19   11   14 1   
    20   11   30 1   
    21   12   13 1   
    22   12   31 1   
    23   14   15 1   
    24   14   32 1   
    25   15   16 1   
    26   15   17 1   
    27   17   18 1   
    28   17   33 1   
    29   17   34 1   
    30   18   19 1   
    31   18   22 1   
    32   19   20 1   
    33   20   21 1   
    34   21   22 1   
@<TRIPOS>SUBSTRUCTURE
     1 CED         1 TEMP              0 ****  ****    0 ROOT
