@<TRIPOS>MOLECULE
CED
   37    38     1     0     0
SMALL
bcc


@<TRIPOS>ATOM
      1 S1         -1.1170   -1.7780   -0.5350 ss        1 CED     -0.400200
      2 C2         -2.7850   -2.1800   -0.0570 c3        1 CED      0.083900
      3 C3         -3.5820   -1.0030    0.3450 c2        1 CED     -0.197400
      4 C3'        -4.5090   -1.2230    1.4770 c3        1 CED     -0.036900
      5 C4         -3.4570    0.1890   -0.2950 ce        1 CED      0.000800
      6 C4'        -4.2200    1.4650    0.1250 c         1 CED      0.912800
      7 O4A        -5.4590    1.4190    0.3070 o         1 CED     -0.814800
      8 O4B        -3.5000    2.5020    0.2430 o         1 CED     -0.814800
      9 N5         -2.6020    0.3560   -1.4100 nh        1 CED     -0.697000
     10 C6         -1.2580   -0.1640   -1.3320 c3        1 CED      0.294600
     11 C7         -0.1960    0.8010   -0.7050 c3        1 CED     -0.050300
     12 C8         -0.6200    1.2350    0.6990 c         1 CED      0.547900
     13 O9          0.1100    1.1120    1.6840 o         1 CED     -0.555100
     14 N10         1.1260    0.2260   -0.7600 n         1 CED     -0.535900
     15 C11         2.0760    0.6160   -1.6670 c         1 CED      0.660100
     16 O12         1.8520    1.4670   -2.5570 o         1 CED     -0.634100
     17 C13         3.4350   -0.0770   -1.6200 c3        1 CED     -0.080100
     18 C14         3.9720   -0.2760   -0.2680 cc        1 CED     -0.115400
     19 C15         3.6870   -1.3360    0.5730 cd        1 CED     -0.154000
     20 C16         4.3950   -1.2380    1.8110 cd        1 CED     -0.149000
     21 C17         5.1880   -0.1120    1.8530 cc        1 CED     -0.174100
     22 S19         5.0640    0.7830    0.4510 ss        1 CED      0.022200
     23 H21        -3.2760   -2.6970   -0.9190 h1        1 CED      0.058700
     24 H22        -2.6810   -2.9110    0.7830 h1        1 CED      0.058700
     25 H3'1       -3.9310   -1.3980    2.4190 hc        1 CED      0.038700
     26 H3'2       -5.1850   -0.3420    1.6230 hc        1 CED      0.038700
     27 H3'3       -5.1410   -2.1260    1.2830 hc        1 CED      0.038700
     28 HN5        -2.5860    1.3260   -1.6870 hn        1 CED      0.405800
     29 H6         -0.9350   -0.3430   -2.4010 h2        1 CED      0.077700
     30 H7         -0.1960    1.7450   -1.3380 h1        1 CED      0.103700
     31 H8         -1.6350    1.7080    0.7470 h4        1 CED      0.101200
     32 HN1         1.3780   -0.3730   -0.0060 hn        1 CED      0.334500
     33 H131        3.3180   -1.0700   -2.1360 hc        1 CED      0.077700
     34 H132        4.1400    0.5450   -2.2360 hc        1 CED      0.077700
     35 H15         3.0010   -2.1540    0.3400 ha        1 CED      0.160000
     36 H16         4.2970   -1.9720    2.6130 ha        1 CED      0.151000
     37 H17         5.8160    0.1880    2.6890 h4        1 CED      0.165000
@<TRIPOS>BOND
     1    1    2 1   
     2    1   10 1   
     3    2    3 1   
     4    2   23 1   
     5    2   24 1   
     6    3    4 1   
     7    3    5 2   
     8    4   25 1   
     9    4   26 1   
    10    4   27 1   
    11    5    6 1   
    12    5    9 1   
    13    6    7 1   
    14    6    8 1   
    15    9   10 1   
    16    9   28 1   
    17   10   11 1   
    18   10   29 1   
    19   11   12 1   
    20   11   14 1   
    21   11   30 1   
    22   12   13 2   
    23   12   31 1   
    24   14   15 1   
    25   14   32 1   
    26   15   16 2   
    27   15   17 1   
    28   17   18 1   
    29   17   33 1   
    30   17   34 1   
    31   18   19 2   
    32   18   22 1   
    33   19   20 1   
    34   19   35 1   
    35   20   21 2   
    36   20   36 1   
    37   21   22 1   
    38   21   37 1   
@<TRIPOS>SUBSTRUCTURE
     1 CED         1 TEMP              0 ****  ****    0 ROOT
