@<TRIPOS>MOLECULE
CED
   38    39     1     0     0
SMALL
bcc


@<TRIPOS>ATOM
      1 S1         -1.1330   -1.2550   -0.1800 ss        1 CED     -0.456200
      2 C2          0.0490    0.0900   -0.3580 c3        1 CED      0.112900
      3 C3          0.7890    0.4120    0.8780 c2        1 CED     -0.171400
      4 C3'         1.1510    1.8400    1.0300 c3        1 CED     -0.051900
      5 C4          1.1290   -0.5380    1.7850 ce        1 CED     -0.027200
      6 C4'         1.8680   -0.2430    3.1180 c         1 CED      0.918800
      7 O4A         1.3280   -0.7890    4.1320 o         1 CED     -0.786300
      8 O4B         2.8940    0.4620    3.1130 o         1 CED     -0.786300
      9 N5          0.8040   -1.9070    1.6010 nh        1 CED     -0.683000
     10 C6         -0.5350   -2.2270    1.2180 c3        1 CED      0.314600
     11 C7         -1.6070   -2.1910    2.3600 c3        1 CED     -0.067500
     12 C8         -1.5370   -0.9290    3.2390 c         1 CED      0.553900
     13 O9         -2.5550   -0.2680    3.4390 o         1 CED     -0.540100
     14 N10        -2.9910   -2.3890    1.8020 n4        1 CED     -0.668800
     15 C11        -3.3060   -3.8210    1.5050 c         1 CED      0.543100
     16 O12        -3.3000   -4.6040    2.4460 o         1 CED     -0.436100
     17 C13        -3.5920   -4.1620    0.0620 c3        1 CED     -0.059100
     18 C14        -4.5820   -3.2670   -0.5460 cc        1 CED     -0.224400
     19 C15        -4.2850   -2.0950   -1.2310 cd        1 CED     -0.134000
     20 C16        -5.4590   -1.4830   -1.7580 cd        1 CED     -0.152000
     21 C17        -6.5890   -2.2210   -1.4610 cc        1 CED     -0.149100
     22 S19        -6.2290   -3.5870   -0.5910 ss        1 CED      0.089200
     23 H21         0.7600   -0.2310   -1.1610 h1        1 CED      0.083200
     24 H22        -0.5510    0.9600   -0.7220 h1        1 CED      0.083200
     25 H3'1        1.6470    2.2090    0.0970 hc        1 CED      0.054700
     26 H3'2        1.8570    1.9900    1.8870 hc        1 CED      0.054700
     27 H3'3        0.2310    2.4530    1.2050 hc        1 CED      0.054700
     28 HN5         1.1100   -2.4520    2.3930 hn        1 CED      0.425800
     29 H6         -0.5230   -3.2930    0.8420 h2        1 CED      0.075700
     30 H7         -1.3950   -3.0610    3.0580 hx        1 CED      0.127700
     31 H8         -0.5250   -0.7260    3.6980 h4        1 CED      0.172200
     32 HN1        -3.0780   -1.8110    0.9400 hn        1 CED      0.477800
     33 H131       -2.6140   -4.1070   -0.5020 hc        1 CED      0.116200
     34 H132       -3.9390   -5.2330    0.0380 hc        1 CED      0.116200
     35 H15        -3.2760   -1.6880   -1.3760 ha        1 CED      0.180000
     36 H16        -5.4460   -0.5490   -2.3260 ha        1 CED      0.173000
     37 H17        -7.6050   -1.9570   -1.7590 h4        1 CED      0.188000
     38 H102       -3.6570   -2.0230    2.5010 hn        1 CED      0.477800
@<TRIPOS>BOND
     1    1    2 1   
     2    1   10 1   
     3    2    3 1   
     4    2   23 1   
     5    2   24 1   
     6    3    4 1   
     7    3    5 2   
     8    4   25 1   
     9    4   26 1   
    10    4   27 1   
    11    5    6 1   
    12    5    9 1   
    13    6    7 1   
    14    6    8 1   
    15    9   10 1   
    16    9   28 1   
    17   10   11 1   
    18   10   29 1   
    19   11   12 1   
    20   11   14 1   
    21   11   30 1   
    22   12   13 2   
    23   12   31 1   
    24   14   15 1   
    25   14   32 1   
    26   14   38 1   
    27   15   16 2   
    28   15   17 1   
    29   17   18 1   
    30   17   33 1   
    31   17   34 1   
    32   18   19 2   
    33   18   22 1   
    34   19   20 1   
    35   19   35 1   
    36   20   21 2   
    37   20   36 1   
    38   21   22 1   
    39   21   37 1   
@<TRIPOS>SUBSTRUCTURE
     1 CED         1 TEMP              0 ****  ****    0 ROOT
