@<TRIPOS>MOLECULE
CED
   38    39     1     0     0
SMALL
bcc


@<TRIPOS>ATOM
      1 S1         -1.1650   -1.1400   -0.1670 ss        1 CED     -0.456200
      2 C2         -0.0250    0.2500   -0.2450 c3        1 CED      0.112900
      3 C3          0.7330    0.4790    1.0020 c2        1 CED     -0.171400
      4 C3'         1.0580    1.8980    1.2770 c3        1 CED     -0.051900
      5 C4          1.1200   -0.5390    1.8100 ce        1 CED     -0.027200
      6 C4'         1.8810   -0.3460    3.1490 c         1 CED      0.918800
      7 O4A         1.3800   -0.9980    4.1190 o         1 CED     -0.786300
      8 O4B         2.8860    0.3870    3.1880 o         1 CED     -0.786300
      9 N5          0.8290   -1.8950    1.5070 nu        1 CED     -0.683000
     10 C6         -0.5090   -2.2180    1.1230 c3        1 CED      0.314600
     11 C7         -1.5550   -2.3180    2.2840 c3        1 CED     -0.067500
     12 C8         -1.5000   -1.1410    3.2750 c         1 CED      0.553900
     13 O9         -2.5310   -0.5320    3.5550 o         1 CED     -0.540100
     14 N10        -2.9460   -2.5050    1.7390 ny        1 CED     -0.668800
     15 C11        -3.2270   -3.9130    1.3170 c         1 CED      0.543100
     16 O12        -3.1780   -4.7790    2.1820 o         1 CED     -0.436100
     17 C13        -3.5370   -4.1280   -0.1450 c3        1 CED     -0.059100
     18 C14        -4.5660   -3.2110   -0.6480 cc        1 CED     -0.224400
     19 C15        -4.3170   -1.9740   -1.2270 cd        1 CED     -0.134000
     20 C16        -5.5190   -1.3510   -1.6710 cd        1 CED     -0.152000
     21 C17        -6.6210   -2.1460   -1.4210 cc        1 CED     -0.149100
     22 S19        -6.2030   -3.5750   -0.6880 ss        1 CED      0.089200
     23 H21        -0.6570    1.1320   -0.5140 h1        1 CED      0.083200
     24 H22         0.6750    0.0250   -1.0880 h1        1 CED      0.083200
     25 H3'1        1.5220    2.3650    0.3720 hc        1 CED      0.054700
     26 H3'2        1.7800    1.9890    2.1300 hc        1 CED      0.054700
     27 H3'3        0.1260    2.4640    1.5260 hc        1 CED      0.054700
     28 HN5         1.1680   -2.5010    2.2390 hn        1 CED      0.425800
     29 H6         -0.4750   -3.2450    0.6500 h2        1 CED      0.075700
     30 H7         -1.3030   -3.2420    2.8950 hx        1 CED      0.127700
     31 H8         -0.4840   -0.9510    3.7300 h4        1 CED      0.172200
     32 HN1        -3.0680   -1.8540    0.9360 hn        1 CED      0.477800
     33 H131       -2.5740   -3.9930   -0.7220 hc        1 CED      0.116200
     34 H132       -3.8550   -5.2030   -0.2600 hc        1 CED      0.116200
     35 H15        -3.3220   -1.5250   -1.3540 ha        1 CED      0.180000
     36 H16        -5.5440   -0.3690   -2.1510 ha        1 CED      0.173000
     37 H17        -7.6500   -1.8860   -1.6730 h4        1 CED      0.188000
     38 H102       -3.6050   -2.2250    2.4810 hn        1 CED      0.477800
@<TRIPOS>BOND
     1    1    2 1   
     2    1   10 1   
     3    2    3 1   
     4    2   23 1   
     5    2   24 1   
     6    3    4 1   
     7    3    5 2   
     8    4   25 1   
     9    4   26 1   
    10    4   27 1   
    11    5    6 1   
    12    5    9 1   
    13    6    7 1   
    14    6    8 1   
    15    9   10 1   
    16    9   28 1   
    17   10   11 1   
    18   10   29 1   
    19   11   12 1   
    20   11   14 1   
    21   11   30 1   
    22   12   13 2   
    23   12   31 1   
    24   14   15 1   
    25   14   32 1   
    26   14   38 1   
    27   15   16 2   
    28   15   17 1   
    29   17   18 1   
    30   17   33 1   
    31   17   34 1   
    32   18   19 2   
    33   18   22 1   
    34   19   20 1   
    35   19   35 1   
    36   20   21 2   
    37   20   36 1   
    38   21   22 1   
    39   21   37 1   
@<TRIPOS>SUBSTRUCTURE
     1 CED         1 TEMP              0 ****  ****    0 ROOT
