@<TRIPOS>MOLECULE
CEE
   18    15     1     0     0
SMALL
bcc


@<TRIPOS>ATOM
      1 C1         -0.0630    0.2960   -0.1700 c1        1 CEE     -0.054100
      2 C2          1.3230    0.3270   -0.1490 c1        1 CEE     -0.069000
      3 C3          1.9970    0.3440    1.0610 c1        1 CEE     -0.069000
      4 C4          1.2860    0.3300    2.2510 c1        1 CEE     -0.069000
      5 C5         -0.0990    0.2990    2.2300 c1        1 CEE     -0.069000
      6 C6         -0.7740    0.2820    1.0200 c1        1 CEE     -0.068500
      7 C1'        -0.8000    0.3120   -1.4910 c3        1 CEE     -0.081300
      8 C2'        -1.2060   -1.0970   -1.8590 c3        1 CEE      0.041000
      9 CL1        -1.6130   -1.1610   -3.5530 cl        1 CEE     -0.199400
     10 H2          1.8230    0.3370   -0.9870 ha        1 CEE      0.075500
     11 H3          2.9730    0.3660    1.0760 ha        1 CEE      0.075500
     12 H4          1.7610    0.3420    3.1040 ha        1 CEE      0.075500
     13 H5         -0.6000    0.2880    3.0680 ha        1 CEE      0.075500
     14 H6         -1.7500    0.2600    1.0050 ha        1 CEE      0.074500
     15 H1'        -1.5980    0.8710   -1.4120 hc        1 CEE      0.063200
     16 H1'A       -0.2150    0.6750   -2.1860 hc        1 CEE      0.063200
     17 H2'        -1.9820   -1.3630   -1.3270 h1        1 CEE      0.067700
     18 H2'A       -0.4630   -1.7080   -1.6790 h1        1 CEE      0.067700
@<TRIPOS>BOND
     1    1    6 3   
     2    1    7 1   
     3    2    3 3   
     4    2   10 1   
     5    3   11 1   
     6    4    5 3   
     7    4   12 1   
     8    5   13 1   
     9    6   14 1   
    10    7    8 1   
    11    7   15 1   
    12    7   16 1   
    13    8    9 1   
    14    8   17 1   
    15    8   18 1   
@<TRIPOS>SUBSTRUCTURE
     1 CEE         1 TEMP              0 ****  ****    0 ROOT
