@<TRIPOS>MOLECULE
CEE
   18    18     1     0     0
SMALL
bcc


@<TRIPOS>ATOM
      1 C1          0.6310    0.0650    0.3460 ca        1 CEE     -0.088300
      2 C2          1.2640   -1.1580    0.0910 ca        1 CEE     -0.124500
      3 C3          2.6180   -1.1940   -0.2350 ca        1 CEE     -0.127500
      4 C4          3.3510   -0.0100   -0.3100 ca        1 CEE     -0.128000
      5 C5          2.7270    1.2110   -0.0560 ca        1 CEE     -0.127500
      6 C6          1.3720    1.2500    0.2710 ca        1 CEE     -0.124500
      7 C1'        -0.8140    0.0980    0.7050 c3        1 CEE     -0.047100
      8 C2'        -1.6750   -0.1340   -0.5180 c3        1 CEE      0.041000
      9 CL1        -3.3820   -0.1480   -0.1070 cl        1 CEE     -0.199400
     10 H2          0.6860   -2.0930    0.1530 ha        1 CEE      0.132500
     11 H3          3.1080   -2.1580   -0.4330 ha        1 CEE      0.133000
     12 H4          4.4200   -0.0390   -0.5670 ha        1 CEE      0.133000
     13 H5          3.3030    2.1460   -0.1120 ha        1 CEE      0.133000
     14 H6          0.8840    2.2150    0.4730 ha        1 CEE      0.132500
     15 H1'        -1.0260   -0.6940    1.4740 hc        1 CEE      0.063200
     16 H1'A       -1.0750    1.0870    1.1690 hc        1 CEE      0.063200
     17 H2'        -1.5340    0.6780   -1.2710 h1        1 CEE      0.067700
     18 H2'A       -1.4480   -1.1230   -0.9840 h1        1 CEE      0.067700
@<TRIPOS>BOND
     1    1    2 ar  
     2    1    6 ar  
     3    1    7 1   
     4    2    3 ar  
     5    2   10 1   
     6    3    4 ar  
     7    3   11 1   
     8    4    5 ar  
     9    4   12 1   
    10    5    6 ar  
    11    5   13 1   
    12    6   14 1   
    13    7    8 1   
    14    7   15 1   
    15    7   16 1   
    16    8    9 1   
    17    8   17 1   
    18    8   18 1   
@<TRIPOS>SUBSTRUCTURE
     1 CEE         1 TEMP              0 ****  ****    0 ROOT
