@<TRIPOS>MOLECULE
CEE
   18    18     1     0     0
SMALL
bcc


@<TRIPOS>ATOM
      1 C1         -0.0610    0.0180    0.0220 ca        1 CEE     -0.088300
      2 C2          1.3360    0.1100   -0.0040 ca        1 CEE     -0.124500
      3 C3          2.0630    0.0950    1.1850 ca        1 CEE     -0.127500
      4 C4          1.4010   -0.0110    2.4090 ca        1 CEE     -0.128000
      5 C5          0.0100   -0.1040    2.4400 ca        1 CEE     -0.127500
      6 C6         -0.7200   -0.0890    1.2520 ca        1 CEE     -0.124500
      7 C1'        -0.8340    0.0230   -1.2510 c3        1 CEE     -0.047100
      8 C2'        -0.8990    1.4200   -1.8310 c3        1 CEE      0.041000
      9 CL1        -1.7640    1.4380   -3.3600 cl        1 CEE     -0.199400
     10 H2          1.8580    0.1900   -0.9690 ha        1 CEE      0.132500
     11 H3          3.1600    0.1670    1.1570 ha        1 CEE      0.133000
     12 H4          1.9760   -0.0230    3.3460 ha        1 CEE      0.133000
     13 H5         -0.5140   -0.1900    3.4030 ha        1 CEE      0.133000
     14 H6         -1.8170   -0.1650    1.2820 ha        1 CEE      0.132500
     15 H1'        -1.8750   -0.3610   -1.0740 hc        1 CEE      0.063200
     16 H1'A       -0.3450   -0.6710   -1.9880 hc        1 CEE      0.063200
     17 H2'         0.1240    1.8150   -2.0370 h1        1 CEE      0.067700
     18 H2'A       -1.4420    2.1160   -1.1490 h1        1 CEE      0.067700
@<TRIPOS>BOND
     1    1    2 ar  
     2    1    6 ar  
     3    1    7 1   
     4    2    3 ar  
     5    2   10 1   
     6    3    4 ar  
     7    3   11 1   
     8    4    5 ar  
     9    4   12 1   
    10    5    6 ar  
    11    5   13 1   
    12    6   14 1   
    13    7    8 1   
    14    7   15 1   
    15    7   16 1   
    16    8    9 1   
    17    8   17 1   
    18    8   18 1   
@<TRIPOS>SUBSTRUCTURE
     1 CEE         1 TEMP              0 ****  ****    0 ROOT
