@<TRIPOS>MOLECULE
CEF
   49    50     1     0     0
SMALL
bcc


@<TRIPOS>ATOM
      1 S1          1.2700   -3.5370    1.0180 ss        1 CEF     -0.274200
      2 C2          2.1520   -2.0130    0.8240 c3        1 CEF      0.027900
      3 C3          1.3870   -0.8120    1.2240 c2        1 CEF     -0.105400
      4 C3'         1.5330    0.3890    0.3480 c3        1 CEF      0.160600
      5 C2'         3.4320    0.3210   -1.1440 c         1 CEF      0.647100
      6 O1'         2.7130   -0.2620   -1.9630 o         1 CEF     -0.587000
      7 O2'         2.9160    0.6530    0.0740 os        1 CEF     -0.420900
      8 C1'         4.8520    0.7430   -1.3020 c3        1 CEF     -0.153100
      9 C4          0.5780   -0.8400    2.3200 ce        1 CEF     -0.018200
     10 C4'        -0.1410    0.3800    2.8020 c         1 CEF      0.630300
     11 O4A         0.3250    1.5160    2.8950 o         1 CEF     -0.481000
     12 O4B        -1.4360    0.2890    3.2120 oh        1 CEF     -0.573100
     13 N5          0.4620   -2.0050    3.1140 nh        1 CEF     -0.696000
     14 C6          0.1950   -3.2450    2.4240 c3        1 CEF      0.257600
     15 C7         -1.2690   -3.4670    1.9440 c3        1 CEF     -0.057300
     16 C8         -2.1760   -3.5340    3.1780 c         1 CEF      0.576900
     17 O9         -2.2680   -2.6030    3.9770 o         1 CEF     -0.540100
     18 N10        -1.7390   -2.4500    1.0270 n         1 CEF     -0.536900
     19 C11        -2.8460   -2.7330    0.2320 c         1 CEF      0.570800
     20 O12        -3.5340   -3.7550    0.4020 o         1 CEF     -0.575100
     21 C13        -3.2370   -1.6830   -0.7810 ce        1 CEF      0.291300
     22 N16        -4.2530   -0.8680   -0.6660 n2        1 CEF     -0.381200
     23 O17        -4.9500   -0.9600    0.4460 os        1 CEF     -0.175300
     24 C18        -6.0660   -0.0390    0.5200 c3        1 CEF      0.131700
     25 C14        -2.4100   -1.6400   -1.9960 cc        1 CEF      0.322000
     26 C15        -2.9100   -1.4860   -3.2830 cd        1 CEF     -0.225400
     27 S16        -1.6790   -1.5040   -4.4080 ss        1 CEF     -0.091300
     28 C17        -0.4860   -1.6840   -3.1360 cd        1 CEF      0.618300
     29 N18         0.8570   -1.8710   -3.4650 nh        1 CEF     -0.870500
     30 N19        -1.0250   -1.7380   -1.9010 nc        1 CEF     -0.709000
     31 H21         2.4330   -1.9670   -0.2620 h1        1 CEF      0.096200
     32 H22         3.0940   -2.0590    1.4310 h1        1 CEF      0.096200
     33 H3'1        1.1900    1.3330    0.8590 h1        1 CEF      0.098200
     34 H3'2        0.9600    0.2260   -0.6070 h1        1 CEF      0.098200
     35 H1'1        5.2640    1.1290   -0.3390 hc        1 CEF      0.081700
     36 H1'2        4.9020    1.5490   -2.0750 hc        1 CEF      0.081700
     37 H1'3        5.4550   -0.1320   -1.6460 hc        1 CEF      0.081700
     38 H6          0.4160   -4.0720    3.1620 h2        1 CEF      0.104700
     39 H7         -1.3050   -4.4830    1.4400 h1        1 CEF      0.094700
     40 H88        -2.7440   -4.4820    3.2930 h4        1 CEF      0.033200
     41 HN1        -1.7960   -0.6050    3.0950 ho        1 CEF      0.454000
     42 H181       -5.7090    1.0160    0.4790 h1        1 CEF      0.054367
     43 H182       -6.8000   -0.2450   -0.2940 h1        1 CEF      0.054367
     44 H183       -6.4960   -0.2830    1.5240 h1        1 CEF      0.054367
     45 H15        -3.9630   -1.3670   -3.5340 h4        1 CEF      0.193000
     46 HN81        1.4420   -2.0690   -2.6730 hn        1 CEF      0.402800
     47 HN82        1.2280   -1.0970   -3.9840 hn        1 CEF      0.402800
     48 HN2        -0.1520   -1.8780    3.9020 hn        1 CEF      0.419800
     49 H102       -1.0310   -1.8630    0.6360 hn        1 CEF      0.332500
@<TRIPOS>BOND
     1    1    2 1   
     2    1   14 1   
     3    2    3 1   
     4    2   31 1   
     5    2   32 1   
     6    3    4 1   
     7    3    9 2   
     8    4    7 1   
     9    4   33 1   
    10    4   34 1   
    11    5    6 2   
    12    5    7 1   
    13    5    8 1   
    14    8   35 1   
    15    8   36 1   
    16    8   37 1   
    17    9   10 1   
    18    9   13 1   
    19   10   11 2   
    20   10   12 1   
    21   12   41 1   
    22   13   14 1   
    23   13   48 1   
    24   14   15 1   
    25   14   38 1   
    26   15   16 1   
    27   15   18 1   
    28   15   39 1   
    29   16   17 2   
    30   16   40 1   
    31   18   19 1   
    32   18   49 1   
    33   19   20 2   
    34   19   21 1   
    35   21   22 2   
    36   21   25 1   
    37   22   23 1   
    38   23   24 1   
    39   24   42 1   
    40   24   43 1   
    41   24   44 1   
    42   25   26 2   
    43   25   30 1   
    44   26   27 1   
    45   26   45 1   
    46   27   28 1   
    47   28   29 1   
    48   28   30 2   
    49   29   46 1   
    50   29   47 1   
@<TRIPOS>SUBSTRUCTURE
     1 CEF         1 TEMP              0 ****  ****    0 ROOT
