@<TRIPOS>MOLECULE
CEF
   48    49     1     0     0
SMALL
bcc


@<TRIPOS>ATOM
      1 S1         -0.6520    0.9620    0.2680 ss        1 CEF     -0.406200
      2 C2         -2.4140    1.2240    0.2290 c3        1 CEF      0.093900
      3 C3         -3.1970   -0.0250    0.2350 c2        1 CEF     -0.225400
      4 C3'        -4.4280   -0.0270   -0.6000 c3        1 CEF      0.196600
      5 C2'        -6.2480    1.4720   -1.0180 c         1 CEF      0.629100
      6 O1'        -6.4880    0.8120   -2.0340 o         1 CEF     -0.562000
      7 O2'        -5.1650    1.1760   -0.2560 os        1 CEF     -0.436900
      8 C1'        -7.0310    2.6280   -0.4880 c3        1 CEF     -0.151100
      9 C4         -2.8140   -1.1110    0.9580 ce        1 CEF      0.030800
     10 C4'        -3.5800   -2.4590    0.9440 c         1 CEF      0.909800
     11 O4A        -2.8520   -3.4740    0.7420 o         1 CEF     -0.805800
     12 O4B        -4.8180   -2.4670    1.1350 o         1 CEF     -0.805800
     13 N5         -1.6590   -1.1020    1.7680 nh        1 CEF     -0.699000
     14 C6         -0.4380   -0.5440    1.2420 c3        1 CEF      0.289600
     15 C7          0.4600   -1.5460    0.4390 c3        1 CEF     -0.045300
     16 C8         -0.3240   -2.1550   -0.7250 c         1 CEF      0.549900
     17 O9          0.0520   -2.0940   -1.8960 o         1 CEF     -0.546100
     18 N10         1.7070   -0.9450    0.0390 n         1 CEF     -0.529900
     19 C11         2.8820   -1.1350    0.7190 c         1 CEF      0.585800
     20 O12         3.0040   -1.8970    1.6970 o         1 CEF     -0.597100
     21 C13         4.0770   -0.3620    0.1890 ce        1 CEF      0.295300
     22 N16         5.1760   -0.8870   -0.2880 n2        1 CEF     -0.410200
     23 O17         5.2020   -2.2030   -0.3680 os        1 CEF     -0.161300
     24 C18         6.4540   -2.7330   -0.8580 c3        1 CEF      0.130700
     25 C14         3.9470    1.1020    0.2610 cc        1 CEF      0.327000
     26 C15         4.6350    2.0100   -0.5360 cd        1 CEF     -0.229400
     27 S16         4.1810    3.5780   -0.1940 ss        1 CEF     -0.121300
     28 C17         3.0440    3.0060    1.0130 cd        1 CEF      0.603300
     29 N18         2.3250    3.9370    1.7750 nh        1 CEF     -0.877500
     30 N19         3.0340    1.6690    1.1490 nc        1 CEF     -0.650000
     31 H21        -2.6900    1.8490    1.1150 h1        1 CEF      0.063700
     32 H22        -2.6070    1.8210   -0.6970 h1        1 CEF      0.063700
     33 H3'1       -4.1740    0.0200   -1.6930 h1        1 CEF      0.078200
     34 H3'2       -5.0900   -0.9100   -0.3880 h1        1 CEF      0.078200
     35 H1'1       -7.8110    2.2380    0.2110 hc        1 CEF      0.064367
     36 H1'2       -6.3660    3.3310    0.0680 hc        1 CEF      0.064367
     37 H1'3       -7.5250    3.1610   -1.3350 hc        1 CEF      0.064367
     38 H6          0.1690   -0.2200    2.1400 h2        1 CEF      0.086700
     39 H7          0.7010   -2.4090    1.1400 h1        1 CEF      0.105700
     40 H88        -1.2560   -2.6930   -0.4120 h4        1 CEF      0.093200
     41 HN1         1.6600   -0.2880   -0.7050 hn        1 CEF      0.332500
     42 H181        6.6610   -2.3710   -1.8920 h1        1 CEF      0.046367
     43 H182        7.2930   -2.4680   -0.1710 h1        1 CEF      0.046367
     44 H183        6.2590   -3.8340   -0.8470 h1        1 CEF      0.046367
     45 H15         5.3720    1.7420   -1.2930 h4        1 CEF      0.189000
     46 HN81        1.6360    4.4010    1.2120 hn        1 CEF      0.391800
     47 HN82        1.8910    3.5230    2.5810 hn        1 CEF      0.391800
     48 HN2        -1.4940   -2.0230    2.1460 hn        1 CEF      0.411800
@<TRIPOS>BOND
     1    1    2 1   
     2    1   14 1   
     3    2    3 1   
     4    2   31 1   
     5    2   32 1   
     6    3    4 1   
     7    3    9 2   
     8    4    7 1   
     9    4   33 1   
    10    4   34 1   
    11    5    6 2   
    12    5    7 1   
    13    5    8 1   
    14    8   35 1   
    15    8   36 1   
    16    8   37 1   
    17    9   10 1   
    18    9   13 1   
    19   10   11 1   
    20   10   12 1   
    21   13   14 1   
    22   13   48 1   
    23   14   15 1   
    24   14   38 1   
    25   15   16 1   
    26   15   18 1   
    27   15   39 1   
    28   16   17 2   
    29   16   40 1   
    30   18   19 1   
    31   18   41 1   
    32   19   20 2   
    33   19   21 1   
    34   21   22 2   
    35   21   25 1   
    36   22   23 1   
    37   23   24 1   
    38   24   42 1   
    39   24   43 1   
    40   24   44 1   
    41   25   26 2   
    42   25   30 1   
    43   26   27 1   
    44   26   45 1   
    45   27   28 1   
    46   28   29 1   
    47   28   30 2   
    48   29   46 1   
    49   29   47 1   
@<TRIPOS>SUBSTRUCTURE
     1 CEF         1 TEMP              0 ****  ****    0 ROOT
