@<TRIPOS>MOLECULE
CEF
   50    51     1     0     0
SMALL
bcc


@<TRIPOS>ATOM
      1 S1          0.0180   -0.9750   -0.5000 ss        1 CEF     -0.470200
      2 C2          1.6810   -0.3230   -0.1500 c3        1 CEF      0.134900
      3 C3          2.1250   -0.5050    1.2400 c2        1 CEF     -0.227400
      4 C3'         3.0920    0.5230    1.7360 c3        1 CEF      0.193600
      5 C2'         4.7570    0.7020   -0.0070 c         1 CEF      0.640100
      6 O1'         3.8650    1.0940   -0.7710 o         1 CEF     -0.606000
      7 O2'         4.4250    0.3150    1.2540 os        1 CEF     -0.399900
      8 C1'         6.2150    0.5810   -0.2850 c3        1 CEF     -0.153100
      9 C4          1.6980   -1.5260    2.0250 ce        1 CEF      0.003800
     10 C4'         2.0310   -1.6550    3.5500 c         1 CEF      0.916800
     11 O4A         0.9980   -1.8800    4.2500 o         1 CEF     -0.759800
     12 O4B         3.2050   -1.5260    3.9270 o         1 CEF     -0.759800
     13 N5          0.8310   -2.5410    1.5470 nh        1 CEF     -0.703000
     14 C6         -0.3520   -2.1580    0.8450 c3        1 CEF      0.332600
     15 C7         -1.5350   -1.6190    1.7070 c3        1 CEF     -0.063500
     16 C8         -1.1270   -0.4860    2.6740 c         1 CEF      0.554900
     17 O9         -1.7280    0.5840    2.6420 o         1 CEF     -0.521100
     18 N10        -2.7130   -1.2120    0.8590 n4        1 CEF     -0.656800
     19 C11        -3.6610   -2.3200    0.5090 c         1 CEF      0.461800
     20 O12        -3.8180   -3.2310    1.3040 o         1 CEF     -0.376100
     21 C13        -4.3550   -2.1910   -0.8190 ce        1 CEF      0.220300
     22 N16        -5.6440   -1.9930   -0.9770 n2        1 CEF     -0.291200
     23 O17        -6.3440   -1.8120    0.1000 os        1 CEF     -0.169300
     24 C18        -7.7840   -1.6460   -0.1120 c3        1 CEF      0.131700
     25 C14        -3.4830   -2.3790   -1.9850 cc        1 CEF      0.326000
     26 C15        -3.8500   -2.3890   -3.3420 cd        1 CEF     -0.209400
     27 S16        -2.5320   -2.5490   -4.3170 ss        1 CEF      0.210700
     28 C17        -1.4860   -2.5980   -2.9640 cd        1 CEF      0.368300
     29 N18        -0.0380   -2.6260   -2.9640 n4        1 CEF     -0.851300
     30 N19        -2.1320   -2.5300   -1.7740 nc        1 CEF     -0.642000
     31 H21         2.3640   -0.8540   -0.8580 h1        1 CEF      0.101200
     32 H22         1.6250    0.7600   -0.4340 h1        1 CEF      0.101200
     33 H3'1        2.7470    1.5510    1.4460 h1        1 CEF      0.094700
     34 H3'2        3.2380    0.4340    2.8550 h1        1 CEF      0.094700
     35 H1'1        6.7000    1.5670   -0.0740 hc        1 CEF      0.082033
     36 H1'2        6.3690    0.3180   -1.3590 hc        1 CEF      0.082033
     37 H1'3        6.6780   -0.1970    0.3700 hc        1 CEF      0.082033
     38 H6         -0.7330   -3.0870    0.3280 h2        1 CEF      0.084700
     39 H7         -1.8730   -2.4770    2.3760 hx        1 CEF      0.150700
     40 H88        -0.3110   -0.7700    3.4020 h4        1 CEF      0.175200
     41 HN1        -3.2380   -0.5000    1.4000 hn        1 CEF      0.478300
     42 H181       -8.2100   -2.5670   -0.5730 h1        1 CEF      0.082033
     43 H182       -7.9780   -0.7430   -0.7350 h1        1 CEF      0.082033
     44 H183       -8.1360   -1.5100    0.9420 h1        1 CEF      0.082033
     45 H15        -4.8820   -2.2980   -3.7010 h4        1 CEF      0.235000
     46 HN81        0.2960   -3.5920   -2.9160 hn        1 CEF      0.478133
     47 HN82        0.3060   -2.0700   -2.0500 hn        1 CEF      0.478133
     48 HN2         0.6310   -3.2060    2.2840 hn        1 CEF      0.442800
     49 H102       -2.3530   -0.7480    0.0110 hn        1 CEF      0.478300
     50 H184        0.3220   -2.1770   -3.8070 hn        1 CEF      0.478133
@<TRIPOS>BOND
     1    1    2 1   
     2    1   14 1   
     3    2    3 1   
     4    2   31 1   
     5    2   32 1   
     6    3    4 1   
     7    3    9 2   
     8    4    7 1   
     9    4   33 1   
    10    4   34 1   
    11    5    6 2   
    12    5    7 1   
    13    5    8 1   
    14    8   35 1   
    15    8   36 1   
    16    8   37 1   
    17    9   10 1   
    18    9   13 1   
    19   10   11 1   
    20   10   12 1   
    21   13   14 1   
    22   13   48 1   
    23   14   15 1   
    24   14   38 1   
    25   15   16 1   
    26   15   18 1   
    27   15   39 1   
    28   16   17 2   
    29   16   40 1   
    30   18   19 1   
    31   18   41 1   
    32   18   49 1   
    33   19   20 2   
    34   19   21 1   
    35   21   22 2   
    36   21   25 1   
    37   22   23 1   
    38   23   24 1   
    39   24   42 1   
    40   24   43 1   
    41   24   44 1   
    42   25   26 2   
    43   25   30 1   
    44   26   27 1   
    45   26   45 1   
    46   27   28 1   
    47   28   29 1   
    48   28   30 2   
    49   29   46 1   
    50   29   47 1   
    51   29   50 1   
@<TRIPOS>SUBSTRUCTURE
     1 CEF         1 TEMP              0 ****  ****    0 ROOT
