@<TRIPOS>MOLECULE
CEF
   49    50     1     0     0
SMALL
bcc


@<TRIPOS>ATOM
      1 S1          1.2390   -3.6230    0.7980 ss        1 CEF     -0.274200
      2 C2          2.1450   -2.1040    0.7170 c3        1 CEF      0.027900
      3 C3          1.4090   -0.9270    1.2280 c2        1 CEF     -0.105400
      4 C3'         1.5650    0.3400    0.4530 c3        1 CEF      0.160600
      5 C2'         3.4410    0.3640   -1.0690 c         1 CEF      0.647100
      6 O1'         2.6990   -0.1360   -1.9220 o         1 CEF     -0.587000
      7 O2'         2.9490    0.6020    0.1800 os        1 CEF     -0.420900
      8 C1'         4.8650    0.7730   -1.2140 c3        1 CEF     -0.153100
      9 C4          0.6150   -1.0320    2.3310 ce        1 CEF     -0.018200
     10 C4'        -0.0740    0.1550    2.9240 c         1 CEF      0.630300
     11 O4A         0.4150    1.2710    3.1040 o         1 CEF     -0.481000
     12 O4B        -1.3640    0.0540    3.3450 oh        1 CEF     -0.573100
     13 N5          0.4890   -2.2570    3.0270 nu        1 CEF     -0.696000
     14 C6          0.1890   -3.4310    2.2400 c3        1 CEF      0.257600
     15 C7         -1.2850   -3.5860    1.7660 c3        1 CEF     -0.057300
     16 C8         -2.1760   -3.7400    3.0040 c         1 CEF      0.576900
     17 O9         -2.2390   -2.8770    3.8800 o         1 CEF     -0.540100
     18 N10        -1.7490   -2.4880    0.9440 ns        1 CEF     -0.536900
     19 C11        -2.8730   -2.6840    0.1470 c         1 CEF      0.570800
     20 O12        -3.5780   -3.7030    0.2430 o         1 CEF     -0.575100
     21 C13        -3.2570   -1.5460   -0.7690 ce        1 CEF      0.291300
     22 N16        -4.2560   -0.7240   -0.5710 n2        1 CEF     -0.381200
     23 O17        -4.9390   -0.8960    0.5410 os        1 CEF     -0.175300
     24 C18        -6.0350    0.0360    0.7090 c3        1 CEF      0.131700
     25 C14        -2.4480   -1.4170   -1.9900 cc        1 CEF      0.322000
     26 C15        -2.9630   -1.1490   -3.2510 cd        1 CEF     -0.225400
     27 S16        -1.7490   -1.0940   -4.3930 ss        1 CEF     -0.091300
     28 C17        -0.5410   -1.4000   -3.1600 cd        1 CEF      0.618300
     29 N18         0.7930   -1.5820   -3.5250 nv        1 CEF     -0.870500
     30 N19        -1.0630   -1.5470   -1.9250 nc        1 CEF     -0.708000
     31 H21         3.0950   -2.2160    1.3030 h1        1 CEF      0.096200
     32 H22         2.4120   -1.9720   -0.3650 h1        1 CEF      0.096200
     33 H3'1        0.9750    0.2680   -0.5020 h1        1 CEF      0.098200
     34 H3'2        1.2470    1.2440    1.0460 h1        1 CEF      0.098200
     35 H1'1        5.2980    1.0720   -0.2290 hc        1 CEF      0.081700
     36 H1'2        5.4480   -0.0810   -1.6380 hc        1 CEF      0.081700
     37 H1'3        4.9200    1.6390   -1.9200 hc        1 CEF      0.081700
     38 H6          0.4050   -4.3200    2.9030 h2        1 CEF      0.104700
     39 H7         -1.3480   -4.5560    1.1800 h1        1 CEF      0.094700
     40 H88        -2.7600   -4.6840    3.0490 h4        1 CEF      0.033200
     41 HN1        -1.7420   -0.8210    3.1600 ho        1 CEF      0.454000
     42 H181       -6.4550   -0.2820    1.6960 h1        1 CEF      0.054367
     43 H182       -6.7840   -0.0880   -0.1070 h1        1 CEF      0.054367
     44 H183       -5.6580    1.0840    0.7500 h1        1 CEF      0.054367
     45 H15        -4.0170   -0.9910   -3.4750 h4        1 CEF      0.193000
     46 HN81        1.1700   -0.7740   -3.9830 hn        1 CEF      0.402800
     47 HN82        1.3850   -1.8550   -2.7600 hn        1 CEF      0.402800
     48 HN2        -0.1120   -2.1860    3.8320 hn        1 CEF      0.419800
     49 H102       -1.0360   -1.8830    0.5930 hn        1 CEF      0.332500
@<TRIPOS>BOND
     1    1    2 1   
     2    1   14 1   
     3    2    3 1   
     4    2   31 1   
     5    2   32 1   
     6    3    4 1   
     7    3    9 2   
     8    4    7 1   
     9    4   33 1   
    10    4   34 1   
    11    5    6 2   
    12    5    7 1   
    13    5    8 1   
    14    8   35 1   
    15    8   36 1   
    16    8   37 1   
    17    9   10 1   
    18    9   13 1   
    19   10   11 2   
    20   10   12 1   
    21   12   41 1   
    22   13   14 1   
    23   13   48 1   
    24   14   15 1   
    25   14   38 1   
    26   15   16 1   
    27   15   18 1   
    28   15   39 1   
    29   16   17 2   
    30   16   40 1   
    31   18   19 1   
    32   18   49 1   
    33   19   20 2   
    34   19   21 1   
    35   21   22 2   
    36   21   25 1   
    37   22   23 1   
    38   23   24 1   
    39   24   42 1   
    40   24   43 1   
    41   24   44 1   
    42   25   26 2   
    43   25   30 1   
    44   26   27 1   
    45   26   45 1   
    46   27   28 1   
    47   28   29 1   
    48   28   30 2   
    49   29   46 1   
    50   29   47 1   
@<TRIPOS>SUBSTRUCTURE
     1 CEF         1 TEMP              0 ****  ****    0 ROOT
