@<TRIPOS>MOLECULE
CEF
   48    44     1     0     0
SMALL
bcc


@<TRIPOS>ATOM
      1 S1          0.9690   -1.0770    1.5810 ss        1 CEF     -0.040000
      2 C2          2.6650   -1.4280    1.7880 c3        1 CEF     -0.168000
      3 C3          3.3190   -1.7440    0.4620 c2        1 CEF     -0.229000
      4 C3'         4.0490   -3.1130    0.2530 c3        1 CEF      0.045000
      5 C2'         6.2380   -4.1440    0.2770 c1        1 CEF      0.301000
      6 O1'         5.7260   -5.1420   -0.2070 o         1 CEF     -0.376000
      7 O2'         5.4590   -2.9310    0.4290 o         1 CEF     -0.275000
      8 C1'         7.7330   -4.1470    0.6470 c3        1 CEF     -0.220000
      9 C4          2.6170   -0.8230   -1.0010 c1        1 CEF     -0.006000
     10 C4'         3.2340   -0.9940   -2.3650 c1        1 CEF      0.369000
     11 O4A         4.1320   -0.1960   -2.7560 o         1 CEF     -0.549500
     12 O4B         2.8820   -1.9570   -3.1020 o         1 CEF     -0.549500
     13 N5          1.1900   -0.4520   -0.8830 n3        1 CEF     -0.262000
     14 C6          0.6540   -0.0990    0.5570 c3        1 CEF     -0.070000
     15 C7         -0.9600    0.0390    0.4710 c3        1 CEF     -0.073000
     16 C8         -1.5580   -0.4600    1.7150 c2        1 CEF      0.171000
     17 O9         -1.2840    0.0750    2.7810 o         1 CEF     -0.303000
     18 N10        -1.3040    1.3710    0.2880 n         1 CEF     -0.350000
     19 C11        -2.5100    1.8900    0.8730 c2        1 CEF      0.336000
     20 O12        -2.7070    1.7610    2.0330 o         1 CEF     -0.341000
     21 C13        -3.4870    2.6820    0.0220 c2        1 CEF     -0.009000
     22 N16        -3.5140    4.0020    0.1030 n1        1 CEF     -0.018000
     23 O17        -2.6550    4.6550    0.9630 o         1 CEF     -0.223000
     24 C18        -3.0100    6.0440    1.0510 c3        1 CEF     -0.052000
     25 C14        -4.4320    1.9560   -0.9290 c2        1 CEF     -0.085000
     26 C15        -4.3400    1.9580   -2.3770 c1        1 CEF     -0.419000
     27 S16        -5.5620    1.2250   -2.9250 ss        1 CEF      0.646000
     28 C17        -6.4110    0.7720   -1.7200 c1        1 CEF     -0.304000
     29 N18        -7.6340   -0.0330   -1.7830 n2        1 CEF     -0.263000
     30 N19        -5.7440    1.2040   -0.5210 n2        1 CEF     -0.109000
     31 H21         3.0460   -0.7510    2.3730 h1        1 CEF      0.105500
     32 H22         2.8020   -2.2150    2.3270 h1        1 CEF      0.105500
     33 H3'1        3.8740   -3.4400   -0.6460 h1        1 CEF      0.116500
     34 H3'2        3.7200   -3.7650    0.9110 h1        1 CEF      0.116500
     35 H1'1        8.1610   -3.3420    0.2840 hc        1 CEF      0.104000
     36 H1'2        8.1650   -4.9490    0.2660 hc        1 CEF      0.104000
     37 H1'3        7.8290   -4.1570    1.6320 hc        1 CEF      0.104000
     38 H6          1.0240    0.7560    0.8230 h2        1 CEF      0.111000
     39 H7         -1.2850   -0.4790   -0.2680 h1        1 CEF      0.164000
     40 H88        -2.0890   -1.2920    1.7050 h4        1 CEF      0.117000
     41 HN1        -0.7500    1.9270   -0.1950 hn        1 CEF      0.233000
     42 H181       -2.9670    6.4530    0.1510 h1        1 CEF      0.084000
     43 H182       -2.3710    6.5130    1.6600 h1        1 CEF      0.084000
     44 H183       -3.9310    6.1290    1.4090 h1        1 CEF      0.084000
     45 H15        -3.6580    2.4240   -2.9110 DU        1 CEF      0.257000
     46 HN81       -7.7950   -0.5720   -2.5140 hn        1 CEF      0.156500
     47 HN82       -8.2600    0.0260   -1.1050 hn        1 CEF      0.156500
     48 HN2         0.7320   -0.1620   -1.6240 hn        1 CEF      0.223000
@<TRIPOS>BOND
     1    1    2 1   
     2    1   14 1   
     3    2    3 1   
     4    2   31 1   
     5    2   32 1   
     6    3    4 1   
     7    3    9 1   
     8    4    7 1   
     9    4   33 1   
    10    4   34 1   
    11    5    6 1   
    12    5    8 1   
    13    8   35 1   
    14    8   36 1   
    15    8   37 1   
    16    9   13 1   
    17   10   11 1   
    18   10   12 1   
    19   13   14 1   
    20   13   48 1   
    21   14   15 1   
    22   14   38 1   
    23   15   16 1   
    24   15   18 1   
    25   15   39 1   
    26   16   17 1   
    27   16   40 1   
    28   18   19 1   
    29   18   41 1   
    30   19   20 1   
    31   19   21 1   
    32   21   22 1   
    33   21   25 1   
    34   23   24 1   
    35   24   42 1   
    36   24   43 1   
    37   24   44 1   
    38   25   26 1   
    39   25   30 1   
    40   26   27 1   
    41   27   28 1   
    42   28   30 1   
    43   29   46 1   
    44   29   47 1   
@<TRIPOS>SUBSTRUCTURE
     1 CEF         1 TEMP              0 ****  ****    0 ROOT
