@<TRIPOS>MOLECULE
CEG
   30    31     1     0     0
SMALL
bcc


@<TRIPOS>ATOM
      1 C1         -1.2030    1.4900   -2.2090 c3        1 CEG      0.347900
      2 C2          0.4450    1.8890   -1.7850 c3        1 CEG      0.072100
      3 C3          1.0990    0.7710   -1.2250 c3        1 CEG      0.120100
      4 C4          0.2310    0.0660   -0.0560 c3        1 CEG      0.074100
      5 C5         -1.0700   -0.1820   -0.3390 c3        1 CEG      0.081100
      6 C6         -1.9440   -0.8820    0.8030 c3        1 CEG      0.145400
      7 C7          0.4270   -1.6090    1.8610 c3        1 CEG      0.199600
      8 C8          0.4800   -0.7550    2.8810 c         1 CEG      0.897600
      9 C9          1.1290   -2.8170    2.4460 c3        1 CEG     -0.067100
     10 O1         -1.8130    2.5700   -2.6480 oh        1 CEG     -0.591800
     11 O2          1.1080    2.2850   -2.8930 oh        1 CEG     -0.601800
     12 O3          2.3490    1.1940   -0.6790 oh        1 CEG     -0.628800
     13 O4          1.0740   -1.1300    0.7520 os        1 CEG     -0.431600
     14 O5         -1.8800    0.9970   -1.1200 os        1 CEG     -0.447600
     15 O6         -1.3200   -1.9970    1.3610 os        1 CEG     -0.430600
     16 O8A        -0.4550   -0.7210    3.7230 o         1 CEG     -0.812800
     17 O8B         1.4600    0.0260    2.9970 o         1 CEG     -0.812800
     18 H1         -1.1980    0.8130   -2.9170 h2        1 CEG      0.078700
     19 H2          0.4420    2.6200   -1.1330 h1        1 CEG      0.054700
     20 H3          1.2670    0.1150   -1.9330 h1        1 CEG      0.062700
     21 H4          0.1860    0.7760    0.6170 h1        1 CEG      0.109700
     22 H5         -1.0260   -0.8830   -1.0240 h1        1 CEG      0.046700
     23 H6A        -2.1160   -0.2280    1.5130 h1        1 CEG      0.064200
     24 H6B        -2.8000   -1.1610    0.4170 h1        1 CEG      0.064200
     25 H9A         1.0010   -3.5880    1.8540 hc        1 CEG      0.042700
     26 H9B         0.7530   -3.0170    3.3290 hc        1 CEG      0.042700
     27 H9C         2.0860   -2.6280    2.5330 hc        1 CEG      0.042700
     28 HO1        -2.4590    2.3360   -3.2160 ho        1 CEG      0.415000
     29 HO2         1.4020    1.5710   -3.3340 ho        1 CEG      0.416000
     30 HO3         2.3440    2.0780   -0.5760 ho        1 CEG      0.447000
@<TRIPOS>BOND
     1    1    2 1   
     2    1   10 1   
     3    1   14 1   
     4    1   18 1   
     5    2    3 1   
     6    2   11 1   
     7    2   19 1   
     8    3    4 1   
     9    3   12 1   
    10    3   20 1   
    11    4    5 1   
    12    4   13 1   
    13    4   21 1   
    14    5    6 1   
    15    5   14 1   
    16    5   22 1   
    17    6   15 1   
    18    6   23 1   
    19    6   24 1   
    20    7    8 1   
    21    7    9 1   
    22    7   13 1   
    23    7   15 1   
    24    8   16 1   
    25    8   17 1   
    26    9   25 1   
    27    9   26 1   
    28    9   27 1   
    29   10   28 1   
    30   11   29 1   
    31   12   30 1   
@<TRIPOS>SUBSTRUCTURE
     1 CEG         1 TEMP              0 ****  ****    0 ROOT
