@<TRIPOS>MOLECULE
CEG
   30    31     1     0     0
SMALL
bcc


@<TRIPOS>ATOM
      1 C1          0.9290    0.4010   -2.6410 c3        1 CEG      0.315900
      2 C2         -0.5050   -0.1620   -2.5530 c3        1 CEG      0.045100
      3 C3         -1.2540    0.3470   -1.3030 c3        1 CEG      0.156100
      4 C4         -0.3640    0.0520   -0.0910 c3        1 CEG      0.115100
      5 C5          0.9970    0.7420   -0.3090 c3        1 CEG      0.080100
      6 C6          1.8290    0.4860    0.9510 c3        1 CEG      0.140400
      7 C7         -0.1820    0.3610    2.2670 c3        1 CEG      0.209600
      8 C8         -0.0710   -1.1560    2.6480 c         1 CEG      0.910600
      9 C9         -0.8650    1.1640    3.3700 c3        1 CEG     -0.061100
     10 O1          1.6820   -0.3080   -3.5950 oh        1 CEG     -0.621800
     11 O2         -1.2560    0.2620   -3.6820 oh        1 CEG     -0.611800
     12 O3         -2.4720   -0.3590   -1.1630 oh        1 CEG     -0.568800
     13 O4         -0.9430    0.6220    1.0760 os        1 CEG     -0.428600
     14 O5          1.6730    0.2140   -1.4500 os        1 CEG     -0.438600
     15 O6          1.0880    0.9890    2.0540 os        1 CEG     -0.447600
     16 O8A         0.5090   -1.9390    1.8450 o         1 CEG     -0.819300
     17 O8B        -0.5620   -1.4970    3.7540 o         1 CEG     -0.819300
     18 H1          0.9230    1.4790   -2.9640 h2        1 CEG      0.067700
     19 H2         -0.4660   -1.2870   -2.5270 h1        1 CEG      0.064700
     20 H3         -1.4580    1.4480   -1.3960 h1        1 CEG      0.045700
     21 H4         -0.2350   -1.0600    0.0460 h1        1 CEG      0.129700
     22 H5          0.8500    1.8490   -0.4550 h1        1 CEG      0.040700
     23 H6A         2.7760    1.0830    0.9440 h1        1 CEG      0.070700
     24 H6B         2.0380   -0.6100    1.0710 h1        1 CEG      0.070700
     25 H9A        -0.2700    1.0500    4.3050 hc        1 CEG      0.041367
     26 H9B        -0.9360    2.2400    3.0890 hc        1 CEG      0.041367
     27 H9C        -1.8840    0.7410    3.5290 hc        1 CEG      0.041367
     28 HO1         2.0590   -1.0840   -3.1560 ho        1 CEG      0.428000
     29 HO2        -0.7530   -0.0120   -4.4590 ho        1 CEG      0.408000
     30 HO3        -2.9890   -0.1540   -1.9530 ho        1 CEG      0.395000
@<TRIPOS>BOND
     1    1    2 1   
     2    1   10 1   
     3    1   14 1   
     4    1   18 1   
     5    2    3 1   
     6    2   11 1   
     7    2   19 1   
     8    3    4 1   
     9    3   12 1   
    10    3   20 1   
    11    4    5 1   
    12    4   13 1   
    13    4   21 1   
    14    5    6 1   
    15    5   14 1   
    16    5   22 1   
    17    6   15 1   
    18    6   23 1   
    19    6   24 1   
    20    7    8 1   
    21    7    9 1   
    22    7   13 1   
    23    7   15 1   
    24    8   16 1   
    25    8   17 1   
    26    9   25 1   
    27    9   26 1   
    28    9   27 1   
    29   10   28 1   
    30   11   29 1   
    31   12   30 1   
@<TRIPOS>SUBSTRUCTURE
     1 CEG         1 TEMP              0 ****  ****    0 ROOT
