@<TRIPOS>MOLECULE
CEI
   53    56     1     0     0
SMALL
bcc


@<TRIPOS>ATOM
      1 O33         3.2580   -1.5180   -0.8050 o         1 CEI     -0.426100
      2 C2          2.2170   -1.0250   -0.4010 c         1 CEI      0.562100
      3 C10         1.2680   -1.5610    0.6360 c3        1 CEI     -0.083100
      4 C11         0.9120   -0.5410    1.6550 ca        1 CEI     -0.213300
      5 C12         1.7400   -0.3460    2.7710 ca        1 CEI     -0.079500
      6 C13         1.3980    0.5690    3.7550 ca        1 CEI     -0.183000
      7 C14         0.1970    1.2960    3.6300 ca        1 CEI      0.169100
      8 O17        -0.0800    2.1850    4.6300 oh        1 CEI     -0.472100
      9 C15        -0.6450    1.1000    2.5230 ca        1 CEI     -0.183000
     10 C16        -0.2840    0.1790    1.5450 ca        1 CEI     -0.079500
     11 N1          1.8390    0.3130   -1.0160 n4        1 CEI     -0.652500
     12 C9          1.1200    0.1210   -2.2850 ca        1 CEI      0.279900
     13 C8          1.7980    0.2250   -3.5410 ca        1 CEI      0.409300
     14 C26         3.2800    0.4660   -3.6160 c3        1 CEI     -0.117400
     15 C27         3.6730    1.7910   -3.0600 ca        1 CEI     -0.141300
     16 C28         3.1180    2.9700   -3.5710 ca        1 CEI     -0.138500
     17 C29         3.5330    4.2080   -3.0830 ca        1 CEI     -0.117500
     18 C30         4.5110    4.2780   -2.0900 ca        1 CEI     -0.108000
     19 C31         5.0750    3.1060   -1.5850 ca        1 CEI     -0.117500
     20 C32         4.6600    1.8660   -2.0670 ca        1 CEI     -0.138500
     21 N7          1.1040    0.0790   -4.6970 nb        1 CEI     -0.639000
     22 C6         -0.2230   -0.1790   -4.6330 cp        1 CEI      0.467500
     23 C5         -0.8720   -0.3120   -3.3480 ca        1 CEI      0.296900
     24 N4         -0.2200   -0.1620   -2.2000 nb        1 CEI     -0.622000
     25 C19        -1.0090   -0.3340   -5.8530 cp        1 CEI     -0.249500
     26 C20        -2.3770    0.0030   -5.8540 ca        1 CEI     -0.038500
     27 C21        -3.1410   -0.1420   -7.0000 ca        1 CEI     -0.196000
     28 C22        -2.5350   -0.6350   -8.1740 ca        1 CEI      0.184100
     29 O25        -3.3470   -0.7600   -9.2660 oh        1 CEI     -0.473100
     30 C23        -1.1710   -0.9660   -8.1900 ca        1 CEI     -0.196000
     31 C24        -0.4150   -0.8080   -7.0350 ca        1 CEI     -0.038500
     32 H101        1.7720   -2.4460    1.1180 hc        1 CEI      0.121200
     33 H102        0.3480   -1.9350    0.1030 hc        1 CEI      0.121200
     34 H12         2.6670   -0.9340    2.8770 ha        1 CEI      0.148000
     35 H13         2.0370    0.7290    4.6380 ha        1 CEI      0.165000
     36 H17        -0.9550    2.5730    4.4700 ho        1 CEI      0.437000
     37 H15        -1.5900    1.6580    2.4390 ha        1 CEI      0.165000
     38 H16        -0.9590    0.0040    0.6910 ha        1 CEI      0.148000
     39 HN1         2.6880    0.8710   -1.2070 hn        1 CEI      0.478800
     40 H261        3.7950   -0.3710   -3.0650 hc        1 CEI      0.101200
     41 H262        3.6320    0.4130   -4.6870 hc        1 CEI      0.101200
     42 H28         2.3650    2.9180   -4.3730 ha        1 CEI      0.144000
     43 H29         3.0990    5.1330   -3.4950 ha        1 CEI      0.152000
     44 H30         4.8460    5.2580   -1.7140 ha        1 CEI      0.154000
     45 H31         5.8630    3.1600   -0.8170 ha        1 CEI      0.152000
     46 H32         5.1420    0.9470   -1.6970 ha        1 CEI      0.144000
     47 H5         -1.9470   -0.5630   -3.2740 h4        1 CEI      0.066100
     48 H20        -2.8510    0.4070   -4.9460 ha        1 CEI      0.147000
     49 H21        -4.2100    0.1220   -7.0140 ha        1 CEI      0.162500
     50 H25        -2.8200   -1.0960  -10.0090 ho        1 CEI      0.438000
     51 H23        -0.7030   -1.3460   -9.1110 ha        1 CEI      0.162500
     52 H24         0.6560   -1.0660   -7.0560 ha        1 CEI      0.147000
     53 H121        1.2390    0.8240   -0.3490 hn        1 CEI      0.478800
@<TRIPOS>BOND
     1    1    2 2   
     2    2    3 1   
     3    2   11 1   
     4    3    4 1   
     5    3   32 1   
     6    3   33 1   
     7    4    5 ar  
     8    4   10 ar  
     9    5    6 ar  
    10    5   34 1   
    11    6    7 ar  
    12    6   35 1   
    13    7    8 1   
    14    7    9 ar  
    15    8   36 1   
    16    9   10 ar  
    17    9   37 1   
    18   10   38 1   
    19   11   12 1   
    20   11   39 1   
    21   11   53 1   
    22   12   13 ar  
    23   12   24 ar  
    24   13   14 1   
    25   13   21 ar  
    26   14   15 1   
    27   14   40 1   
    28   14   41 1   
    29   15   16 ar  
    30   15   20 ar  
    31   16   17 ar  
    32   16   42 1   
    33   17   18 ar  
    34   17   43 1   
    35   18   19 ar  
    36   18   44 1   
    37   19   20 ar  
    38   19   45 1   
    39   20   46 1   
    40   21   22 ar  
    41   22   23 ar  
    42   22   25 1   
    43   23   24 ar  
    44   23   47 1   
    45   25   26 ar  
    46   25   31 ar  
    47   26   27 ar  
    48   26   48 1   
    49   27   28 ar  
    50   27   49 1   
    51   28   29 1   
    52   28   30 ar  
    53   29   50 1   
    54   30   31 ar  
    55   30   51 1   
    56   31   52 1   
@<TRIPOS>SUBSTRUCTURE
     1 CEI         1 TEMP              0 ****  ****    0 ROOT
