@<TRIPOS>MOLECULE
CEI
   52    55     1     0     0
SMALL
bcc


@<TRIPOS>ATOM
      1 O33        -1.1030   -3.1350    1.8770 o         1 CEI     -0.551100
      2 C2         -0.1900   -2.3370    2.1360 c         1 CEI      0.668100
      3 C10         0.4200   -2.2710    3.5300 c3        1 CEI     -0.108100
      4 C11         0.3940   -0.9060    4.1150 ca        1 CEI     -0.136300
      5 C12         1.5040   -0.4230    4.8200 ca        1 CEI     -0.085500
      6 C13         1.4800    0.8350    5.4110 ca        1 CEI     -0.182500
      7 C14         0.3240    1.6230    5.2920 ca        1 CEI      0.130100
      8 O17         0.3590    2.8590    5.8940 oh        1 CEI     -0.496100
      9 C15        -0.7960    1.1520    4.5910 ca        1 CEI     -0.182500
     10 C16        -0.7540   -0.1110    4.0100 ca        1 CEI     -0.085500
     11 N1          0.3970   -1.5170    1.1710 n         1 CEI     -0.558400
     12 C9         -0.1540   -1.2320   -0.0910 ca        1 CEI      0.424900
     13 C8          0.7280   -0.9360   -1.2010 ca        1 CEI      0.284300
     14 C26         2.2200   -0.9510   -1.0100 c3        1 CEI     -0.085400
     15 C27         2.7040    0.2240   -0.2320 ca        1 CEI     -0.094300
     16 C28         2.4620    1.5250   -0.6920 ca        1 CEI     -0.130000
     17 C29         2.9470    2.6210    0.0170 ca        1 CEI     -0.125500
     18 C30         3.6820    2.4300    1.1870 ca        1 CEI     -0.126000
     19 C31         3.9320    1.1370    1.6460 ca        1 CEI     -0.125500
     20 C32         3.4430    0.0380    0.9410 ca        1 CEI     -0.130000
     21 N7          0.2400   -0.6490   -2.4250 nb        1 CEI     -0.621000
     22 C6         -1.1060   -0.6560   -2.5920 cp        1 CEI      0.333500
     23 C5         -1.9660   -0.9510   -1.4940 ca        1 CEI      0.314900
     24 N4         -1.5130   -1.2240   -0.2640 nb        1 CEI     -0.640000
     25 C19        -1.6860   -0.3610   -3.9070 cp        1 CEI     -0.177500
     26 C20        -2.8740    0.3820   -3.9920 ca        1 CEI     -0.067500
     27 C21        -3.4500    0.6620   -5.2240 ca        1 CEI     -0.190500
     28 C22        -2.8250    0.1940   -6.3930 ca        1 CEI      0.135100
     29 O25        -3.4420    0.5000   -7.5830 oh        1 CEI     -0.495100
     30 C23        -1.6350   -0.5430   -6.3240 ca        1 CEI     -0.190500
     31 C24        -1.0690   -0.8140   -5.0800 ca        1 CEI     -0.067500
     32 H101       -0.1770   -2.9670    4.1830 hc        1 CEI      0.081700
     33 H102        1.4700   -2.6670    3.4840 hc        1 CEI      0.081700
     34 H12         2.4060   -1.0470    4.9140 ha        1 CEI      0.141500
     35 H13         2.3460    1.2210    5.9680 ha        1 CEI      0.145500
     36 H17        -0.4940    3.2900    5.7410 ho        1 CEI      0.422000
     37 H15        -1.6990    1.7740    4.5030 ha        1 CEI      0.145500
     38 H16        -1.6310   -0.4900    3.4600 ha        1 CEI      0.141500
     39 HN1         1.1620   -0.9350    1.4410 hn        1 CEI      0.337500
     40 H261        2.7410   -0.9520   -2.0090 hc        1 CEI      0.073700
     41 H262        2.5020   -1.9110   -0.4970 hc        1 CEI      0.073700
     42 H28         1.8870    1.6740   -1.6200 ha        1 CEI      0.138000
     43 H29         2.7520    3.6400   -0.3490 ha        1 CEI      0.134000
     44 H30         4.0650    3.2960    1.7460 ha        1 CEI      0.135000
     45 H31         4.5150    0.9830    2.5660 ha        1 CEI      0.134000
     46 H32         3.6530   -0.9810    1.3030 ha        1 CEI      0.138000
     47 H5         -3.0640   -0.9700   -1.6170 h4        1 CEI      0.039100
     48 H20        -3.3550    0.7560   -3.0740 ha        1 CEI      0.143500
     49 H21        -4.3800    1.2430   -5.3010 ha        1 CEI      0.145000
     50 H25        -2.9110    0.1250   -8.3000 ho        1 CEI      0.421000
     51 H23        -1.1510   -0.9030   -7.2420 ha        1 CEI      0.145000
     52 H24        -0.1320   -1.3890   -5.0260 ha        1 CEI      0.143500
@<TRIPOS>BOND
     1    1    2 2   
     2    2    3 1   
     3    2   11 1   
     4    3    4 1   
     5    3   32 1   
     6    3   33 1   
     7    4    5 ar  
     8    4   10 ar  
     9    5    6 ar  
    10    5   34 1   
    11    6    7 ar  
    12    6   35 1   
    13    7    8 1   
    14    7    9 ar  
    15    8   36 1   
    16    9   10 ar  
    17    9   37 1   
    18   10   38 1   
    19   11   12 1   
    20   11   39 1   
    21   12   13 ar  
    22   12   24 ar  
    23   13   14 1   
    24   13   21 ar  
    25   14   15 1   
    26   14   40 1   
    27   14   41 1   
    28   15   16 ar  
    29   15   20 ar  
    30   16   17 ar  
    31   16   42 1   
    32   17   18 ar  
    33   17   43 1   
    34   18   19 ar  
    35   18   44 1   
    36   19   20 ar  
    37   19   45 1   
    38   20   46 1   
    39   21   22 ar  
    40   22   23 ar  
    41   22   25 1   
    42   23   24 ar  
    43   23   47 1   
    44   25   26 ar  
    45   25   31 ar  
    46   26   27 ar  
    47   26   48 1   
    48   27   28 ar  
    49   27   49 1   
    50   28   29 1   
    51   28   30 ar  
    52   29   50 1   
    53   30   31 ar  
    54   30   51 1   
    55   31   52 1   
@<TRIPOS>SUBSTRUCTURE
     1 CEI         1 TEMP              0 ****  ****    0 ROOT
