@<TRIPOS>MOLECULE
CEI
   52    55     1     0     0
SMALL
bcc


@<TRIPOS>ATOM
      1 O33         1.0720   -2.8540   -0.4990 o         1 CEI     -0.551100
      2 C2          1.6130   -1.7660   -0.2530 c         1 CEI      0.668100
      3 C10         2.2230   -1.4870    1.1140 c3        1 CEI     -0.108100
      4 C11         1.6890   -0.2570    1.7520 ca        1 CEI     -0.135300
      5 C12         2.5540    0.6160    2.4250 ca        1 CEI     -0.085500
      6 C13         2.0650    1.7500    3.0640 ca        1 CEI     -0.182500
      7 C14         0.6850    2.0120    3.0280 ca        1 CEI      0.130100
      8 O17         0.2600    3.1490    3.6750 oh        1 CEI     -0.496100
      9 C15        -0.1930    1.1460    2.3610 ca        1 CEI     -0.182500
     10 C16         0.3160    0.0150    1.7290 ca        1 CEI     -0.085500
     11 N1          1.7780   -0.7660   -1.2120 ns        1 CEI     -0.558400
     12 C9          1.0960   -0.7040   -2.4400 ca        1 CEI      0.425900
     13 C8          1.7310   -0.0610   -3.5730 ca        1 CEI      0.284300
     14 C26         3.1140    0.5140   -3.4430 c3        1 CEI     -0.086400
     15 C27         3.1320    1.7720   -2.6440 ca        1 CEI     -0.093300
     16 C28         2.3720    2.8770   -3.0490 ca        1 CEI     -0.130000
     17 C29         2.4190    4.0650   -2.3220 ca        1 CEI     -0.125500
     18 C30         3.2280    4.1620   -1.1890 ca        1 CEI     -0.126000
     19 C31         3.9910    3.0670   -0.7860 ca        1 CEI     -0.125500
     20 C32         3.9430    1.8760   -1.5080 ca        1 CEI     -0.130000
     21 N7          1.1070    0.0290   -4.7660 nb        1 CEI     -0.620000
     22 C6         -0.1320   -0.5110   -4.8800 cp        1 CEI      0.333500
     23 C5         -0.7470   -1.1430   -3.7600 ca        1 CEI      0.314900
     24 N4         -0.1610   -1.2340   -2.5590 nb        1 CEI     -0.640000
     25 C19        -0.8470   -0.4480   -6.1600 cp        1 CEI     -0.176500
     26 C20        -2.2330   -0.2430   -6.1720 ca        1 CEI     -0.068000
     27 C21        -2.9300   -0.1950   -7.3750 ca        1 CEI     -0.190500
     28 C22        -2.2310   -0.3510   -8.5810 ca        1 CEI      0.135100
     29 O25        -2.8500   -0.3170   -9.8080 oh        1 CEI     -0.494100
     30 C23        -0.8400   -0.5500   -8.5840 ca        1 CEI     -0.190500
     31 C24        -0.1590   -0.5940   -7.3740 ca        1 CEI     -0.068000
     32 H101        3.3390   -1.4310    1.0060 hc        1 CEI      0.081700
     33 H102        1.9900   -2.3760    1.7650 hc        1 CEI      0.081700
     34 H12         3.6340    0.4040    2.4540 ha        1 CEI      0.141500
     35 H13         2.7350    2.4390    3.5960 ha        1 CEI      0.145500
     36 H17        -0.7020    3.2050    3.5780 ho        1 CEI      0.421000
     37 H15        -1.2710    1.3560    2.3370 ha        1 CEI      0.145500
     38 H16        -0.3670   -0.6730    1.2050 ha        1 CEI      0.141500
     39 HN1         2.2670    0.0650   -0.9560 hn        1 CEI      0.337500
     40 H261        3.7790   -0.2620   -2.9760 hc        1 CEI      0.074200
     41 H262        3.5420    0.7370   -4.4620 hc        1 CEI      0.074200
     42 H28         1.7400    2.8010   -3.9480 ha        1 CEI      0.138000
     43 H29         1.8190    4.9280   -2.6460 ha        1 CEI      0.134000
     44 H30         3.2640    5.1010   -0.6170 ha        1 CEI      0.135000
     45 H31         4.6330    3.1430    0.1040 ha        1 CEI      0.134000
     46 H32         4.5560    1.0190   -1.1920 ha        1 CEI      0.138000
     47 H5         -1.7510   -1.5960   -3.8410 h4        1 CEI      0.038100
     48 H20        -2.7790   -0.1090   -5.2250 ha        1 CEI      0.144000
     49 H21        -4.0170   -0.0330   -7.3800 ha        1 CEI      0.145000
     50 H25        -3.7970   -0.1750   -9.6620 ho        1 CEI      0.420000
     51 H23        -0.3120   -0.6670   -9.5410 ha        1 CEI      0.145000
     52 H24         0.9320   -0.7460   -7.3730 ha        1 CEI      0.144000
@<TRIPOS>BOND
     1    1    2 2   
     2    2    3 1   
     3    2   11 1   
     4    3    4 1   
     5    3   32 1   
     6    3   33 1   
     7    4    5 ar  
     8    4   10 ar  
     9    5    6 ar  
    10    5   34 1   
    11    6    7 ar  
    12    6   35 1   
    13    7    8 1   
    14    7    9 ar  
    15    8   36 1   
    16    9   10 ar  
    17    9   37 1   
    18   10   38 1   
    19   11   12 1   
    20   11   39 1   
    21   12   13 ar  
    22   12   24 ar  
    23   13   14 1   
    24   13   21 ar  
    25   14   15 1   
    26   14   40 1   
    27   14   41 1   
    28   15   16 ar  
    29   15   20 ar  
    30   16   17 ar  
    31   16   42 1   
    32   17   18 ar  
    33   17   43 1   
    34   18   19 ar  
    35   18   44 1   
    36   19   20 ar  
    37   19   45 1   
    38   20   46 1   
    39   21   22 ar  
    40   22   23 ar  
    41   22   25 1   
    42   23   24 ar  
    43   23   47 1   
    44   25   26 ar  
    45   25   31 ar  
    46   26   27 ar  
    47   26   48 1   
    48   27   28 ar  
    49   27   49 1   
    50   28   29 1   
    51   28   30 ar  
    52   29   50 1   
    53   30   31 ar  
    54   30   51 1   
    55   31   52 1   
@<TRIPOS>SUBSTRUCTURE
     1 CEI         1 TEMP              0 ****  ****    0 ROOT
