@<TRIPOS>MOLECULE
CEI
   52    44     1     0     0
SMALL
bcc


@<TRIPOS>ATOM
      1 O33        -1.0630    0.0520    2.9730 o         1 CEI     -0.343000
      2 C2          0.1500    0.1110    2.9420 c1        1 CEI      0.298000
      3 C10         0.9440    0.0730    4.2340 c2        1 CEI     -0.140000
      4 C11         0.2670   -0.8620    5.2160 c2        1 CEI     -0.134000
      5 C12         0.6980   -2.1750    5.3320 c1        1 CEI     -0.098000
      6 C13         0.1000   -3.0220    6.2530 c1        1 CEI     -0.155000
      7 C14        -0.9290   -2.5560    7.0570 c1        1 CEI      0.089000
      8 O17        -1.5780   -3.4320    7.9470 o         1 CEI     -0.247000
      9 C15        -1.3590   -1.2430    6.9410 c2        1 CEI     -0.210000
     10 C16        -0.7610   -0.3960    6.0210 c2        1 CEI     -0.073000
     11 N1          0.8220    0.2690    1.6980 n3        1 CEI     -0.299000
     12 C9          0.0730    0.3580    0.4910 c2        1 CEI      0.028000
     13 C8          0.7300    0.4010   -0.7300 c2        1 CEI     -0.009000
     14 C26         2.2420    0.4210   -0.7740 c3        1 CEI     -0.082000
     15 C27         2.7010    0.9760   -2.1060 c2        1 CEI     -0.058000
     16 C28         3.4580    2.1370   -2.1480 c2        1 CEI     -0.116000
     17 C29         3.9420    2.6050   -3.3600 c1        1 CEI     -0.133000
     18 C30         3.6690    1.9130   -4.5300 c1        1 CEI     -0.132250
     19 C31         2.9120    0.7530   -4.4870 c1        1 CEI     -0.132250
     20 C32         2.4280    0.2840   -3.2760 c1        1 CEI     -0.115000
     21 N7          0.0250    0.4060   -1.8720 n1        1 CEI     -0.096000
     22 C6         -1.3150    0.3700   -1.8330 c1        1 CEI     -0.042000
     23 C5         -1.9720    0.3270   -0.6120 c1        1 CEI     -0.093500
     24 N4         -1.2670    0.3220    0.5300 n1        1 CEI     -0.132000
     25 C19        -2.0410    0.2650   -3.0140 c1        1 CEI     -0.042000
     26 C20        -2.5500    1.4050   -3.6170 c1        1 CEI     -0.132250
     27 C21        -3.2640    1.3020   -4.8020 c1        1 CEI     -0.132250
     28 C22        -3.4680    0.0600   -5.3830 c1        1 CEI      0.092000
     29 O25        -4.2320   -0.0500   -6.5600 oh        1 CEI     -0.249000
     30 C23        -2.9580   -1.0800   -4.7790 c1        1 CEI     -0.163000
     31 C24        -2.2440   -0.9770   -3.5950 c1        1 CEI     -0.093500
     32 H101        0.9870    0.9720    4.6160 ha        1 CEI      0.124000
     33 H102        1.8500   -0.2470    4.0500 ha        1 CEI      0.124000
     34 H12         1.4220   -2.5030    4.7660 ha        1 CEI      0.137000
     35 H13         0.4030   -3.9460    6.3350 ha        1 CEI      0.155000
     36 H17        -1.2460   -3.3240    8.7650 ho        1 CEI      0.222000
     37 H15        -2.0840   -0.9150    7.5080 ha        1 CEI      0.139000
     38 H16        -1.0640    0.5280    5.9390 ha        1 CEI      0.142000
     39 HN1         1.7330    0.2790    1.6710 hn        1 CEI      0.236000
     40 H261        2.5830    0.9850   -0.0510 hc        1 CEI      0.118000
     41 H262        2.5830   -0.4890   -0.6660 hc        1 CEI      0.118000
     42 H28         3.6500    2.6240   -1.3250 ha        1 CEI      0.136000
     43 H29         4.4750    3.4220   -3.3900 ha        1 CEI      0.129000
     44 H30         4.0100    2.2420   -5.3830 ha        1 CEI      0.137750
     45 H31         2.7190    0.2650   -5.3110 ha        1 CEI      0.137750
     46 H32         1.8950   -0.5330   -3.2460 ha        1 CEI      0.129000
     47 H5         -2.9470    0.3000   -0.5830 ha        1 CEI      0.155000
     48 H20        -2.4070    2.2790   -3.2090 ha        1 CEI      0.137750
     49 H21        -3.6230    2.1040   -5.2270 ha        1 CEI      0.137750
     50 H25        -4.1110    0.6750   -7.0590 ho        1 CEI      0.221000
     51 H23        -3.1010   -1.9550   -5.1880 ha        1 CEI      0.153000
     52 H24        -1.8860   -1.7790   -3.1700 ha        1 CEI      0.155000
@<TRIPOS>BOND
     1    1    2 1   
     2    2   11 1   
     3    3    4 1   
     4    3   32 1   
     5    3   33 1   
     6    4    5 1   
     7    4   10 1   
     8    5   34 1   
     9    6    7 1   
    10    6   35 1   
    11    7    9 1   
    12    8   36 1   
    13    9   10 1   
    14    9   37 1   
    15   10   38 1   
    16   11   12 1   
    17   11   39 1   
    18   12   13 1   
    19   12   24 1   
    20   13   14 1   
    21   13   21 1   
    22   14   15 1   
    23   14   40 1   
    24   14   41 1   
    25   15   16 1   
    26   15   20 1   
    27   16   17 1   
    28   16   42 1   
    29   17   43 1   
    30   18   19 1   
    31   18   44 1   
    32   19   45 1   
    33   20   46 1   
    34   22   23 1   
    35   23   47 1   
    36   25   31 1   
    37   26   27 1   
    38   26   48 1   
    39   27   49 1   
    40   28   29 1   
    41   28   30 1   
    42   29   50 1   
    43   30   51 1   
    44   31   52 1   
@<TRIPOS>SUBSTRUCTURE
     1 CEI         1 TEMP              0 ****  ****    0 ROOT
