@<TRIPOS>MOLECULE
CEI
   52    55     1     0     0
SMALL
bcc


@<TRIPOS>ATOM
      1 O33         1.0770   -2.8460   -0.4810 o         1 CEI     -0.551100
      2 C2          1.6130   -1.7550   -0.2390 c         1 CEI      0.668100
      3 C10         2.2190   -1.4680    1.1290 c3        1 CEI     -0.108100
      4 C11         1.6810   -0.2350    1.7590 ca        1 CEI     -0.135300
      5 C12         2.5430    0.6430    2.4300 ca        1 CEI     -0.085500
      6 C13         2.0510    1.7790    3.0620 ca        1 CEI     -0.182500
      7 C14         0.6710    2.0390    3.0200 ca        1 CEI      0.130100
      8 O17         0.2420    3.1790    3.6590 oh        1 CEI     -0.496100
      9 C15        -0.2040    1.1690    2.3540 ca        1 CEI     -0.182500
     10 C16         0.3080    0.0350    1.7300 ca        1 CEI     -0.085500
     11 N1          1.7770   -0.7590   -1.2020 n         1 CEI     -0.558400
     12 C9          1.0990   -0.7050   -2.4330 ca        1 CEI      0.425900
     13 C8          1.7360   -0.0660   -3.5670 ca        1 CEI      0.284300
     14 C26         3.1160    0.5150   -3.4350 c3        1 CEI     -0.086400
     15 C27         3.1260    1.7780   -2.6430 ca        1 CEI     -0.093300
     16 C28         2.3650    2.8780   -3.0580 ca        1 CEI     -0.130000
     17 C29         2.4050    4.0700   -2.3380 ca        1 CEI     -0.125500
     18 C30         3.2080    4.1770   -1.2020 ca        1 CEI     -0.126000
     19 C31         3.9730    3.0870   -0.7890 ca        1 CEI     -0.125500
     20 C32         3.9320    1.8910   -1.5040 ca        1 CEI     -0.130000
     21 N7          1.1160    0.0160   -4.7620 nb        1 CEI     -0.620000
     22 C6         -0.1210   -0.5290   -4.8770 cp        1 CEI      0.333500
     23 C5         -0.7380   -1.1580   -3.7570 ca        1 CEI      0.314900
     24 N4         -0.1550   -1.2400   -2.5540 nb        1 CEI     -0.640000
     25 C19        -0.8320   -0.4740   -6.1600 cp        1 CEI     -0.176500
     26 C20        -2.2180   -0.2740   -6.1780 ca        1 CEI     -0.068000
     27 C21        -2.9120   -0.2340   -7.3830 ca        1 CEI     -0.190500
     28 C22        -2.2080   -0.3940   -8.5860 ca        1 CEI      0.135100
     29 O25        -2.8230   -0.3680   -9.8150 oh        1 CEI     -0.494100
     30 C23        -0.8160   -0.5880   -8.5840 ca        1 CEI     -0.190500
     31 C24        -0.1390   -0.6240   -7.3710 ca        1 CEI     -0.068000
     32 H101        1.9850   -2.3530    1.7840 hc        1 CEI      0.081700
     33 H102        3.3350   -1.4100    1.0240 hc        1 CEI      0.081700
     34 H12         3.6230    0.4310    2.4630 ha        1 CEI      0.141500
     35 H13         2.7190    2.4720    3.5920 ha        1 CEI      0.145500
     36 H17        -0.7190    3.2340    3.5590 ho        1 CEI      0.421000
     37 H15        -1.2820    1.3780    2.3260 ha        1 CEI      0.145500
     38 H16        -0.3720   -0.6560    1.2070 ha        1 CEI      0.141500
     39 HN1         2.2630    0.0750   -0.9480 hn        1 CEI      0.337500
     40 H261        3.5470    0.7340   -4.4530 hc        1 CEI      0.074200
     41 H262        3.7830   -0.2560   -2.9600 hc        1 CEI      0.074200
     42 H28         1.7370    2.7950   -3.9590 ha        1 CEI      0.138000
     43 H29         1.8030    4.9290   -2.6690 ha        1 CEI      0.134000
     44 H30         3.2380    5.1190   -0.6350 ha        1 CEI      0.135000
     45 H31         4.6110    3.1700    0.1040 ha        1 CEI      0.134000
     46 H32         4.5470    1.0380   -1.1800 ha        1 CEI      0.138000
     47 H5         -1.7400   -1.6140   -3.8390 h4        1 CEI      0.038100
     48 H20        -2.7680   -0.1380   -5.2340 ha        1 CEI      0.144000
     49 H21        -3.9990   -0.0770   -7.3930 ha        1 CEI      0.145000
     50 H25        -3.7710   -0.2290   -9.6730 ho        1 CEI      0.420000
     51 H23        -0.2840   -0.7080   -9.5380 ha        1 CEI      0.145000
     52 H24         0.9530   -0.7720   -7.3660 ha        1 CEI      0.144000
@<TRIPOS>BOND
     1    1    2 2   
     2    2    3 1   
     3    2   11 1   
     4    3    4 1   
     5    3   32 1   
     6    3   33 1   
     7    4    5 ar  
     8    4   10 ar  
     9    5    6 ar  
    10    5   34 1   
    11    6    7 ar  
    12    6   35 1   
    13    7    8 1   
    14    7    9 ar  
    15    8   36 1   
    16    9   10 ar  
    17    9   37 1   
    18   10   38 1   
    19   11   12 1   
    20   11   39 1   
    21   12   13 ar  
    22   12   24 ar  
    23   13   14 1   
    24   13   21 ar  
    25   14   15 1   
    26   14   40 1   
    27   14   41 1   
    28   15   16 ar  
    29   15   20 ar  
    30   16   17 ar  
    31   16   42 1   
    32   17   18 ar  
    33   17   43 1   
    34   18   19 ar  
    35   18   44 1   
    36   19   20 ar  
    37   19   45 1   
    38   20   46 1   
    39   21   22 ar  
    40   22   23 ar  
    41   22   25 1   
    42   23   24 ar  
    43   23   47 1   
    44   25   26 ar  
    45   25   31 ar  
    46   26   27 ar  
    47   26   48 1   
    48   27   28 ar  
    49   27   49 1   
    50   28   29 1   
    51   28   30 ar  
    52   29   50 1   
    53   30   31 ar  
    54   30   51 1   
    55   31   52 1   
@<TRIPOS>SUBSTRUCTURE
     1 CEI         1 TEMP              0 ****  ****    0 ROOT
