@<TRIPOS>MOLECULE
CEJ
   13    13     1     0     0
SMALL
bcc


@<TRIPOS>ATOM
      1 C1         -0.0130   -0.0720    0.0040 c3        1 CEJ     -0.189400
      2 O3          2.2120   -0.2300   -0.9660 o         1 CEJ     -0.511100
      3 C2          1.4960   -0.0810    0.0220 c         1 CEJ      0.573100
      4 C7          0.7660    0.2550    2.2900 c         1 CEJ      0.573100
      5 C5         -0.4750    0.1400    1.4380 c3        1 CEJ     -0.189400
      6 O8          0.7720    0.4320    3.5060 o         1 CEJ     -0.511100
      7 C10         1.9940    0.1210    1.4290 c3        1 CEJ     -0.302400
      8 H1C1       -0.3900   -1.0420   -0.4090 hc        1 CEJ      0.083700
      9 H1C2       -0.3770    0.7450   -0.6690 hc        1 CEJ      0.083700
     10 H5C1       -1.1010   -0.7150    1.7990 hc        1 CEJ      0.083700
     11 H5C2       -1.0880    1.0720    1.5380 hc        1 CEJ      0.083700
     12 H101        2.6190   -0.7490    1.7590 hc        1 CEJ      0.110700
     13 H102        2.6320    1.0400    1.4980 hc        1 CEJ      0.110700
@<TRIPOS>BOND
     1    1    3 1   
     2    1    5 1   
     3    1    8 1   
     4    1    9 1   
     5    2    3 2   
     6    3    7 1   
     7    4    5 1   
     8    4    6 2   
     9    4    7 1   
    10    5   10 1   
    11    5   11 1   
    12    7   12 1   
    13    7   13 1   
@<TRIPOS>SUBSTRUCTURE
     1 CEJ         1 TEMP              0 ****  ****    0 ROOT
