@<TRIPOS>MOLECULE
CEJ
   13    13     1     0     0
SMALL
bcc


@<TRIPOS>ATOM
      1 C1         -0.7400    1.2890   -0.0430 c3        1 CEJ     -0.189400
      2 O3         -2.3730   -0.5140    0.0230 o         1 CEJ     -0.511100
      3 C2         -1.2020   -0.1440    0.0720 c         1 CEJ      0.573100
      4 C7          1.1980   -0.1590    0.2540 c         1 CEJ      0.573100
      5 C5          0.7760    1.2790    0.0710 c3        1 CEJ     -0.189400
      6 O8          2.3580   -0.5430    0.3810 o         1 CEJ     -0.511100
      7 C10        -0.0150   -1.0530    0.2560 c3        1 CEJ     -0.302400
      8 H1C1       -1.0750    1.7140   -1.0240 hc        1 CEJ      0.083700
      9 H1C2       -1.2100    1.9010    0.7680 hc        1 CEJ      0.083700
     10 H5C1        1.2600    1.7000   -0.8470 hc        1 CEJ      0.083700
     11 H5C2        1.1260    1.8870    0.9450 hc        1 CEJ      0.083700
     12 H101       -0.0910   -1.6180    1.2210 hc        1 CEJ      0.110700
     13 H102        0.0440   -1.8050   -0.5730 hc        1 CEJ      0.110700
@<TRIPOS>BOND
     1    1    3 1   
     2    1    5 1   
     3    1    8 1   
     4    1    9 1   
     5    2    3 2   
     6    3    7 1   
     7    4    5 1   
     8    4    6 2   
     9    4    7 1   
    10    5   10 1   
    11    5   11 1   
    12    7   12 1   
    13    7   13 1   
@<TRIPOS>SUBSTRUCTURE
     1 CEJ         1 TEMP              0 ****  ****    0 ROOT
