@<TRIPOS>MOLECULE
CEJ
   13    12     1     0     0
SMALL
bcc


@<TRIPOS>ATOM
      1 C1         -0.8210   -0.0080   -0.9870 c3        1 CEJ     -0.218000
      2 O3          1.5010   -0.1840   -1.9530 o         1 CEJ     -0.272000
      3 C2          0.7870   -0.0080   -0.9870 c2        1 CEJ      0.234000
      4 C7          0.1460   -0.0080    1.1830 c1        1 CEJ      0.234000
      5 C5         -1.1160   -0.0080    0.3390 c2        1 CEJ     -0.218000
      6 O8          0.3190    0.6290    2.2030 o         1 CEJ     -0.272000
      7 C10         1.2710   -0.0080    0.5090 c3        1 CEJ     -0.281000
      8 H1C1       -1.2180   -0.7310   -1.5090 hc        1 CEJ      0.123000
      9 H1C2       -1.1880    0.7810   -1.4290 hc        1 CEJ      0.123000
     10 H5C1       -1.7910    0.6050    0.6890 ha        1 CEJ      0.123000
     11 H5C2       -1.5790   -0.8560    0.4760 ha        1 CEJ      0.123000
     12 H101        1.9390    0.6410    0.8020 hc        1 CEJ      0.150000
     13 H102        1.7510   -0.8440    0.6630 hc        1 CEJ      0.150000
@<TRIPOS>BOND
     1    1    3 1   
     2    1    5 1   
     3    1    8 1   
     4    1    9 1   
     5    2    3 1   
     6    3    7 1   
     7    4    6 1   
     8    4    7 1   
     9    5   10 1   
    10    5   11 1   
    11    7   12 1   
    12    7   13 1   
@<TRIPOS>SUBSTRUCTURE
     1 CEJ         1 TEMP              0 ****  ****    0 ROOT
