@<TRIPOS>MOLECULE
CEK
   59    56     1     0     0
SMALL
bcc


@<TRIPOS>ATOM
      1 C1         -2.5540   -1.8400    6.5090 c3        1 CEK     -0.263000
      2 C2         -2.1170   -0.5310    5.8560 c2        1 CEK      0.296000
      3 O3         -2.3460    0.5000    6.3930 o         1 CEK     -0.266000
      4 C4         -1.3560   -0.5470    4.5230 c2        1 CEK     -0.312000
      5 C5         -2.1010   -0.3770    3.2230 c2        1 CEK      0.305000
      6 C6         -1.3340   -0.4890    1.8680 c3        1 CEK     -0.025000
      7 C7          0.1460   -0.4700    1.8790 c2        1 CEK      0.086000
      8 C8          0.9110   -0.6840    3.1990 c1        1 CEK     -0.240000
      9 C9          0.1710   -0.6480    4.5120 c1        1 CEK      0.181000
     10 O10         0.5800    0.5620    0.9470 os        1 CEK     -0.099000
     11 C11        -0.6420    1.1370    0.2870 c2        1 CEK      0.157000
     12 C12        -1.7750    0.6780    0.9910 c2        1 CEK     -0.200000
     13 C13        -0.7880    2.1010   -0.7220 c1        1 CEK     -0.182000
     14 C14        -2.0700    2.6130   -1.0340 c1        1 CEK      0.173000
     15 C15        -3.2060    2.1520   -0.3270 c1        1 CEK     -0.321000
     16 C16        -3.0620    1.1920    0.6780 c1        1 CEK      0.200000
     17 C17        -1.7900   -1.8070    1.1800 c3        1 CEK     -0.197000
     18 O18        -3.2680   -0.1290    3.2280 o         1 CEK     -0.242000
     19 O19         0.8620   -0.7300    5.6870 oh        1 CEK     -0.241000
     20 O20        -4.2450    1.1040    1.4950 oh        1 CEK     -0.218000
     21 O21        -2.1840    3.7530   -1.8860 os        1 CEK     -0.210000
     22 C22        -3.1580    3.6170   -2.9020 c3        1 CEK     -0.077000
     23 C23         0.4810    2.6390   -1.4910 c2        1 CEK      0.374000
     24 O24         0.9880    3.6980   -1.1620 o         1 CEK     -0.366000
     25 N25         0.9320    1.9820   -2.6130 n         1 CEK     -0.367000
     26 C26         2.3780    1.7440   -2.7940 c3        1 CEK      0.012000
     27 C27         2.5990    0.3510   -3.2870 c2        1 CEK     -0.088000
     28 C28         3.1000   -0.8180   -2.6640 c2        1 CEK     -0.020000
     29 C29         3.1830   -1.9950   -3.3770 c1        1 CEK     -0.040000
     30 C30         2.7640   -2.0290   -4.7380 c1        1 CEK     -0.124750
     31 C31         2.2730   -0.8770   -5.3420 c1        1 CEK     -0.124750
     32 C32         2.1900    0.3130   -4.6160 c1        1 CEK     -0.122000
     33 C33         3.6920   -3.1420   -2.7710 c1        1 CEK     -0.123000
     34 C34         4.1160   -3.1000   -1.4500 c1        1 CEK     -0.124750
     35 C35         4.0340   -1.9090   -0.7260 c1        1 CEK     -0.124750
     36 C36         3.5300   -0.7740   -1.3250 c1        1 CEK     -0.118000
     37 H1         -2.9070   -1.6570    7.3670 hc        1 CEK      0.104667
     38 H1A        -3.2520   -2.2740    5.9490 hc        1 CEK      0.104667
     39 H1B        -1.8110   -2.4170    6.5910 hc        1 CEK      0.104667
     40 H15        -4.0930    2.5060   -0.5430 ha        1 CEK      0.149000
     41 H17        -2.7710   -1.8960    1.2590 hc        1 CEK      0.097000
     42 H17A       -1.5320   -1.7840    0.2060 hc        1 CEK      0.097000
     43 H17B       -1.3570   -2.5720    1.6150 hc        1 CEK      0.097000
     44 HO19        1.3090   -1.4980    5.7150 ho        1 CEK      0.233000
     45 HO20       -4.8720    0.6530    1.0600 ho        1 CEK      0.228000
     46 H22        -3.1690    4.4570   -3.4780 h1        1 CEK      0.092000
     47 H22A       -4.0580    3.4880   -2.4840 h1        1 CEK      0.092000
     48 H22B       -2.9380    2.8250   -3.4730 h1        1 CEK      0.092000
     49 HN25        0.3530    1.7950   -3.2920 hn        1 CEK      0.234000
     50 H26         2.8400    1.8620   -1.9340 h1        1 CEK      0.106000
     51 H26A        2.7400    2.3910   -3.4570 h1        1 CEK      0.106000
     52 H30         2.8250   -2.8940   -5.2700 ha        1 CEK      0.131750
     53 H31         1.9800   -0.9010   -6.2870 ha        1 CEK      0.131750
     54 H32         1.8530    1.1030   -5.0350 ha        1 CEK      0.129000
     55 H33         3.7480   -3.9700   -3.2720 ha        1 CEK      0.131000
     56 H34         4.4660   -3.8920   -1.0330 ha        1 CEK      0.131750
     57 H35         4.3300   -1.8810    0.1940 ha        1 CEK      0.131750
     58 H36         3.4710    0.0720   -0.8130 ha        1 CEK      0.162000
     59 H8          1.9090   -0.7520    3.1890 ha        1 CEK      0.168000
@<TRIPOS>BOND
     1    1    2 1   
     2    1   37 1   
     3    1   38 1   
     4    1   39 1   
     5    2    3 1   
     6    2    4 1   
     7    4    5 1   
     8    4    9 1   
     9    5    6 1   
    10    5   18 1   
    11    6    7 1   
    12    6   12 1   
    13    6   17 1   
    14    7    8 1   
    15    7   10 1   
    16    8   59 1   
    17    9   19 1   
    18   10   11 1   
    19   11   12 1   
    20   11   13 1   
    21   12   16 1   
    22   13   23 1   
    23   14   15 1   
    24   14   21 1   
    25   15   40 1   
    26   16   20 1   
    27   17   41 1   
    28   17   42 1   
    29   17   43 1   
    30   19   44 1   
    31   20   45 1   
    32   21   22 1   
    33   22   46 1   
    34   22   47 1   
    35   22   48 1   
    36   23   24 1   
    37   23   25 1   
    38   25   26 1   
    39   25   49 1   
    40   26   27 1   
    41   26   50 1   
    42   26   51 1   
    43   27   28 1   
    44   27   32 1   
    45   28   29 1   
    46   28   36 1   
    47   29   33 1   
    48   30   31 1   
    49   30   52 1   
    50   31   53 1   
    51   32   54 1   
    52   33   55 1   
    53   34   35 1   
    54   34   56 1   
    55   35   57 1   
    56   36   58 1   
@<TRIPOS>SUBSTRUCTURE
     1 CEK         1 TEMP              0 ****  ****    0 ROOT
