@<TRIPOS>MOLECULE
CEK
   60    64     1     0     0
SMALL
bcc


@<TRIPOS>ATOM
      1 C1          0.2080   -0.5640    0.2290 c3        1 CEK     -0.198100
      2 C2          1.0890    0.6380    0.3080 c         1 CEK      0.602300
      3 O3          1.1520    1.3620    1.3040 o         1 CEK     -0.497100
      4 C4          1.9020    0.9260   -0.9030 ce        1 CEK     -0.339400
      5 C5          1.2090    0.9780   -2.2040 c         1 CEK      0.611300
      6 C6          2.1280    0.7630   -3.4060 c3        1 CEK     -0.059500
      7 C7          3.4220    1.5240   -3.1640 c2        1 CEK      0.093900
      8 C8          4.0000    1.6900   -1.9650 cf        1 CEK     -0.195000
      9 C9          3.2370    1.2080   -0.8110 cf        1 CEK      0.225100
     10 O10         3.8530    2.1820   -4.3380 os        1 CEK     -0.274200
     11 C11         2.7720    2.1240   -5.2300 ca        1 CEK      0.205100
     12 C12         1.7180    1.3340   -4.7370 ca        1 CEK     -0.200300
     13 C13         2.7530    2.7770   -6.4680 ca        1 CEK     -0.294600
     14 C14         1.5510    2.6070   -7.2320 ca        1 CEK      0.283100
     15 C15         0.4920    1.8220   -6.7730 ca        1 CEK     -0.337000
     16 C16         0.5740    1.1600   -5.5300 ca        1 CEK      0.304100
     17 C17         2.3760   -0.7380   -3.5360 c3        1 CEK     -0.083100
     18 O18        -0.0050    1.1280   -2.3370 o         1 CEK     -0.485100
     19 O19         3.8580    1.0820    0.3960 oh        1 CEK     -0.445100
     20 O20        -0.3950    0.3300   -5.0730 oh        1 CEK     -0.437100
     21 O21         1.5400    3.2840   -8.4160 os        1 CEK     -0.302900
     22 C22         0.3850    3.1370   -9.2510 c3        1 CEK      0.106700
     23 C23         3.8400    3.5540   -7.0300 c         1 CEK      0.593700
     24 O24         4.0570    3.8340   -8.2020 o         1 CEK     -0.422100
     25 N25         4.8380    4.1020   -6.0260 ny        1 CEK     -0.674800
     26 C26         5.6780    5.2190   -6.5670 c3        1 CEK      0.176100
     27 C27         6.6490    5.6950   -5.5410 ca        1 CEK     -0.182300
     28 C28         7.8210    4.9350   -5.2490 ca        1 CEK     -0.014000
     29 C29         8.7230    5.4330   -4.2700 ca        1 CEK     -0.048000
     30 C30         8.4530    6.6720   -3.6290 ca        1 CEK     -0.061000
     31 C31         7.3240    7.3920   -3.9430 ca        1 CEK     -0.143000
     32 C32         6.4150    6.8970   -4.9030 ca        1 CEK     -0.064000
     33 C33         9.8930    4.6880   -3.9510 ca        1 CEK     -0.093000
     34 C34        10.1610    3.5010   -4.5860 ca        1 CEK     -0.124000
     35 C35         9.2740    3.0120   -5.5750 ca        1 CEK     -0.081000
     36 C36         8.1340    3.7080   -5.8970 ca        1 CEK     -0.176000
     37 H1         -0.5940   -0.3870   -0.5310 hc        1 CEK      0.073700
     38 H1A        -0.2680   -0.7630    1.2200 hc        1 CEK      0.073700
     39 H1B         0.8040   -1.4580   -0.0750 hc        1 CEK      0.073700
     40 H15        -0.4190    1.7060   -7.3800 ha        1 CEK      0.172000
     41 H17         1.4180   -1.2400   -3.8190 hc        1 CEK      0.065700
     42 H17A        2.7370   -1.1560   -2.5650 hc        1 CEK      0.065700
     43 H17B        3.1390   -0.9390   -4.3250 hc        1 CEK      0.065700
     44 HO19        4.7570    1.4420    0.3310 ho        1 CEK      0.436000
     45 HO20       -1.1660    0.3780   -5.6660 ho        1 CEK      0.451000
     46 H22         0.6480    3.7650  -10.1420 h1        1 CEK      0.069367
     47 H22A        0.2500    2.0680   -9.5420 h1        1 CEK      0.069367
     48 H22B       -0.5200    3.5360   -8.7340 h1        1 CEK      0.069367
     49 HN25        5.4530    3.3340   -5.7230 hn        1 CEK      0.460800
     50 H26         6.2070    4.8410   -7.4910 hx        1 CEK      0.113700
     51 H26A        4.9760    6.0440   -6.8840 hx        1 CEK      0.113700
     52 H30         9.1690    7.0480   -2.8800 ha        1 CEK      0.156000
     53 H31         7.1180    8.3590   -3.4580 ha        1 CEK      0.159000
     54 H32         5.5200    7.4960   -5.1400 ha        1 CEK      0.142000
     55 H33        10.5810    5.0900   -3.1900 ha        1 CEK      0.152000
     56 H34        11.0680    2.9240   -4.3450 ha        1 CEK      0.156000
     57 H35         9.5180    2.0680   -6.0900 ha        1 CEK      0.149000
     58 H36         7.4820    3.3280   -6.6960 ha        1 CEK      0.115000
     59 H8          4.9500    2.2160   -1.8030 ha        1 CEK      0.167000
     60 H252        4.3290    4.4230   -5.1950 hn        1 CEK      0.460800
@<TRIPOS>BOND
     1    1    2 1   
     2    1   37 1   
     3    1   38 1   
     4    1   39 1   
     5    2    3 2   
     6    2    4 1   
     7    4    5 1   
     8    4    9 2   
     9    5    6 1   
    10    5   18 2   
    11    6    7 1   
    12    6   12 1   
    13    6   17 1   
    14    7    8 2   
    15    7   10 1   
    16    8    9 1   
    17    8   59 1   
    18    9   19 1   
    19   10   11 1   
    20   11   12 ar  
    21   11   13 ar  
    22   12   16 ar  
    23   13   14 ar  
    24   13   23 1   
    25   14   15 ar  
    26   14   21 1   
    27   15   16 ar  
    28   15   40 1   
    29   16   20 1   
    30   17   41 1   
    31   17   42 1   
    32   17   43 1   
    33   19   44 1   
    34   20   45 1   
    35   21   22 1   
    36   22   46 1   
    37   22   47 1   
    38   22   48 1   
    39   23   24 2   
    40   23   25 1   
    41   25   26 1   
    42   25   49 1   
    43   25   60 1   
    44   26   27 1   
    45   26   50 1   
    46   26   51 1   
    47   27   28 ar  
    48   27   32 ar  
    49   28   29 ar  
    50   28   36 ar  
    51   29   30 ar  
    52   29   33 ar  
    53   30   31 ar  
    54   30   52 1   
    55   31   32 ar  
    56   31   53 1   
    57   32   54 1   
    58   33   34 ar  
    59   33   55 1   
    60   34   35 ar  
    61   34   56 1   
    62   35   36 ar  
    63   35   57 1   
    64   36   58 1   
@<TRIPOS>SUBSTRUCTURE
     1 CEK         1 TEMP              0 ****  ****    0 ROOT
