@<TRIPOS>MOLECULE
CEK
   59    63     1     0     0
SMALL
bcc


@<TRIPOS>ATOM
      1 C1          5.5730   -2.3990   -2.2370 c3        1 CEK     -0.197100
      2 C2          5.4870   -2.4190   -0.7460 c         1 CEK      0.609300
      3 O3          6.3920   -2.8570   -0.0310 o         1 CEK     -0.520100
      4 C4          4.2340   -1.8730   -0.1670 ce        1 CEK     -0.374400
      5 C5          3.9430   -0.4510   -0.3800 c         1 CEK      0.629300
      6 C6          2.9770    0.1680    0.6210 c3        1 CEK     -0.074500
      7 C7          1.9070   -0.8460    1.0040 c2        1 CEK      0.143900
      8 C8          2.0980   -2.1770    1.0440 cf        1 CEK     -0.256000
      9 C9          3.3770   -2.6670    0.5500 cf        1 CEK      0.257100
     10 O10         0.6630   -0.2360    1.1810 os        1 CEK     -0.186200
     11 C11         0.7840    1.0520    0.6290 ca        1 CEK      0.203100
     12 C12         2.1140    1.3300    0.2070 ca        1 CEK     -0.273300
     13 C13        -0.2790    1.9300    0.4950 ca        1 CEK     -0.203600
     14 C14         0.0300    3.1750   -0.1240 ca        1 CEK      0.212100
     15 C15         1.3180    3.4870   -0.5550 ca        1 CEK     -0.273000
     16 C16         2.3740    2.5600   -0.3870 ca        1 CEK      0.259100
     17 C17         3.8020    0.5560    1.8520 c3        1 CEK     -0.083100
     18 O18         4.5030    0.2460   -1.2360 o         1 CEK     -0.555100
     19 O19         3.6890   -3.9860    0.7110 oh        1 CEK     -0.464100
     20 O20         3.5980    2.9770   -0.8200 oh        1 CEK     -0.488100
     21 O21        -1.0360    4.0330   -0.2740 os        1 CEK     -0.326900
     22 C22        -0.7400    5.3460   -0.7470 c3        1 CEK      0.111700
     23 C23        -1.6270    1.5790    1.0220 c         1 CEK      0.701700
     24 O24        -1.7740    1.1160    2.1720 o         1 CEK     -0.609100
     25 N25        -2.6980    1.7670    0.1770 n         1 CEK     -0.555900
     26 C26        -4.0520    1.4700    0.5550 c3        1 CEK      0.135300
     27 C27        -4.7080    0.4220   -0.3050 ca        1 CEK     -0.095300
     28 C28        -4.5110   -0.9680   -0.0490 ca        1 CEK     -0.019000
     29 C29        -5.1900   -1.9160   -0.8610 ca        1 CEK     -0.040000
     30 C30        -6.0340   -1.4660   -1.9120 ca        1 CEK     -0.111000
     31 C31        -6.1990   -0.1240   -2.1440 ca        1 CEK     -0.133000
     32 C32        -5.5310    0.8240   -1.3350 ca        1 CEK     -0.121000
     33 C33        -5.0160   -3.3050   -0.6100 ca        1 CEK     -0.123000
     34 C34        -4.1980   -3.7350    0.4050 ca        1 CEK     -0.127000
     35 C35        -3.5150   -2.7940    1.2110 ca        1 CEK     -0.130000
     36 C36        -3.6640   -1.4460    0.9910 ca        1 CEK     -0.118000
     37 H1          6.5290   -2.8630   -2.5800 hc        1 CEK      0.070700
     38 H1A         4.7140   -2.9650   -2.6720 hc        1 CEK      0.070700
     39 H1B         5.5260   -1.3410   -2.5980 hc        1 CEK      0.070700
     40 H15         1.5520    4.4480   -1.0330 ha        1 CEK      0.166000
     41 H17         4.5180    1.3660    1.5720 hc        1 CEK      0.061700
     42 H17A        3.1270    0.9310    2.6590 hc        1 CEK      0.061700
     43 H17B        4.3720   -0.3250    2.2310 hc        1 CEK      0.061700
     44 HO19        3.0040   -4.4040    1.2580 ho        1 CEK      0.436000
     45 HO20        4.2200    2.2290   -0.7850 ho        1 CEK      0.459000
     46 H22         0.0010    5.8490   -0.0800 h1        1 CEK      0.053700
     47 H22A       -0.3650    5.3050   -1.7980 h1        1 CEK      0.053700
     48 H22B       -1.7330    5.8620   -0.6990 h1        1 CEK      0.053700
     49 HN25       -2.5430    2.1620   -0.7200 hn        1 CEK      0.321500
     50 H26        -4.0730    1.1410    1.6350 h1        1 CEK      0.066700
     51 H26A       -4.6560    2.4240    0.4790 h1        1 CEK      0.066700
     52 H30        -6.5510   -2.2150   -2.5310 ha        1 CEK      0.133000
     53 H31        -6.8510    0.2320   -2.9560 ha        1 CEK      0.132000
     54 H32        -5.6860    1.8950   -1.5390 ha        1 CEK      0.129000
     55 H33        -5.5510   -4.0250   -1.2470 ha        1 CEK      0.131000
     56 H34        -4.0650   -4.8090    0.6030 ha        1 CEK      0.130000
     57 H35        -2.8630   -3.1560    2.0190 ha        1 CEK      0.132000
     58 H36        -3.1160   -0.7220    1.6190 ha        1 CEK      0.162000
     59 H8          1.3230   -2.8870    1.3580 ha        1 CEK      0.171000
@<TRIPOS>BOND
     1    1    2 1   
     2    1   37 1   
     3    1   38 1   
     4    1   39 1   
     5    2    3 2   
     6    2    4 1   
     7    4    5 1   
     8    4    9 2   
     9    5    6 1   
    10    5   18 2   
    11    6    7 1   
    12    6   12 1   
    13    6   17 1   
    14    7    8 2   
    15    7   10 1   
    16    8    9 1   
    17    8   59 1   
    18    9   19 1   
    19   10   11 1   
    20   11   12 ar  
    21   11   13 ar  
    22   12   16 ar  
    23   13   14 ar  
    24   13   23 1   
    25   14   15 ar  
    26   14   21 1   
    27   15   16 ar  
    28   15   40 1   
    29   16   20 1   
    30   17   41 1   
    31   17   42 1   
    32   17   43 1   
    33   19   44 1   
    34   20   45 1   
    35   21   22 1   
    36   22   46 1   
    37   22   47 1   
    38   22   48 1   
    39   23   24 2   
    40   23   25 1   
    41   25   26 1   
    42   25   49 1   
    43   26   27 1   
    44   26   50 1   
    45   26   51 1   
    46   27   28 ar  
    47   27   32 ar  
    48   28   29 ar  
    49   28   36 ar  
    50   29   30 ar  
    51   29   33 ar  
    52   30   31 ar  
    53   30   52 1   
    54   31   32 ar  
    55   31   53 1   
    56   32   54 1   
    57   33   34 ar  
    58   33   55 1   
    59   34   35 ar  
    60   34   56 1   
    61   35   36 ar  
    62   35   57 1   
    63   36   58 1   
@<TRIPOS>SUBSTRUCTURE
     1 CEK         1 TEMP              0 ****  ****    0 ROOT
