@<TRIPOS>MOLECULE
CEK
   60    64     1     0     0
SMALL
bcc


@<TRIPOS>ATOM
      1 C1          0.1790   -0.4630    0.2730 c3        1 CEK     -0.198100
      2 C2          1.0630    0.7380    0.3330 c         1 CEK      0.602300
      3 O3          1.1240    1.4800    1.3150 o         1 CEK     -0.497100
      4 C4          1.8820    1.0000   -0.8800 ce        1 CEK     -0.339400
      5 C5          1.1960    1.0280   -2.1850 c         1 CEK      0.611300
      6 C6          2.1200    0.7860   -3.3780 c3        1 CEK     -0.059500
      7 C7          3.4150    1.5480   -3.1450 c2        1 CEK      0.093900
      8 C8          3.9870    1.7360   -1.9470 cf        1 CEK     -0.195000
      9 C9          3.2180    1.2790   -0.7880 cf        1 CEK      0.225100
     10 O10         3.8540    2.1810   -4.3300 os        1 CEK     -0.274200
     11 C11         2.7760    2.1090   -5.2260 ca        1 CEK      0.205100
     12 C12         1.7180    1.3320   -4.7220 ca        1 CEK     -0.200300
     13 C13         2.7650    2.7360   -6.4770 ca        1 CEK     -0.294600
     14 C14         1.5660    2.5550   -7.2430 ca        1 CEK      0.283100
     15 C15         0.5020    1.7820   -6.7730 ca        1 CEK     -0.337000
     16 C16         0.5770    1.1450   -5.5170 ca        1 CEK      0.304100
     17 C17         2.3640   -0.7180   -3.4770 c3        1 CEK     -0.083100
     18 O18        -0.0170    1.1790   -2.3260 o         1 CEK     -0.485100
     19 O19         3.8330    1.1760    0.4250 oh        1 CEK     -0.445100
     20 O20        -0.3970    0.3270   -5.0480 oh        1 CEK     -0.437100
     21 O21         1.5620    3.2080   -8.4400 os        1 CEK     -0.302900
     22 C22         0.4120    3.0490   -9.2770 c3        1 CEK      0.106700
     23 C23         3.8570    3.4980   -7.0490 c         1 CEK      0.593700
     24 O24         4.0820    3.7520   -8.2250 o         1 CEK     -0.422100
     25 N25         4.8500    4.0660   -6.0510 n4        1 CEK     -0.674800
     26 C26         5.6980    5.1680   -6.6120 c3        1 CEK      0.177100
     27 C27         6.6620    5.6660   -5.5900 ca        1 CEK     -0.182300
     28 C28         7.8290    4.9100   -5.2690 ca        1 CEK     -0.014000
     29 C29         8.7240    5.4300   -4.2950 ca        1 CEK     -0.048000
     30 C30         8.4520    6.6850   -3.6870 ca        1 CEK     -0.061000
     31 C31         7.3280    7.3990   -4.0280 ca        1 CEK     -0.143000
     32 C32         6.4250    6.8840   -4.9820 ca        1 CEK     -0.064000
     33 C33         9.8900    4.6910   -3.9490 ca        1 CEK     -0.093000
     34 C34        10.1600    3.4880   -4.5530 ca        1 CEK     -0.124000
     35 C35         9.2800    2.9760   -5.5370 ca        1 CEK     -0.081000
     36 C36         8.1450    3.6680   -5.8850 ca        1 CEK     -0.176000
     37 H1         -0.3030   -0.6410    1.2660 hc        1 CEK      0.073700
     38 H1A        -0.6200   -0.2980   -0.4940 hc        1 CEK      0.073700
     39 H1B         0.7730   -1.3650   -0.0110 hc        1 CEK      0.073700
     40 H15        -0.4060    1.6570   -7.3820 ha        1 CEK      0.172000
     41 H17         1.4050   -1.2230   -3.7540 hc        1 CEK      0.065700
     42 H17A        3.1290   -0.9370   -4.2580 hc        1 CEK      0.065700
     43 H17B        2.7200   -1.1180   -2.4970 hc        1 CEK      0.065700
     44 HO19        4.7330    1.5310    0.3560 ho        1 CEK      0.436000
     45 HO20       -1.1650    0.3660   -5.6460 ho        1 CEK      0.451000
     46 H22        -0.4950    3.4610   -8.7730 h1        1 CEK      0.069367
     47 H22A        0.6810    3.6570  -10.1800 h1        1 CEK      0.069367
     48 H22B        0.2740    1.9740   -9.5480 h1        1 CEK      0.069367
     49 HN25        4.3370    4.4080   -5.2310 hn        1 CEK      0.460800
     50 H26         5.0010    5.9870   -6.9550 hx        1 CEK      0.113700
     51 H26A        6.2330    4.7670   -7.5220 hx        1 CEK      0.113700
     52 H30         9.1630    7.0770   -2.9410 ha        1 CEK      0.156000
     53 H31         7.1200    8.3780   -3.5670 ha        1 CEK      0.159000
     54 H32         5.5340    7.4790   -5.2410 ha        1 CEK      0.142000
     55 H33        10.5730    5.1080   -3.1920 ha        1 CEK      0.152000
     56 H34        11.0630    2.9150   -4.2910 ha        1 CEK      0.156000
     57 H35         9.5250    2.0200   -6.0270 ha        1 CEK      0.149000
     58 H36         7.4980    3.2690   -6.6800 ha        1 CEK      0.115000
     59 H8          4.9380    2.2620   -1.7910 ha        1 CEK      0.167000
     60 H252        5.4610    3.3030   -5.7260 hn        1 CEK      0.460800
@<TRIPOS>BOND
     1    1    2 1   
     2    1   37 1   
     3    1   38 1   
     4    1   39 1   
     5    2    3 2   
     6    2    4 1   
     7    4    5 1   
     8    4    9 2   
     9    5    6 1   
    10    5   18 2   
    11    6    7 1   
    12    6   12 1   
    13    6   17 1   
    14    7    8 2   
    15    7   10 1   
    16    8    9 1   
    17    8   59 1   
    18    9   19 1   
    19   10   11 1   
    20   11   12 ar  
    21   11   13 ar  
    22   12   16 ar  
    23   13   14 ar  
    24   13   23 1   
    25   14   15 ar  
    26   14   21 1   
    27   15   16 ar  
    28   15   40 1   
    29   16   20 1   
    30   17   41 1   
    31   17   42 1   
    32   17   43 1   
    33   19   44 1   
    34   20   45 1   
    35   21   22 1   
    36   22   46 1   
    37   22   47 1   
    38   22   48 1   
    39   23   24 2   
    40   23   25 1   
    41   25   26 1   
    42   25   49 1   
    43   25   60 1   
    44   26   27 1   
    45   26   50 1   
    46   26   51 1   
    47   27   28 ar  
    48   27   32 ar  
    49   28   29 ar  
    50   28   36 ar  
    51   29   30 ar  
    52   29   33 ar  
    53   30   31 ar  
    54   30   52 1   
    55   31   32 ar  
    56   31   53 1   
    57   32   54 1   
    58   33   34 ar  
    59   33   55 1   
    60   34   35 ar  
    61   34   56 1   
    62   35   36 ar  
    63   35   57 1   
    64   36   58 1   
@<TRIPOS>SUBSTRUCTURE
     1 CEK         1 TEMP              0 ****  ****    0 ROOT
