@<TRIPOS>MOLECULE
CEK
   60    64     1     0     0
SMALL
bcc


@<TRIPOS>ATOM
      1 C1         -0.1050   -0.1070    0.1590 c3        1 CEK     -0.188100
      2 C2          1.3200    0.3020    0.3210 c         1 CEK      0.609300
      3 O3          1.8850    0.2230    1.4270 o         1 CEK     -0.580100
      4 C4          2.0540    0.7920   -0.8570 ce        1 CEK     -0.426400
      5 C5          1.3470    0.8900   -2.1500 c         1 CEK      0.618300
      6 C6          2.2600    0.7100   -3.3640 c3        1 CEK     -0.059500
      7 C7          3.5000    1.5580   -3.1320 c2        1 CEK      0.086900
      8 C8          4.0680    1.7700   -1.9380 cf        1 CEK     -0.155000
      9 C9          3.3690    1.1960   -0.7770 cf        1 CEK      0.292100
     10 O10         3.8780    2.2400   -4.3110 os        1 CEK     -0.273200
     11 C11         2.8000    2.1060   -5.1970 ca        1 CEK      0.206100
     12 C12         1.8030    1.2490   -4.6930 ca        1 CEK     -0.200300
     13 C13         2.7300    2.7500   -6.4370 ca        1 CEK     -0.292600
     14 C14         1.5360    2.4990   -7.1920 ca        1 CEK      0.283100
     15 C15         0.5330    1.6480   -6.7210 ca        1 CEK     -0.338000
     16 C16         0.6670    0.9980   -5.4760 ca        1 CEK      0.304100
     17 C17         2.5970   -0.7720   -3.4890 c3        1 CEK     -0.083100
     18 O18         0.1380    1.0740   -2.2800 o         1 CEK     -0.494100
     19 O19         4.1560    1.2060    0.3190 oh        1 CEK     -0.476100
     20 O20        -0.2440    0.1110   -5.0090 oh        1 CEK     -0.439100
     21 O21         1.4730    3.1640   -8.3800 os        1 CEK     -0.300900
     22 C22         0.3220    2.9430   -9.2020 c3        1 CEK      0.106700
     23 C23         3.7550    3.5980   -7.0140 c         1 CEK      0.590700
     24 O24         3.8930    3.9440   -8.1810 o         1 CEK     -0.424100
     25 N25         4.7900    4.1360   -6.0430 n4        1 CEK     -0.674800
     26 C26         5.6230    5.2460   -6.6090 c3        1 CEK      0.177100
     27 C27         6.6240    5.7150   -5.6080 ca        1 CEK     -0.182300
     28 C28         7.7940    4.9430   -5.3400 ca        1 CEK     -0.014000
     29 C29         8.7210    5.4330   -4.3800 ca        1 CEK     -0.047000
     30 C30         8.4780    6.6760   -3.7370 ca        1 CEK     -0.060000
     31 C31         7.3520    7.4080   -4.0300 ca        1 CEK     -0.144000
     32 C32         6.4170    6.9220   -4.9680 ca        1 CEK     -0.064000
     33 C33         9.8880    4.6750   -4.0830 ca        1 CEK     -0.092000
     34 C34        10.1290    3.4830   -4.7200 ca        1 CEK     -0.123000
     35 C35         9.2180    3.0030   -5.6910 ca        1 CEK     -0.080000
     36 C36         8.0800    3.7130   -5.9920 ca        1 CEK     -0.176000
     37 H1         -0.4780   -0.5820    1.1000 hc        1 CEK      0.078700
     38 H1A        -0.2110   -0.8280   -0.6870 hc        1 CEK      0.078700
     39 H1B        -0.7290    0.7940   -0.0690 hc        1 CEK      0.078700
     40 H15        -0.3720    1.4700   -7.3220 ha        1 CEK      0.171000
     41 H17         3.3600   -0.9300   -4.2880 hc        1 CEK      0.065367
     42 H17A        2.9980   -1.1620   -2.5220 hc        1 CEK      0.065367
     43 H17B        1.6690   -1.3350   -3.7560 hc        1 CEK      0.065367
     44 HO19        3.6880    0.8590    1.1070 ho        1 CEK      0.493000
     45 HO20       -1.0180    0.1030   -5.6000 ho        1 CEK      0.451000
     46 H22         0.2480    1.8670   -9.4890 h1        1 CEK      0.069033
     47 H22A        0.5360    3.5820  -10.0980 h1        1 CEK      0.069033
     48 H22B       -0.6010    3.2880   -8.6770 h1        1 CEK      0.069033
     49 HN25        4.3100    4.4610   -5.1960 hn        1 CEK      0.461300
     50 H26         6.1250    4.8620   -7.5450 hx        1 CEK      0.113200
     51 H26A        4.9200    6.0750   -6.9100 hx        1 CEK      0.113200
     52 H30         9.2130    7.0440   -3.0020 ha        1 CEK      0.156000
     53 H31         7.1670    8.3780   -3.5420 ha        1 CEK      0.158000
     54 H32         5.5240    7.5290   -5.1880 ha        1 CEK      0.141000
     55 H33        10.5950    5.0680   -3.3350 ha        1 CEK      0.152000
     56 H34        11.0320    2.8950   -4.4940 ha        1 CEK      0.156000
     57 H35         9.4390    2.0560   -6.2080 ha        1 CEK      0.149000
     58 H36         7.4080    3.3390   -6.7790 ha        1 CEK      0.114000
     59 H8          4.9790    2.3560   -1.7600 ha        1 CEK      0.185000
     60 H252        5.4070    3.3620   -5.7580 hn        1 CEK      0.461300
@<TRIPOS>BOND
     1    1    2 1   
     2    1   37 1   
     3    1   38 1   
     4    1   39 1   
     5    2    3 2   
     6    2    4 1   
     7    4    5 1   
     8    4    9 2   
     9    5    6 1   
    10    5   18 2   
    11    6    7 1   
    12    6   12 1   
    13    6   17 1   
    14    7    8 2   
    15    7   10 1   
    16    8    9 1   
    17    8   59 1   
    18    9   19 1   
    19   10   11 1   
    20   11   12 ar  
    21   11   13 ar  
    22   12   16 ar  
    23   13   14 ar  
    24   13   23 1   
    25   14   15 ar  
    26   14   21 1   
    27   15   16 ar  
    28   15   40 1   
    29   16   20 1   
    30   17   41 1   
    31   17   42 1   
    32   17   43 1   
    33   19   44 1   
    34   20   45 1   
    35   21   22 1   
    36   22   46 1   
    37   22   47 1   
    38   22   48 1   
    39   23   24 2   
    40   23   25 1   
    41   25   26 1   
    42   25   49 1   
    43   25   60 1   
    44   26   27 1   
    45   26   50 1   
    46   26   51 1   
    47   27   28 ar  
    48   27   32 ar  
    49   28   29 ar  
    50   28   36 ar  
    51   29   30 ar  
    52   29   33 ar  
    53   30   31 ar  
    54   30   52 1   
    55   31   32 ar  
    56   31   53 1   
    57   32   54 1   
    58   33   34 ar  
    59   33   55 1   
    60   34   35 ar  
    61   34   56 1   
    62   35   36 ar  
    63   35   57 1   
    64   36   58 1   
@<TRIPOS>SUBSTRUCTURE
     1 CEK         1 TEMP              0 ****  ****    0 ROOT
