@<TRIPOS>MOLECULE
CEL
   41    43     1     0     0
SMALL
bcc


@<TRIPOS>ATOM
      1 S1          0.0070    0.1310    0.1320 sy        1 CEL      1.505200
      2 C15         1.5900    0.0940    0.1070 ca        1 CEL     -0.607500
      3 C14         2.3560    0.3940    1.2610 ca        1 CEL      0.032000
      4 C13         3.7300    0.3090    1.2720 ca        1 CEL     -0.176500
      5 C12         4.4360   -0.1040    0.1040 ca        1 CEL      0.195800
      6 C17         3.6800   -0.4150   -1.0590 ca        1 CEL     -0.176500
      7 C16         2.3050   -0.3180   -1.0440 ca        1 CEL      0.032000
      8 N2          5.8360   -0.1780    0.1070 na        1 CEL      0.120300
      9 C3          6.6890   -0.9240   -0.7780 cc        1 CEL      0.004700
     10 C5          6.2560   -1.8340   -1.8240 ca        1 CEL     -0.096000
     11 C10         5.8010   -3.1190   -1.4980 ca        1 CEL     -0.097500
     12 C9          5.4660   -4.0150   -2.5100 ca        1 CEL     -0.135500
     13 C8          5.5800   -3.6460   -3.8560 ca        1 CEL     -0.036300
     14 C11         5.2500   -4.6110   -4.9290 c3        1 CEL     -0.069800
     15 C7          6.0350   -2.3590   -4.1750 ca        1 CEL     -0.135500
     16 C6          6.3730   -1.4580   -3.1700 ca        1 CEL     -0.097500
     17 C2          7.9960   -0.6420   -0.3860 cd        1 CEL     -0.212300
     18 C1          7.8670    0.2710    0.7400 cd        1 CEL      0.269600
     19 C4          9.0210    0.8810    1.5240 c3        1 CEL      0.629600
     20 F3          9.0520    2.2510    1.4760 f         1 CEL     -0.214300
     21 F2          9.0060    0.5680    2.8570 f         1 CEL     -0.214300
     22 F1         10.2500    0.4780    1.0720 f         1 CEL     -0.214300
     23 N1          6.5720    0.5210    1.0130 nc        1 CEL     -0.447800
     24 N3         -0.2210    1.9920   -0.3670 n4        1 CEL     -0.784500
     25 O2         -0.6220   -0.4630   -0.9410 o         1 CEL     -0.572300
     26 O1         -0.5740    0.1710    1.3810 o         1 CEL     -0.572300
     27 H14C        1.8290    0.6850    2.1910 ha        1 CEL      0.170000
     28 H13C        4.2760    0.5550    2.2020 ha        1 CEL      0.195500
     29 H17C        4.1880   -0.7380   -1.9870 ha        1 CEL      0.195500
     30 H16C        1.7400   -0.5800   -1.9600 ha        1 CEL      0.170000
     31 H10C        5.7280   -3.4290   -0.4450 ha        1 CEL      0.145000
     32 HC9         5.1190   -5.0280   -2.2490 ha        1 CEL      0.151000
     33 H111        4.4580   -5.3260   -4.5970 hc        1 CEL      0.059367
     34 H112        4.8930   -4.0850   -5.8480 hc        1 CEL      0.059367
     35 H113        6.1640   -5.2020   -5.1970 hc        1 CEL      0.059367
     36 HC7         6.1370   -2.0630   -5.2310 ha        1 CEL      0.151000
     37 HC6         6.7470   -0.4560   -3.4320 ha        1 CEL      0.145000
     38 HC2         8.9270   -1.0180   -0.8040 ha        1 CEL      0.209000
     39 HN31        0.6660    2.4640   -0.5090 hn        1 CEL      0.452133
     40 HN32       -0.7300    2.4900    0.3590 hn        1 CEL      0.452133
     41 H33        -0.7570    2.0620   -1.2280 hn        1 CEL      0.452133
@<TRIPOS>BOND
     1    1    2 1   
     2    1   24 1   
     3    1   25 2   
     4    1   26 2   
     5    2    3 ar  
     6    2    7 ar  
     7    3    4 ar  
     8    3   27 1   
     9    4    5 ar  
    10    4   28 1   
    11    5    6 ar  
    12    5    8 1   
    13    6    7 ar  
    14    6   29 1   
    15    7   30 1   
    16    8    9 1   
    17    8   23 1   
    18    9   10 1   
    19    9   17 2   
    20   10   11 ar  
    21   10   16 ar  
    22   11   12 ar  
    23   11   31 1   
    24   12   13 ar  
    25   12   32 1   
    26   13   14 1   
    27   13   15 ar  
    28   14   33 1   
    29   14   34 1   
    30   14   35 1   
    31   15   16 ar  
    32   15   36 1   
    33   16   37 1   
    34   17   18 1   
    35   17   38 1   
    36   18   19 1   
    37   18   23 2   
    38   19   20 1   
    39   19   21 1   
    40   19   22 1   
    41   24   39 1   
    42   24   40 1   
    43   24   41 1   
@<TRIPOS>SUBSTRUCTURE
     1 CEL         1 TEMP              0 ****  ****    0 ROOT
