@<TRIPOS>MOLECULE
CEL
   41    43     1     0     0
SMALL
bcc


@<TRIPOS>ATOM
      1 S1          0.0250    0.1740    0.1610 sy        1 CEL      1.505200
      2 C15         1.6060    0.1260    0.1230 ca        1 CEL     -0.607500
      3 C14         2.3840    0.4280    1.2690 ca        1 CEL      0.032000
      4 C13         3.7570    0.3320    1.2700 ca        1 CEL     -0.176500
      5 C12         4.4510   -0.0950    0.1000 ca        1 CEL      0.195800
      6 C17         3.6830   -0.4080   -1.0550 ca        1 CEL     -0.176500
      7 C16         2.3100   -0.3000   -1.0300 ca        1 CEL      0.032000
      8 N2          5.8500   -0.1790    0.0920 na        1 CEL      0.120300
      9 C3          6.6910   -0.9380   -0.7940 cc        1 CEL      0.004700
     10 C5          6.2420   -1.8520   -1.8300 ca        1 CEL     -0.096000
     11 C10         5.7800   -3.1310   -1.4910 ca        1 CEL     -0.097500
     12 C9          5.4300   -4.0320   -2.4930 ca        1 CEL     -0.135500
     13 C8          5.5370   -3.6730   -3.8440 ca        1 CEL     -0.036300
     14 C11         5.1910   -4.6440   -4.9060 c3        1 CEL     -0.069800
     15 C7          5.9990   -2.3920   -4.1760 ca        1 CEL     -0.135500
     16 C6          6.3520   -1.4870   -3.1790 ca        1 CEL     -0.097500
     17 C2          8.0020   -0.6630   -0.4140 cd        1 CEL     -0.212300
     18 C1          7.8900    0.2600    0.7060 cd        1 CEL      0.269600
     19 C4          9.0550    0.8660    1.4760 c3        1 CEL      0.629600
     20 F3          9.0950    2.2350    1.4190 f         1 CEL     -0.214300
     21 F2          9.0470    0.5620    2.8120 f         1 CEL     -0.214300
     22 F1         10.2770    0.4500    1.0180 f         1 CEL     -0.214300
     23 N1          6.5980    0.5210    0.9880 nc        1 CEL     -0.447800
     24 N3         -0.1940    2.0330   -0.3500 nz        1 CEL     -0.784500
     25 O2         -0.6180   -0.4220   -0.9040 o         1 CEL     -0.572300
     26 O1         -0.5470    0.2270    1.4140 o         1 CEL     -0.572300
     27 H14C        1.8670    0.7290    2.2010 ha        1 CEL      0.170000
     28 H13C        4.3120    0.5810    2.1940 ha        1 CEL      0.195500
     29 H17C        4.1820   -0.7420   -1.9840 ha        1 CEL      0.195500
     30 H16C        1.7350   -0.5640   -1.9400 ha        1 CEL      0.170000
     31 H10C        5.7130   -3.4330   -0.4350 ha        1 CEL      0.145000
     32 HC9         5.0770   -5.0400   -2.2230 ha        1 CEL      0.151000
     33 H111        4.3910   -5.3460   -4.5650 hc        1 CEL      0.059367
     34 H112        4.8370   -4.1220   -5.8290 hc        1 CEL      0.059367
     35 H113        6.0960   -5.2490   -5.1730 hc        1 CEL      0.059367
     36 HC7         6.0960   -2.1050   -5.2340 ha        1 CEL      0.151000
     37 HC6         6.7320   -0.4900   -3.4510 ha        1 CEL      0.145000
     38 HC2         8.9280   -1.0490   -0.8370 ha        1 CEL      0.209000
     39 HN31        0.6950    2.4980   -0.5020 hn        1 CEL      0.452133
     40 HN32       -0.7370    2.1020   -1.2070 hn        1 CEL      0.452133
     41 H33        -0.6940    2.5400    0.3770 hn        1 CEL      0.452133
@<TRIPOS>BOND
     1    1    2 1   
     2    1   24 1   
     3    1   25 2   
     4    1   26 2   
     5    2    3 ar  
     6    2    7 ar  
     7    3    4 ar  
     8    3   27 1   
     9    4    5 ar  
    10    4   28 1   
    11    5    6 ar  
    12    5    8 1   
    13    6    7 ar  
    14    6   29 1   
    15    7   30 1   
    16    8    9 1   
    17    8   23 1   
    18    9   10 1   
    19    9   17 2   
    20   10   11 ar  
    21   10   16 ar  
    22   11   12 ar  
    23   11   31 1   
    24   12   13 ar  
    25   12   32 1   
    26   13   14 1   
    27   13   15 ar  
    28   14   33 1   
    29   14   34 1   
    30   14   35 1   
    31   15   16 ar  
    32   15   36 1   
    33   16   37 1   
    34   17   18 1   
    35   17   38 1   
    36   18   19 1   
    37   18   23 2   
    38   19   20 1   
    39   19   21 1   
    40   19   22 1   
    41   24   39 1   
    42   24   40 1   
    43   24   41 1   
@<TRIPOS>SUBSTRUCTURE
     1 CEL         1 TEMP              0 ****  ****    0 ROOT
