@<TRIPOS>MOLECULE
CEL
   40    42     1     0     0
SMALL
bcc


@<TRIPOS>ATOM
      1 S1         -1.2670    0.2890   -4.7570 sy        1 CEL      1.527200
      2 C15        -1.0670    0.1990   -3.0750 ca        1 CEL     -0.379500
      3 C14        -1.9290   -0.5760   -2.2930 ca        1 CEL     -0.011000
      4 C13        -1.7670   -0.6770   -0.9150 ca        1 CEL     -0.149500
      5 C12        -0.7080    0.0130   -0.2890 ca        1 CEL      0.073800
      6 C17         0.1680    0.7960   -1.0680 ca        1 CEL     -0.149500
      7 C16        -0.0190    0.8740   -2.4430 ca        1 CEL     -0.011000
      8 N2         -0.5320   -0.0710    1.1240 na        1 CEL      0.162300
      9 C3          0.7080   -0.1040    1.8170 cc        1 CEL     -0.028300
     10 C5          2.0250   -0.1490    1.2040 ca        1 CEL     -0.058000
     11 C10         2.4320   -1.2690    0.4670 ca        1 CEL     -0.098500
     12 C9          3.7150   -1.3210   -0.0710 ca        1 CEL     -0.134500
     13 C8          4.6090   -0.2590    0.1160 ca        1 CEL     -0.054300
     14 C11         5.9660   -0.3140   -0.4720 c3        1 CEL     -0.060800
     15 C7          4.1990    0.8560    0.8570 ca        1 CEL     -0.134500
     16 C6          2.9170    0.9140    1.3980 ca        1 CEL     -0.098500
     17 C2          0.3920   -0.1320    3.1830 cd        1 CEL     -0.231300
     18 C1         -1.0510   -0.1150    3.2270 cd        1 CEL      0.215600
     19 C4         -1.9040   -0.1350    4.4760 c3        1 CEL      0.632600
     20 F3         -2.7530   -1.2100    4.5630 f         1 CEL     -0.229300
     21 F2         -1.1740   -0.1780    5.6390 f         1 CEL     -0.229300
     22 F1         -2.7170    0.9600    4.6220 f         1 CEL     -0.229300
     23 N1         -1.5730   -0.0790    1.9700 nc        1 CEL     -0.440800
     24 N3         -2.2760    1.5160   -4.9380 n3        1 CEL     -1.026700
     25 O2         -0.0200    0.6220   -5.3260 o         1 CEL     -0.655800
     26 O1         -1.8940   -0.8990   -5.1870 o         1 CEL     -0.655800
     27 H14C       -2.7460   -1.1380   -2.7820 ha        1 CEL      0.160500
     28 H13C       -2.4680   -1.2920   -0.3280 ha        1 CEL      0.164000
     29 H17C        1.0050    1.3390   -0.5970 ha        1 CEL      0.164000
     30 H16C        0.6850    1.4710   -3.0510 ha        1 CEL      0.160500
     31 H10C        1.7390   -2.1110    0.3190 ha        1 CEL      0.142500
     32 HC9         4.0290   -2.2040   -0.6480 ha        1 CEL      0.140500
     33 H111        5.9340    0.0420   -1.5340 hc        1 CEL      0.050700
     34 H112        6.6770    0.3370    0.0940 hc        1 CEL      0.050700
     35 H113        6.3610   -1.3600   -0.4670 hc        1 CEL      0.050700
     36 HC7         4.8960    1.6930    1.0140 ha        1 CEL      0.140500
     37 HC6         2.6050    1.7930    1.9820 ha        1 CEL      0.142500
     38 HC2         1.0670   -0.1690    4.0320 ha        1 CEL      0.188000
     39 HN31       -1.9840    2.4530   -5.0580 hn        1 CEL      0.449800
     40 HN32       -3.2600    1.4170   -4.9660 hn        1 CEL      0.449800
@<TRIPOS>BOND
     1    1    2 1   
     2    1   24 1   
     3    1   25 2   
     4    1   26 2   
     5    2    3 ar  
     6    2    7 ar  
     7    3    4 ar  
     8    3   27 1   
     9    4    5 ar  
    10    4   28 1   
    11    5    6 ar  
    12    5    8 1   
    13    6    7 ar  
    14    6   29 1   
    15    7   30 1   
    16    8    9 1   
    17    8   23 1   
    18    9   10 1   
    19    9   17 2   
    20   10   11 ar  
    21   10   16 ar  
    22   11   12 ar  
    23   11   31 1   
    24   12   13 ar  
    25   12   32 1   
    26   13   14 1   
    27   13   15 ar  
    28   14   33 1   
    29   14   34 1   
    30   14   35 1   
    31   15   16 ar  
    32   15   36 1   
    33   16   37 1   
    34   17   18 1   
    35   17   38 1   
    36   18   19 1   
    37   18   23 2   
    38   19   20 1   
    39   19   21 1   
    40   19   22 1   
    41   24   39 1   
    42   24   40 1   
@<TRIPOS>SUBSTRUCTURE
     1 CEL         1 TEMP              0 ****  ****    0 ROOT
