@<TRIPOS>MOLECULE
CEL
   40    32     1     0     0
SMALL
bcc


@<TRIPOS>ATOM
      1 S1         -4.7260   -1.4150    0.4450 ss        1 CEL      2.866000
      2 C15        -2.9520   -1.4370    0.4520 c1        1 CEL     -0.824000
      3 C14        -2.2630   -1.2140    1.6340 c2        1 CEL     -0.012000
      4 C13        -0.8790   -1.1290    1.6250 c1        1 CEL     -0.142000
      5 C12        -0.1840   -1.2670    0.4340 c1        1 CEL      0.119000
      6 C17        -0.8730   -1.4900   -0.7480 c1        1 CEL     -0.157000
      7 C16        -2.2570   -1.5760   -0.7390 c1        1 CEL     -0.010000
      8 N2          1.1590   -1.2570    0.4370 n2        1 CEL     -0.077000
      9 C3          1.9450   -0.2020    0.1320 c2        1 CEL     -0.004000
     10 C5          1.5070    1.0510   -0.2730 c1        1 CEL     -0.058000
     11 C10         1.4990    1.3810   -1.6200 c1        1 CEL     -0.119000
     12 C9          1.1440    2.6590   -2.0180 c1        1 CEL     -0.119000
     13 C8          0.7960    3.6100   -1.0710 c1        1 CEL     -0.047000
     14 C11         0.3380    4.9840   -1.5100 c3        1 CEL     -0.186000
     15 C7          0.8050    3.2810    0.2750 c1        1 CEL     -0.133000
     16 C6          1.1600    2.0010    0.6740 c1        1 CEL     -0.095000
     17 C2          3.2450   -0.6000    0.2430 c1        1 CEL     -0.166000
     18 C1          3.2530   -1.9120    0.6210 c1        1 CEL     -0.207000
     19 C4          4.4810   -2.7750    0.8110 c2        1 CEL      0.513000
     20 F3          5.2000   -2.3090    1.8410 f         1 CEL     -0.158000
     21 F2          4.1060   -4.0360    1.0640 f         1 CEL     -0.158000
     22 F1          5.2240   -2.7450   -0.3020 f         1 CEL     -0.158000
     23 N1          1.9720   -2.3190    0.7400 n2        1 CEL     -0.008000
     24 N3         -5.3150   -2.9450    0.5530 n2        1 CEL     -0.953000
     25 O2         -5.2340   -0.7420   -0.7180 o         1 CEL     -0.935000
     26 O1         -5.2410   -0.5830    1.4960 o         1 CEL     -0.935000
     27 H14C       -2.7530   -1.1170    2.4740 ha        1 CEL      0.160000
     28 H13C       -0.3940   -0.9710    2.4580 ha        1 CEL      0.167000
     29 H17C       -0.3840   -1.5870   -1.5880 ha        1 CEL      0.161000
     30 H16C       -2.7420   -1.7330   -1.5720 ha        1 CEL      0.161000
     31 H10C        1.7440    0.7120   -2.2870 ha        1 CEL      0.140500
     32 HC9         1.1380    2.8910   -2.9670 ha        1 CEL      0.140500
     33 H111       -0.1640    4.9080   -2.3490 hc        1 CEL      0.090000
     34 H112       -0.2370    5.3730   -0.8190 hc        1 CEL      0.090000
     35 H113        1.1190    5.5600   -1.6480 hc        1 CEL      0.090000
     36 HC7         0.5600    3.9500    0.9430 ha        1 CEL      0.142000
     37 HC6         1.1660    1.7700    1.6220 ha        1 CEL      0.143000
     38 HC2         4.0310   -0.0440    0.0820 DU        1 CEL      0.188000
     39 HN31       -5.6300   -3.3670   -0.1950 hn        1 CEL      0.245000
     40 HN32       -5.3630   -3.3590    1.3660 hn        1 CEL      0.245000
@<TRIPOS>BOND
     1    1   25 1   
     2    1   26 1   
     3    2    3 1   
     4    2    7 1   
     5    3    4 1   
     6    3   27 1   
     7    4   28 1   
     8    5    6 1   
     9    6   29 1   
    10    7   30 1   
    11    8    9 1   
    12    8   23 1   
    13    9   10 1   
    14    9   17 1   
    15   10   16 1   
    16   11   12 1   
    17   11   31 1   
    18   12   32 1   
    19   13   14 1   
    20   13   15 1   
    21   14   33 1   
    22   14   34 1   
    23   14   35 1   
    24   15   36 1   
    25   16   37 1   
    26   17   18 1   
    27   18   23 1   
    28   19   20 1   
    29   19   21 1   
    30   19   22 1   
    31   24   39 1   
    32   24   40 1   
@<TRIPOS>SUBSTRUCTURE
     1 CEL         1 TEMP              0 ****  ****    0 ROOT
