@<TRIPOS>MOLECULE
CEL
   41    43     1     0     0
SMALL
bcc


@<TRIPOS>ATOM
      1 S1          0.0270    0.1100    0.2250 sy        1 CEL      1.505200
      2 C15         1.6090    0.0850    0.1640 ca        1 CEL     -0.607500
      3 C14         2.3990    0.4030    1.2970 ca        1 CEL      0.032000
      4 C13         3.7730    0.3280    1.2790 ca        1 CEL     -0.176500
      5 C12         4.4560   -0.0930    0.0990 ca        1 CEL      0.195800
      6 C17         3.6760   -0.4230   -1.0420 ca        1 CEL     -0.176500
      7 C16         2.3020   -0.3350   -0.9980 ca        1 CEL      0.032000
      8 N2          5.8560   -0.1570    0.0720 na        1 CEL      0.120300
      9 C3          6.6940   -0.9060   -0.8240 cc        1 CEL      0.004700
     10 C5          6.2450   -1.8300   -1.8500 ca        1 CEL     -0.096000
     11 C10         5.8080   -3.1160   -1.5010 ca        1 CEL     -0.097500
     12 C9          5.4570   -4.0250   -2.4940 ca        1 CEL     -0.135500
     13 C8          5.5380   -3.6700   -3.8470 ca        1 CEL     -0.036300
     14 C11         5.1910   -4.6490   -4.9010 c3        1 CEL     -0.069800
     15 C7          5.9740   -2.3830   -4.1900 ca        1 CEL     -0.135500
     16 C6          6.3280   -1.4680   -3.2030 ca        1 CEL     -0.097500
     17 C2          8.0070   -0.6100   -0.4650 cd        1 CEL     -0.212300
     18 C1          7.8970    0.3150    0.6530 cd        1 CEL      0.269600
     19 C4          9.0640    0.9420    1.4040 c3        1 CEL      0.629600
     20 F3          9.0840    2.3110    1.3410 f         1 CEL     -0.214300
     21 F2          9.0810    0.6430    2.7410 f         1 CEL     -0.214300
     22 F1         10.2860    0.5420    0.9290 f         1 CEL     -0.214300
     23 N1          6.6060    0.5580    0.9530 nc        1 CEL     -0.447800
     24 N3         -0.2260    1.9640   -0.2890 n4        1 CEL     -0.784500
     25 O2         -0.6220   -0.5000   -0.8270 o         1 CEL     -0.572300
     26 O1         -0.5260    0.1600    1.4860 o         1 CEL     -0.572300
     27 H14C        1.8910    0.7010    2.2360 ha        1 CEL      0.170000
     28 H13C        4.3380    0.5890    2.1930 ha        1 CEL      0.195500
     29 H17C        4.1650   -0.7520   -1.9780 ha        1 CEL      0.195500
     30 H16C        1.7170   -0.6110   -1.8970 ha        1 CEL      0.170000
     31 H10C        5.7610   -3.4140   -0.4420 ha        1 CEL      0.145000
     32 HC9         5.1240   -5.0370   -2.2150 ha        1 CEL      0.151000
     33 H111        4.4140   -5.3680   -4.5430 hc        1 CEL      0.059367
     34 H112        4.8070   -4.1360   -5.8170 hc        1 CEL      0.059367
     35 H113        6.1030   -5.2340   -5.1860 hc        1 CEL      0.059367
     36 HC7         6.0500   -2.0970   -5.2510 ha        1 CEL      0.151000
     37 HC6         6.6890   -0.4670   -3.4840 ha        1 CEL      0.145000
     38 HC2         8.9320   -0.9840   -0.9000 ha        1 CEL      0.209000
     39 HN31        0.6530    2.4410   -0.4570 hn        1 CEL      0.452133
     40 HN32       -0.7830    2.0200   -1.1390 hn        1 CEL      0.452133
     41 H33        -0.7230    2.4660    0.4430 hn        1 CEL      0.452133
@<TRIPOS>BOND
     1    1    2 1   
     2    1   24 1   
     3    1   25 2   
     4    1   26 2   
     5    2    3 ar  
     6    2    7 ar  
     7    3    4 ar  
     8    3   27 1   
     9    4    5 ar  
    10    4   28 1   
    11    5    6 ar  
    12    5    8 1   
    13    6    7 ar  
    14    6   29 1   
    15    7   30 1   
    16    8    9 1   
    17    8   23 1   
    18    9   10 1   
    19    9   17 2   
    20   10   11 ar  
    21   10   16 ar  
    22   11   12 ar  
    23   11   31 1   
    24   12   13 ar  
    25   12   32 1   
    26   13   14 1   
    27   13   15 ar  
    28   14   33 1   
    29   14   34 1   
    30   14   35 1   
    31   15   16 ar  
    32   15   36 1   
    33   16   37 1   
    34   17   18 1   
    35   17   38 1   
    36   18   19 1   
    37   18   23 2   
    38   19   20 1   
    39   19   21 1   
    40   19   22 1   
    41   24   39 1   
    42   24   40 1   
    43   24   41 1   
@<TRIPOS>SUBSTRUCTURE
     1 CEL         1 TEMP              0 ****  ****    0 ROOT
