@<TRIPOS>MOLECULE
CEM
   24    23     1     0     0
SMALL
bcc


@<TRIPOS>ATOM
      1 O1         -0.1650   -1.3250   -1.4680 oh        1 CEM     -0.651800
      2 C2          0.0190    0.0690   -1.6660 c3        1 CEM      0.163100
      3 C3          0.6410    0.7430   -0.4270 c3        1 CEM      0.026500
      4 N4         -0.1250    0.4950    0.7800 nh        1 CEM     -0.724000
      5 C5          0.3670    0.8810    1.9900 c2        1 CEM      0.185000
      6 C6         -0.1660    0.5970    3.2190 ce        1 CEM     -0.468200
      7 C7         -1.2860   -0.2670    3.4750 c         1 CEM      0.590100
      8 O8         -1.7840   -0.4470    4.6000 o         1 CEM     -0.618100
      9 C9         -1.3460    0.6550   -2.0130 c3        1 CEM     -0.205400
     10 C10        -1.8620    0.1070   -3.3040 c         1 CEM      0.574900
     11 O11        -2.6350    0.7260   -4.0420 o         1 CEM     -0.569100
     12 C12         2.1450    0.2960   -0.3040 c         1 CEM      0.905600
     13 O13         2.9010    1.0480    0.3610 o         1 CEM     -0.816800
     14 O14         2.4800   -0.7730   -0.8840 o         1 CEM     -0.816800
     15 HO1         0.7160   -1.6870   -1.2640 ho        1 CEM      0.459000
     16 H2          0.7380    0.2300   -2.5200 h1        1 CEM      0.054700
     17 H3          0.6430    1.8590   -0.5970 h1        1 CEM      0.055700
     18 HN4        -0.7230   -0.3030    0.7390 hn        1 CEM      0.415800
     19 H5          1.2700    1.5370    1.9270 h4        1 CEM      0.182000
     20 H6          0.3020    1.0620    4.0990 ha        1 CEM      0.139000
     21 H7         -1.7240   -0.8040    2.5990 h4        1 CEM     -0.044800
     22 H91        -2.0880    0.3880   -1.2120 hc        1 CEM      0.075700
     23 H92        -1.2710    1.7720   -2.0550 hc        1 CEM      0.075700
     24 H10        -1.5110   -0.9190   -3.5570 h4        1 CEM      0.011200
@<TRIPOS>BOND
     1    1    2 1   
     2    1   15 1   
     3    2    3 1   
     4    2    9 1   
     5    2   16 1   
     6    3    4 1   
     7    3   12 1   
     8    3   17 1   
     9    4    5 1   
    10    4   18 1   
    11    5    6 2   
    12    5   19 1   
    13    6    7 1   
    14    6   20 1   
    15    7    8 2   
    16    7   21 1   
    17    9   10 1   
    18    9   22 1   
    19    9   23 1   
    20   10   11 2   
    21   10   24 1   
    22   12   13 1   
    23   12   14 1   
@<TRIPOS>SUBSTRUCTURE
     1 CEM         1 TEMP              0 ****  ****    0 ROOT
