@<TRIPOS>MOLECULE
CEM
   25    24     1     0     0
SMALL
bcc


@<TRIPOS>ATOM
      1 O1          0.1710   -0.2510   -0.2120 oh        1 CEM     -0.630800
      2 C2          1.5250    0.1670   -0.1470 c3        1 CEM      0.148100
      3 C3          1.9840    0.2850    1.3150 c3        1 CEM     -0.103500
      4 N4          0.9880    1.0560    2.1350 ny        1 CEM     -0.650800
      5 C5          1.4900    1.2910    3.4770 c2        1 CEM      0.025000
      6 C6          1.4460    2.4650    4.1260 ce        1 CEM     -0.256200
      7 C7          0.9020    3.7300    3.6110 c         1 CEM      0.564100
      8 O8          0.3770    3.8330    2.4970 o         1 CEM     -0.538100
      9 C9          1.6240    1.4900   -0.8950 c3        1 CEM     -0.219400
     10 C10         1.4470    1.2920   -2.3730 c         1 CEM      0.572900
     11 O11         1.9740    2.0320   -3.2030 o         1 CEM     -0.521100
     12 C12         2.0550   -1.1990    1.9210 c         1 CEM      0.917600
     13 O13         0.9230   -1.7240    2.0780 o         1 CEM     -0.756300
     14 O14         3.1920   -1.6230    2.1780 o         1 CEM     -0.756300
     15 HO1         0.1230   -1.1350    0.1960 ho        1 CEM      0.458000
     16 H2          2.1960   -0.6040   -0.6250 h1        1 CEM      0.087700
     17 H3          2.9870    0.7800    1.3850 hx        1 CEM      0.104700
     18 HN4         0.1560    0.4320    2.1980 hn        1 CEM      0.470800
     19 H5          1.9310    0.3670    3.9210 hx        1 CEM      0.222000
     20 H6          1.8570    2.5080    5.1520 ha        1 CEM      0.179000
     21 H7          0.9930    4.6030    4.2950 h4        1 CEM      0.037200
     22 H91         0.8130    2.1910   -0.5580 hc        1 CEM      0.077200
     23 H92         2.6150    1.9670   -0.6820 hc        1 CEM      0.077200
     24 H10         0.7920    0.4400   -2.6600 h4        1 CEM      0.021200
     25 H42         0.7210    1.9280    1.6600 hn        1 CEM      0.470800
@<TRIPOS>BOND
     1    1    2 1   
     2    1   15 1   
     3    2    3 1   
     4    2    9 1   
     5    2   16 1   
     6    3    4 1   
     7    3   12 1   
     8    3   17 1   
     9    4    5 1   
    10    4   18 1   
    11    4   25 1   
    12    5    6 2   
    13    5   19 1   
    14    6    7 1   
    15    6   20 1   
    16    7    8 2   
    17    7   21 1   
    18    9   10 1   
    19    9   22 1   
    20    9   23 1   
    21   10   11 2   
    22   10   24 1   
    23   12   13 1   
    24   12   14 1   
@<TRIPOS>SUBSTRUCTURE
     1 CEM         1 TEMP              0 ****  ****    0 ROOT
