@<TRIPOS>MOLECULE
CEM
   25    24     1     0     0
SMALL
bcc


@<TRIPOS>ATOM
      1 O1         -0.0410   -0.2420    0.0900 oh        1 CEM     -0.619800
      2 C2          1.3510    0.0220    0.1480 c3        1 CEM      0.148100
      3 C3          1.8440   -0.0930    1.5970 c3        1 CEM     -0.102500
      4 N4          1.1590    0.8650    2.5290 n4        1 CEM     -0.659800
      5 C5          2.0730    1.7970    3.1540 c2        1 CEM      0.011000
      6 C6          1.9650    3.1350    3.1440 ce        1 CEM     -0.251200
      7 C7          0.9120    3.9260    2.4850 c         1 CEM      0.560100
      8 O8         -0.0210    3.4140    1.8600 o         1 CEM     -0.526100
      9 C9          1.5740    1.4040   -0.4500 c3        1 CEM     -0.224400
     10 C10         1.3870    1.3890   -1.9390 c         1 CEM      0.575900
     11 O11         1.9990    2.1530   -2.6850 o         1 CEM     -0.526100
     12 C12         1.5650   -1.5940    2.1150 c         1 CEM      0.932600
     13 O13         1.2820   -1.6800    3.3360 o         1 CEM     -0.755800
     14 O14         1.6370   -2.4700    1.2370 o         1 CEM     -0.755800
     15 HO1        -0.1450   -1.1960    0.2410 ho        1 CEM      0.446000
     16 H2          1.9220   -0.7620   -0.4320 h1        1 CEM      0.103700
     17 H3          2.9530    0.0710    1.6370 hx        1 CEM      0.094700
     18 HN4         0.3940    1.3400    2.0290 hn        1 CEM      0.482300
     19 H5          2.9060    1.2780    3.6780 hx        1 CEM      0.196000
     20 H6          2.7330    3.7260    3.6770 ha        1 CEM      0.174000
     21 H7          1.0140    5.0290    2.5870 h4        1 CEM      0.038200
     22 H91         2.6040    1.7610   -0.1920 hc        1 CEM      0.076700
     23 H92         0.8260    2.1350   -0.0340 hc        1 CEM      0.076700
     24 H10         0.6440    0.6510   -2.3150 h4        1 CEM      0.022200
     25 H42         0.7500    0.2620    3.2910 hn        1 CEM      0.482300
@<TRIPOS>BOND
     1    1    2 1   
     2    1   15 1   
     3    2    3 1   
     4    2    9 1   
     5    2   16 1   
     6    3    4 1   
     7    3   12 1   
     8    3   17 1   
     9    4    5 1   
    10    4   18 1   
    11    4   25 1   
    12    5    6 2   
    13    5   19 1   
    14    6    7 1   
    15    6   20 1   
    16    7    8 2   
    17    7   21 1   
    18    9   10 1   
    19    9   22 1   
    20    9   23 1   
    21   10   11 2   
    22   10   24 1   
    23   12   13 1   
    24   12   14 1   
@<TRIPOS>SUBSTRUCTURE
     1 CEM         1 TEMP              0 ****  ****    0 ROOT
