@<TRIPOS>MOLECULE
CEM
   24    22     1     0     0
SMALL
bcc


@<TRIPOS>ATOM
      1 O1         -0.5950   -0.8170   -1.6400 oh        1 CEM     -0.353000
      2 C2         -0.6780    0.4850   -1.0650 c3        1 CEM      0.035000
      3 C3         -0.2460    0.4260    0.3660 c3        1 CEM     -0.114000
      4 N4          0.7260   -0.6190    0.5300 n3        1 CEM     -0.288000
      5 C5          0.6000   -1.5440    1.6000 c2        1 CEM      0.097000
      6 C6          1.7210   -1.9920    2.2560 c1        1 CEM     -0.464000
      7 C7          3.1210   -1.4890    1.8280 c1        1 CEM      0.238000
      8 O8          3.7590   -2.1020    0.9840 o         1 CEM     -0.377000
      9 C9         -2.1230    0.9860   -1.1430 c3        1 CEM     -0.246000
     10 C10        -2.5280    1.1520   -2.6120 c2        1 CEM      0.206000
     11 O11        -3.3350    0.3800   -3.1150 o         1 CEM     -0.332000
     12 C12         0.3640    1.7370    0.7560 c2        1 CEM      0.339000
     13 O13        -0.1850    2.4440    1.6250 o         1 CEM     -0.545500
     14 O14         1.3620    2.1840    0.1150 o         1 CEM     -0.545500
     15 HO1         0.0120   -0.8150   -2.2990 ho        1 CEM      0.199000
     16 H2         -0.0990    1.0910   -1.5520 h1        1 CEM      0.085000
     17 H3         -1.0310    0.2420    0.9430 h1        1 CEM      0.097000
     18 HN4         1.4010   -0.7150   -0.0810 hn        1 CEM      0.256000
     19 H5         -0.2650   -1.8550    1.8640 h4        1 CEM      0.137000
     20 H6          1.6350   -2.6250    2.9880 ha        1 CEM      0.136000
     21 H7          3.4660   -0.6360    2.1820 ha        1 CEM      0.063000
     22 H91        -2.7200    0.3350   -0.7100 hc        1 CEM      0.151000
     23 H92        -2.1950    1.8530   -0.6840 hc        1 CEM      0.151000
     24 H10        -2.1680    1.8970   -3.1380 h4        1 CEM      0.076000
@<TRIPOS>BOND
     1    1    2 1   
     2    1   15 1   
     3    2    3 1   
     4    2    9 1   
     5    2   16 1   
     6    3    4 1   
     7    3   12 1   
     8    3   17 1   
     9    4    5 1   
    10    4   18 1   
    11    5    6 1   
    12    5   19 1   
    13    6   20 1   
    14    7    8 1   
    15    7   21 1   
    16    9   10 1   
    17    9   22 1   
    18    9   23 1   
    19   10   11 1   
    20   10   24 1   
    21   12   13 1   
    22   12   14 1   
@<TRIPOS>SUBSTRUCTURE
     1 CEM         1 TEMP              0 ****  ****    0 ROOT
