@<TRIPOS>MOLECULE
CEM
   25    24     1     0     0
SMALL
bcc


@<TRIPOS>ATOM
      1 O1         -0.0320   -0.1670   -0.0020 oh        1 CEM     -0.619800
      2 C2          1.3610    0.0850    0.0920 c3        1 CEM      0.148100
      3 C3          1.8320   -0.1140    1.5380 c3        1 CEM     -0.102500
      4 N4          1.1380    0.7950    2.5130 n4        1 CEM     -0.659800
      5 C5          2.0480    1.6840    3.2030 c2        1 CEM      0.011000
      6 C6          1.9480    3.0210    3.2660 ce        1 CEM     -0.251200
      7 C7          0.9110    3.8550    2.6370 c         1 CEM      0.560100
      8 O8         -0.0150    3.3860    1.9700 o         1 CEM     -0.526100
      9 C9          1.6000    1.4960   -0.4250 c3        1 CEM     -0.224400
     10 C10         1.4350    1.5650   -1.9160 c         1 CEM      0.575900
     11 O11         2.0620    2.3650   -2.6090 o         1 CEM     -0.526100
     12 C12         1.5380   -1.6400    1.9680 c         1 CEM      0.932600
     13 O13         1.2350   -1.7920    3.1770 o         1 CEM     -0.755800
     14 O14         1.6190   -2.4660    1.0430 o         1 CEM     -0.755800
     15 HO1        -0.1430   -1.1270    0.0950 ho        1 CEM      0.446000
     16 H2          1.9370   -0.6690   -0.5230 h1        1 CEM      0.103700
     17 H3          2.9410    0.0410    1.6030 hx        1 CEM      0.094700
     18 HN4         0.3840    1.3030    2.0280 hn        1 CEM      0.482300
     19 H5          2.8690    1.1300    3.7100 hx        1 CEM      0.196000
     20 H6          2.7120    3.5750    3.8430 ha        1 CEM      0.174000
     21 H7          1.0180    4.9500    2.8030 h4        1 CEM      0.038200
     22 H91         0.8500    2.2080    0.0200 hc        1 CEM      0.076700
     23 H92         2.6280    1.8320   -0.1340 hc        1 CEM      0.076700
     24 H10         0.6930    0.8540   -2.3430 h4        1 CEM      0.022200
     25 H42         0.7140    0.1530    3.2330 hn        1 CEM      0.482300
@<TRIPOS>BOND
     1    1    2 1   
     2    1   15 1   
     3    2    3 1   
     4    2    9 1   
     5    2   16 1   
     6    3    4 1   
     7    3   12 1   
     8    3   17 1   
     9    4    5 1   
    10    4   18 1   
    11    4   25 1   
    12    5    6 2   
    13    5   19 1   
    14    6    7 1   
    15    6   20 1   
    16    7    8 2   
    17    7   21 1   
    18    9   10 1   
    19    9   22 1   
    20    9   23 1   
    21   10   11 2   
    22   10   24 1   
    23   12   13 1   
    24   12   14 1   
@<TRIPOS>SUBSTRUCTURE
     1 CEM         1 TEMP              0 ****  ****    0 ROOT
