@<TRIPOS>MOLECULE
CEN
   42    43     1     0     0
SMALL
bcc


@<TRIPOS>ATOM
      1 S1          0.4590   -1.5550    0.2940 ss        1 CEN     -0.364200
      2 C2          2.2160   -1.7160    0.0450 c3        1 CEN      0.084900
      3 C3          2.9600   -0.4710   -0.2440 c2        1 CEN     -0.279400
      4 C4          2.5310    0.7940    0.0390 ce        1 CEN      0.043400
      5 N5          1.3120    1.0310    0.6640 n         1 CEN     -0.350000
      6 C6          0.4330   -0.0180    1.1850 cy        1 CEN      0.110800
      7 C7         -0.8020    0.9420    0.9670 cy        1 CEN      0.027700
      8 C8          0.2600    1.9410    0.3640 c         1 CEN      0.701500
      9 O9          0.2050    3.0640   -0.1050 o         1 CEN     -0.533500
     10 C13         4.2800   -0.6930   -0.8940 c3        1 CEN      0.210600
     11 N14        -1.8380    0.5200    0.1060 n         1 CEN     -0.560900
     12 C15        -3.1690    0.4300    0.5180 c         1 CEN      0.666100
     13 O16        -3.4990    0.8320    1.6490 o         1 CEN     -0.606100
     14 C17        -4.1430   -0.1340   -0.4950 c3        1 CEN     -0.146400
     15 C1          6.3160   -1.8220   -0.3100 c         1 CEN      0.629100
     16 O2          6.5840   -1.8750   -1.5160 o         1 CEN     -0.577000
     17 O3          5.1340   -1.3150    0.1070 os        1 CEN     -0.432900
     18 C           7.1790   -2.2860    0.8190 c3        1 CEN     -0.152100
     19 C5         -5.5130   -0.4030    0.0980 c3        1 CEN     -0.055400
     20 C9         -6.4040   -1.0830   -0.9140 c3        1 CEN     -0.195400
     21 C11        -7.8490   -1.2210   -0.4020 c         1 CEN      0.910600
     22 O          -8.3400   -2.3860   -0.3280 o         1 CEN     -0.854300
     23 O1         -8.4900   -0.1710   -0.1080 o         1 CEN     -0.854300
     24 C10         3.4310    2.0300   -0.2690 c         1 CEN      0.928800
     25 O4          3.6410    2.2880   -1.4810 o         1 CEN     -0.795300
     26 O5          3.9070    2.6340    0.7220 o         1 CEN     -0.795300
     27 HC21        2.3040   -2.4300   -0.8140 h1        1 CEN      0.058700
     28 HC22        2.6550   -2.2080    0.9500 h1        1 CEN      0.058700
     29 HC6         0.6390   -0.2200    2.2630 h2        1 CEN      0.088700
     30 HC7        -1.2240    1.3190    1.9370 h1        1 CEN      0.117700
     31 H131        4.7710    0.2630   -1.2200 h1        1 CEN      0.071200
     32 H132        4.1950   -1.3950   -1.7650 h1        1 CEN      0.071200
     33 H14        -1.5670    0.0850   -0.7460 hn        1 CEN      0.321500
     34 H171       -4.2360    0.6030   -1.3370 hc        1 CEN      0.057200
     35 H172       -3.7300   -1.0880   -0.9200 hc        1 CEN      0.057200
     36 HC1         7.7050   -1.4010    1.2530 hc        1 CEN      0.062367
     37 HC2         6.5550   -2.7570    1.6150 hc        1 CEN      0.062367
     38 HC3         7.9300   -3.0180    0.4400 hc        1 CEN      0.062367
     39 HC51       -5.4080   -1.0450    1.0100 hc        1 CEN      0.058700
     40 HC52       -5.9860    0.5600    0.4270 hc        1 CEN      0.058700
     41 HC91       -6.4320   -0.4830   -1.8590 hc        1 CEN      0.018200
     42 HC92       -6.0030   -2.0980   -1.1600 hc        1 CEN      0.018200
@<TRIPOS>BOND
     1    1    2 1   
     2    1    6 1   
     3    2    3 1   
     4    2   27 1   
     5    2   28 1   
     6    3    4 2   
     7    3   10 1   
     8    4    5 1   
     9    4   24 1   
    10    5    6 1   
    11    5    8 1   
    12    6    7 1   
    13    6   29 1   
    14    7    8 1   
    15    7   11 1   
    16    7   30 1   
    17    8    9 2   
    18   10   17 1   
    19   10   31 1   
    20   10   32 1   
    21   11   12 1   
    22   11   33 1   
    23   12   13 2   
    24   12   14 1   
    25   14   19 1   
    26   14   34 1   
    27   14   35 1   
    28   15   16 2   
    29   15   17 1   
    30   15   18 1   
    31   18   36 1   
    32   18   37 1   
    33   18   38 1   
    34   19   20 1   
    35   19   39 1   
    36   19   40 1   
    37   20   21 1   
    38   20   41 1   
    39   20   42 1   
    40   21   22 1   
    41   21   23 1   
    42   24   25 1   
    43   24   26 1   
@<TRIPOS>SUBSTRUCTURE
     1 CEN         1 TEMP              0 ****  ****    0 ROOT
