@<TRIPOS>MOLECULE
CEN
   43    44     1     0     0
SMALL
bcc


@<TRIPOS>ATOM
      1 S1         -0.5780   -0.2380   -0.6160 ss        1 CEN     -0.272200
      2 C2          1.2130   -0.2160   -0.5840 c3        1 CEN      0.058900
      3 C3          1.6840    0.0280    0.7920 c2        1 CEN     -0.183400
      4 C4          1.1070   -0.5980    1.8530 ce        1 CEN     -0.078600
      5 N5          0.1860   -1.6600    1.6740 n         1 CEN     -0.283000
      6 C6         -0.8660   -1.4450    0.6300 cy        1 CEN      0.064800
      7 C7         -1.9460   -1.2530    1.7600 cy        1 CEN      0.016500
      8 C8         -0.8290   -1.7980    2.7210 c         1 CEN      0.701500
      9 O9         -0.8550   -2.3330    3.8090 o         1 CEN     -0.475500
     10 C13         2.7290    1.0730    0.9760 c3        1 CEN      0.188600
     11 N14        -2.3150    0.1400    2.0610 n4        1 CEN     -0.666800
     12 C15        -3.4020    0.2590    3.0930 c         1 CEN      0.602100
     13 O16        -3.9400   -0.7640    3.5000 o         1 CEN     -0.473100
     14 C17        -3.6830    1.6600    3.5820 c3        1 CEN     -0.146400
     15 C1          4.7910    1.6680   -0.0830 c         1 CEN      0.630100
     16 O2          4.6970    2.7580    0.4880 o         1 CEN     -0.551000
     17 O3          3.7990    0.7480    0.0550 os        1 CEN     -0.440900
     18 C           5.9010    1.1930   -0.9600 c3        1 CEN     -0.151100
     19 C5         -5.1680    1.9760    3.4820 c3        1 CEN     -0.057400
     20 C9         -5.5730    2.3740    2.0730 c3        1 CEN     -0.186400
     21 C11        -4.7320    1.5790    1.0830 c         1 CEN      0.877600
     22 O          -4.9540    0.3420    0.9160 o         1 CEN     -0.848300
     23 O1         -3.7120    2.1320    0.5570 o         1 CEN     -0.848300
     24 C10         1.1730    0.0060    3.2760 c         1 CEN      0.931800
     25 O4          0.0280    0.3730    3.6980 o         1 CEN     -0.795800
     26 O5          2.2590    0.1350    3.8720 o         1 CEN     -0.795800
     27 HC21        1.5190    0.6060   -1.2760 h1        1 CEN      0.081200
     28 HC22        1.6010   -1.1830   -0.9850 h1        1 CEN      0.081200
     29 HC6        -1.0620   -2.4250    0.1180 h2        1 CEN      0.103700
     30 HC7        -2.8650   -1.8820    1.6530 hx        1 CEN      0.142700
     31 H131        3.1500    1.0760    2.0180 h1        1 CEN      0.083700
     32 H132        2.3330    2.0920    0.7160 h1        1 CEN      0.083700
     33 H14        -1.4730    0.6400    2.4290 hn        1 CEN      0.515300
     34 H171       -3.3430    1.6920    4.6520 hc        1 CEN      0.094700
     35 H172       -3.1020    2.4260    2.9980 hc        1 CEN      0.094700
     36 HC1         5.5570    0.3610   -1.6200 hc        1 CEN      0.067367
     37 HC2         6.7330    0.8230   -0.3110 hc        1 CEN      0.067367
     38 HC3         6.2690    2.0440   -1.5810 hc        1 CEN      0.067367
     39 HC51       -5.7580    1.0770    3.8040 hc        1 CEN      0.047200
     40 HC52       -5.3970    2.8110    4.1930 hc        1 CEN      0.047200
     41 HC91       -5.3970    3.4670    1.9130 hc        1 CEN      0.046700
     42 HC92       -6.6580    2.1590    1.9130 hc        1 CEN      0.046700
     43 H142       -2.6380    0.6180    1.1740 hn        1 CEN      0.515300
@<TRIPOS>BOND
     1    1    2 1   
     2    1    6 1   
     3    2    3 1   
     4    2   27 1   
     5    2   28 1   
     6    3    4 2   
     7    3   10 1   
     8    4    5 1   
     9    4   24 1   
    10    5    6 1   
    11    5    8 1   
    12    6    7 1   
    13    6   29 1   
    14    7    8 1   
    15    7   11 1   
    16    7   30 1   
    17    8    9 2   
    18   10   17 1   
    19   10   31 1   
    20   10   32 1   
    21   11   12 1   
    22   11   33 1   
    23   11   43 1   
    24   12   13 2   
    25   12   14 1   
    26   14   19 1   
    27   14   34 1   
    28   14   35 1   
    29   15   16 2   
    30   15   17 1   
    31   15   18 1   
    32   18   36 1   
    33   18   37 1   
    34   18   38 1   
    35   19   20 1   
    36   19   39 1   
    37   19   40 1   
    38   20   21 1   
    39   20   41 1   
    40   20   42 1   
    41   21   22 1   
    42   21   23 1   
    43   24   25 1   
    44   24   26 1   
@<TRIPOS>SUBSTRUCTURE
     1 CEN         1 TEMP              0 ****  ****    0 ROOT
