@<TRIPOS>MOLECULE
CEN
   43    44     1     0     0
SMALL
bcc


@<TRIPOS>ATOM
      1 S1         -0.6970   -0.7200   -0.2010 ss        1 CEN     -0.292200
      2 C2          1.0600   -0.3860   -0.3500 c3        1 CEN      0.066900
      3 C3          1.6280   -0.0810    0.9760 c2        1 CEN     -0.164400
      4 C4          1.2790   -0.7950    2.0780 ce        1 CEN     -0.103600
      5 N5          0.5190   -1.9920    1.9910 n         1 CEN     -0.260000
      6 C6         -0.6590   -1.9380    1.0660 cy        1 CEN      0.052800
      7 C7         -1.6240   -1.8150    2.3040 cy        1 CEN     -0.015500
      8 C8         -0.3580   -2.2330    3.1420 c         1 CEN      0.706500
      9 O9         -0.2320   -2.7670    4.2210 o         1 CEN     -0.455500
     10 C13         2.5190    1.1110    1.0760 c3        1 CEN      0.184600
     11 N14        -2.0480   -0.4320    2.5960 n4        1 CEN     -0.690800
     12 C15        -3.3340   -0.3050    3.3610 c         1 CEN      0.567100
     13 O16        -3.8420   -1.3280    3.8040 o         1 CEN     -0.468100
     14 C17        -3.8620    1.0970    3.4750 c3        1 CEN     -0.159400
     15 C1          4.2530    2.1190   -0.2260 c         1 CEN      0.631100
     16 O2          4.1950    3.0620    0.5670 o         1 CEN     -0.539000
     17 O3          3.3930    1.0710   -0.0740 os        1 CEN     -0.447900
     18 C           5.1680    1.9520   -1.3900 c3        1 CEN     -0.150100
     19 C5         -4.0550    1.7230    2.1070 c3        1 CEN     -0.089400
     20 C9         -5.0780    2.8320    2.1280 c3        1 CEN     -0.208400
     21 C11        -5.5950    3.1110    0.6950 c         1 CEN      0.914600
     22 O          -6.0950    4.2460    0.4770 o         1 CEN     -0.834300
     23 O1         -5.5010    2.1830   -0.1580 o         1 CEN     -0.834300
     24 C10         1.4370   -0.2030    3.4960 c         1 CEN      0.930800
     25 O4          0.3120    0.0000    4.0730 o         1 CEN     -0.781300
     26 O5          2.5550    0.0600    3.9650 o         1 CEN     -0.781300
     27 HC21        1.1430    0.4850   -1.0470 h1        1 CEN      0.094200
     28 HC22        1.5580   -1.2690   -0.8190 h1        1 CEN      0.094200
     29 HC6        -0.7890   -2.9470    0.5940 h2        1 CEN      0.115700
     30 HC7        -2.4870   -2.5230    2.3240 hx        1 CEN      0.133700
     31 H131        1.9250    2.0640    1.0370 h1        1 CEN      0.086700
     32 H132        3.1470    1.0920    2.0090 h1        1 CEN      0.086700
     33 H14        -1.2740    0.0340    3.1660 hn        1 CEN      0.502800
     34 H171       -4.8440    1.0340    4.0190 hc        1 CEN      0.098200
     35 H172       -3.1570    1.7080    4.1000 hc        1 CEN      0.098200
     36 HC1         6.2010    1.7630   -1.0080 hc        1 CEN      0.070700
     37 HC2         5.1660    2.8910   -1.9940 hc        1 CEN      0.070700
     38 HC3         4.8490    1.0930   -2.0290 hc        1 CEN      0.070700
     39 HC51       -3.0800    2.1300    1.7320 hc        1 CEN      0.062700
     40 HC52       -4.4130    0.9530    1.3650 hc        1 CEN      0.062700
     41 HC91       -4.6430    3.7680    2.5520 hc        1 CEN      0.034200
     42 HC92       -5.9630    2.5450    2.7490 hc        1 CEN      0.034200
     43 H142       -2.1350    0.0870    1.7010 hn        1 CEN      0.502800
@<TRIPOS>BOND
     1    1    2 1   
     2    1    6 1   
     3    2    3 1   
     4    2   27 1   
     5    2   28 1   
     6    3    4 2   
     7    3   10 1   
     8    4    5 1   
     9    4   24 1   
    10    5    6 1   
    11    5    8 1   
    12    6    7 1   
    13    6   29 1   
    14    7    8 1   
    15    7   11 1   
    16    7   30 1   
    17    8    9 2   
    18   10   17 1   
    19   10   31 1   
    20   10   32 1   
    21   11   12 1   
    22   11   33 1   
    23   11   43 1   
    24   12   13 2   
    25   12   14 1   
    26   14   19 1   
    27   14   34 1   
    28   14   35 1   
    29   15   16 2   
    30   15   17 1   
    31   15   18 1   
    32   18   36 1   
    33   18   37 1   
    34   18   38 1   
    35   19   20 1   
    36   19   39 1   
    37   19   40 1   
    38   20   21 1   
    39   20   41 1   
    40   20   42 1   
    41   21   22 1   
    42   21   23 1   
    43   24   25 1   
    44   24   26 1   
@<TRIPOS>SUBSTRUCTURE
     1 CEN         1 TEMP              0 ****  ****    0 ROOT
