@<TRIPOS>MOLECULE
CEN
   43    44     1     0     0
SMALL
bcc


@<TRIPOS>ATOM
      1 S1         -0.6670   -0.8680   -0.0360 ss        1 CEN     -0.285200
      2 C2          1.0810   -0.5210   -0.2340 c3        1 CEN      0.064900
      3 C3          1.6610   -0.0930    1.0510 c2        1 CEN     -0.162400
      4 C4          1.3340   -0.7080    2.2180 ce        1 CEN     -0.106600
      5 N5          0.5880   -1.9170    2.2500 n         1 CEN     -0.259000
      6 C6         -0.6010   -1.9600    1.3380 cy        1 CEN      0.049800
      7 C7         -1.5540   -1.7250    2.5700 cy        1 CEN     -0.015500
      8 C8         -0.2750   -2.0570    3.4290 c         1 CEN      0.706500
      9 O9         -0.1340   -2.4900    4.5510 o         1 CEN     -0.455500
     10 C13         2.5380    1.1140    1.0340 c3        1 CEN      0.184600
     11 N14        -1.9810   -0.3220    2.7340 ny        1 CEN     -0.692800
     12 C15        -3.2730   -0.1310    3.4740 c         1 CEN      0.566100
     13 O16        -3.7480   -1.0960    4.0600 o         1 CEN     -0.468100
     14 C17        -3.8550    1.2500    3.3710 c3        1 CEN     -0.161400
     15 C1          4.2390    2.0270   -0.3770 c         1 CEN      0.631100
     16 O2          4.2020    3.0200    0.3520 o         1 CEN     -0.539000
     17 O3          3.3860    0.9910   -0.1300 os        1 CEN     -0.448900
     18 C           5.1180    1.7820   -1.5550 c3        1 CEN     -0.150100
     19 C5         -4.5300    1.4230    2.0220 c3        1 CEN     -0.077400
     20 C9         -5.1250    2.8000    1.8740 c3        1 CEN     -0.211400
     21 C11        -5.4550    3.0730    0.3850 c         1 CEN      0.915600
     22 O          -6.4260    3.8360    0.1410 o         1 CEN     -0.833800
     23 O1         -4.7250    2.5210   -0.4870 o         1 CEN     -0.833800
     24 C10         1.5030    0.0100    3.5740 c         1 CEN      0.930800
     25 O4          0.3840    0.2560    4.1460 o         1 CEN     -0.780800
     26 O5          2.6240    0.3230    4.0040 o         1 CEN     -0.780800
     27 HC21        1.5890   -1.4340   -0.6310 h1        1 CEN      0.094700
     28 HC22        1.1420    0.2860   -1.0060 h1        1 CEN      0.094700
     29 HC6        -0.7280   -3.0110    0.9670 h2        1 CEN      0.114700
     30 HC7        -2.4120   -2.4320    2.6690 hx        1 CEN      0.131700
     31 H131        3.1860    1.1790    1.9510 h1        1 CEN      0.087200
     32 H132        1.9300    2.0530    0.9310 h1        1 CEN      0.087200
     33 H14        -1.2100    0.1930    3.2650 hn        1 CEN      0.503800
     34 H171       -4.6060    1.3650    4.1980 hc        1 CEN      0.095200
     35 H172       -3.0590    2.0290    3.5130 hc        1 CEN      0.095200
     36 HC1         4.8290    0.8420   -2.0820 hc        1 CEN      0.070367
     37 HC2         5.0360    2.6470   -2.2560 hc        1 CEN      0.070367
     38 HC3         6.1750    1.6960   -1.2000 hc        1 CEN      0.070367
     39 HC51       -3.7940    1.2760    1.1830 hc        1 CEN      0.062200
     40 HC52       -5.3360    0.6530    1.9020 hc        1 CEN      0.062200
     41 HC91       -4.3980    3.5820    2.2060 hc        1 CEN      0.033700
     42 HC92       -6.0530    2.9030    2.4850 hc        1 CEN      0.033700
     43 H142       -2.0590    0.1140    1.7950 hn        1 CEN      0.503800
@<TRIPOS>BOND
     1    1    2 1   
     2    1    6 1   
     3    2    3 1   
     4    2   27 1   
     5    2   28 1   
     6    3    4 2   
     7    3   10 1   
     8    4    5 1   
     9    4   24 1   
    10    5    6 1   
    11    5    8 1   
    12    6    7 1   
    13    6   29 1   
    14    7    8 1   
    15    7   11 1   
    16    7   30 1   
    17    8    9 2   
    18   10   17 1   
    19   10   31 1   
    20   10   32 1   
    21   11   12 1   
    22   11   33 1   
    23   11   43 1   
    24   12   13 2   
    25   12   14 1   
    26   14   19 1   
    27   14   34 1   
    28   14   35 1   
    29   15   16 2   
    30   15   17 1   
    31   15   18 1   
    32   18   36 1   
    33   18   37 1   
    34   18   38 1   
    35   19   20 1   
    36   19   39 1   
    37   19   40 1   
    38   20   21 1   
    39   20   41 1   
    40   20   42 1   
    41   21   22 1   
    42   21   23 1   
    43   24   25 1   
    44   24   26 1   
@<TRIPOS>SUBSTRUCTURE
     1 CEN         1 TEMP              0 ****  ****    0 ROOT
