@<TRIPOS>MOLECULE
CEO
   36    37     1     0     0
SMALL
bcc


@<TRIPOS>ATOM
      1 S1         -0.2180   -0.8940   -0.4890 ss        1 CEO     -0.414200
      2 C2          0.9970    0.3360   -0.0760 c3        1 CEO      0.051900
      3 C3          0.9230    0.7200    1.3530 ce        1 CEO     -0.272800
      4 C3'         1.0470    1.9950    1.7490 c2        1 CEO     -0.110000
      5 C4          0.8140   -0.3790    2.3340 ce        1 CEO      0.441600
      6 C4'         0.5920    0.0750    3.8120 c         1 CEO      0.856300
      7 O4A        -0.6600    0.0440    4.0730 o         1 CEO     -0.771800
      8 O4B         1.5110    0.4620    4.5410 o         1 CEO     -0.771800
      9 N5          0.6310   -1.6350    2.0730 n2        1 CEO     -0.647900
     10 C6         -0.0520   -2.0560    0.8940 c3        1 CEO      0.229600
     11 C7         -1.5430   -2.3520    1.2960 c3        1 CEO      0.005500
     12 C8         -1.5740   -3.6020    2.1700 c         1 CEO      0.589900
     13 O9         -2.3230   -3.7160    3.1350 o         1 CEO     -0.497100
     14 N10        -2.1390   -1.1520    1.9630 n4        1 CEO     -0.693800
     15 C11        -3.5970   -1.2650    2.2730 c         1 CEO      0.576100
     16 O12        -4.2950   -1.9490    1.5350 o         1 CEO     -0.462100
     17 C13        -4.0510   -0.4840    3.4870 c3        1 CEO     -0.058100
     18 C14        -4.3360    0.9110    3.1270 cc        1 CEO     -0.213400
     19 C15        -5.3010    1.3240    2.2140 cd        1 CEO     -0.141000
     20 C16        -5.3730    2.7420    2.1380 cd        1 CEO     -0.161000
     21 C17        -4.4690    3.3370    3.0020 cc        1 CEO     -0.191100
     22 S19        -3.5860    2.2220    3.8440 ss        1 CEO      0.171200
     23 HC21        2.0170   -0.0580   -0.3140 h1        1 CEO      0.089700
     24 HC22        0.7890    1.2000   -0.7560 h1        1 CEO      0.089700
     25 H3'1        1.1760    2.8180    1.0320 ha        1 CEO      0.139000
     26 H3'2        1.0410    2.2790    2.8140 ha        1 CEO      0.139000
     27 HC6         0.4060   -3.0010    0.5000 h2        1 CEO      0.114700
     28 HC7        -2.1370   -2.5690    0.3570 hx        1 CEO      0.127700
     29 HC8        -0.8730   -4.3950    1.8360 h4        1 CEO      0.048200
     30 H10        -1.6180   -0.9410    2.8770 hn        1 CEO      0.500800
     31 H131       -4.9840   -0.9920    3.8660 hc        1 CEO      0.118700
     32 H132       -3.2700   -0.5390    4.3020 hc        1 CEO      0.118700
     33 H15        -5.9340    0.6530    1.6290 ha        1 CEO      0.158000
     34 H16        -6.0610    3.2770    1.4810 ha        1 CEO      0.160000
     35 H17        -4.3440    4.4140    3.1240 h4        1 CEO      0.180000
     36 H102       -1.9850   -0.3490    1.3320 hn        1 CEO      0.500800
@<TRIPOS>BOND
     1    1    2 1   
     2    1   10 1   
     3    2    3 1   
     4    2   23 1   
     5    2   24 1   
     6    3    4 2   
     7    3    5 1   
     8    4   25 1   
     9    4   26 1   
    10    5    6 1   
    11    5    9 2   
    12    6    7 1   
    13    6    8 1   
    14    9   10 1   
    15   10   11 1   
    16   10   27 1   
    17   11   12 1   
    18   11   14 1   
    19   11   28 1   
    20   12   13 2   
    21   12   29 1   
    22   14   15 1   
    23   14   30 1   
    24   14   36 1   
    25   15   16 2   
    26   15   17 1   
    27   17   18 1   
    28   17   31 1   
    29   17   32 1   
    30   18   19 2   
    31   18   22 1   
    32   19   20 1   
    33   19   33 1   
    34   20   21 2   
    35   20   34 1   
    36   21   22 1   
    37   21   35 1   
@<TRIPOS>SUBSTRUCTURE
     1 CEO         1 TEMP              0 ****  ****    0 ROOT
