@<TRIPOS>MOLECULE
CEO
   36    37     1     0     0
SMALL
bcc


@<TRIPOS>ATOM
      1 S1         -0.1850   -0.8840   -0.4810 ss        1 CEO     -0.414200
      2 C2          0.9940    0.3820   -0.0730 c3        1 CEO      0.051900
      3 C3          0.9020    0.7770    1.3520 ce        1 CEO     -0.272800
      4 C3'         0.9900    2.0590    1.7360 c2        1 CEO     -0.110000
      5 C4          0.8170   -0.3150    2.3430 ce        1 CEO      0.441600
      6 C4'         0.5730    0.1470    3.8150 c         1 CEO      0.856300
      7 O4A        -0.6780    0.0840    4.0700 o         1 CEO     -0.771800
      8 O4B         1.4770    0.5660    4.5450 o         1 CEO     -0.771800
      9 N5          0.6680   -1.5780    2.0930 n2        1 CEO     -0.647900
     10 C6          0.0040   -2.0280    0.9140 c3        1 CEO      0.229600
     11 C7         -1.4800   -2.3600    1.3110 c3        1 CEO      0.005500
     12 C8         -1.4830   -3.6030    2.1960 c         1 CEO      0.589900
     13 O9         -2.2340   -3.7270    3.1580 o         1 CEO     -0.497100
     14 N10        -2.1130   -1.1700    1.9630 ny        1 CEO     -0.693800
     15 C11        -3.5690   -1.3200    2.2660 c         1 CEO      0.576100
     16 O12        -4.2440   -2.0290    1.5310 o         1 CEO     -0.462100
     17 C13        -4.0510   -0.5400    3.4700 c3        1 CEO     -0.058100
     18 C14        -4.3700    0.8440    3.0950 cc        1 CEO     -0.213400
     19 C15        -5.3400    1.2230    2.1730 cd        1 CEO     -0.141000
     20 C16        -5.4480    2.6380    2.0840 cd        1 CEO     -0.161000
     21 C17        -4.5650    3.2640    2.9470 cc        1 CEO     -0.191100
     22 S19        -3.6590    2.1800    3.8050 ss        1 CEO      0.171200
     23 HC21        0.7670    1.2340   -0.7620 h1        1 CEO      0.089700
     24 HC22        2.0260    0.0130   -0.3010 h1        1 CEO      0.089700
     25 H3'1        1.1010    2.8780    1.0120 ha        1 CEO      0.139000
     26 H3'2        0.9700    2.3530    2.7990 ha        1 CEO      0.139000
     27 HC6         0.4900   -2.9640    0.5320 h2        1 CEO      0.114700
     28 HC7        -2.0630   -2.6020    0.3710 hx        1 CEO      0.127700
     29 HC8        -0.7590   -4.3790    1.8740 h4        1 CEO      0.048200
     30 H10        -1.9770   -0.3700    1.3250 hn        1 CEO      0.500800
     31 H131       -4.9720   -1.0690    3.8480 hc        1 CEO      0.118700
     32 H132       -3.2740   -0.5670    4.2900 hc        1 CEO      0.118700
     33 H15        -5.9520    0.5310    1.5910 ha        1 CEO      0.158000
     34 H16        -6.1470    3.1480    1.4170 ha        1 CEO      0.160000
     35 H17        -4.4700    4.3450    3.0600 h4        1 CEO      0.180000
     36 H102       -1.6030   -0.9370    2.8770 hn        1 CEO      0.500800
@<TRIPOS>BOND
     1    1    2 1   
     2    1   10 1   
     3    2    3 1   
     4    2   23 1   
     5    2   24 1   
     6    3    4 2   
     7    3    5 1   
     8    4   25 1   
     9    4   26 1   
    10    5    6 1   
    11    5    9 2   
    12    6    7 1   
    13    6    8 1   
    14    9   10 1   
    15   10   11 1   
    16   10   27 1   
    17   11   12 1   
    18   11   14 1   
    19   11   28 1   
    20   12   13 2   
    21   12   29 1   
    22   14   15 1   
    23   14   30 1   
    24   14   36 1   
    25   15   16 2   
    26   15   17 1   
    27   17   18 1   
    28   17   31 1   
    29   17   32 1   
    30   18   19 2   
    31   18   22 1   
    32   19   20 1   
    33   19   33 1   
    34   20   21 2   
    35   20   34 1   
    36   21   22 1   
    37   21   35 1   
@<TRIPOS>SUBSTRUCTURE
     1 CEO         1 TEMP              0 ****  ****    0 ROOT
