@<TRIPOS>MOLECULE
CEO
   35    36     1     0     0
SMALL
bcc


@<TRIPOS>ATOM
      1 S1         -1.0570    1.9160    2.7380 ss        1 CEO     -0.439200
      2 C2         -1.2600    0.2710    3.3760 c3        1 CEO      0.061900
      3 C3         -0.6710   -0.7500    2.4800 ce        1 CEO     -0.225800
      4 C3'        -1.3450   -1.8280    2.0650 c2        1 CEO     -0.176000
      5 C4          0.7410   -0.5160    2.0880 ce        1 CEO      0.436600
      6 C4'         1.5840   -1.8210    1.9500 c         1 CEO      0.854300
      7 O4A         1.4240   -2.4310    0.8580 o         1 CEO     -0.800800
      8 O4B         2.2950   -2.1670    2.9180 o         1 CEO     -0.800800
      9 N5          1.2670    0.6340    1.8370 n2        1 CEO     -0.610900
     10 C6          0.4950    1.8330    1.7820 c3        1 CEO      0.238600
     11 C7          0.1330    2.2890    0.3280 c3        1 CEO      0.005700
     12 C8          1.2700    3.1760   -0.1680 c         1 CEO      0.562900
     13 O9          1.7800    3.1260   -1.2840 o         1 CEO     -0.522100
     14 N10        -0.1890    1.2020   -0.5520 n         1 CEO     -0.537900
     15 C11        -1.3720    1.1130   -1.2440 c         1 CEO      0.673100
     16 O12        -2.2090    2.0420   -1.2620 o         1 CEO     -0.642100
     17 C13        -1.6630   -0.1950   -1.9720 c3        1 CEO     -0.071100
     18 C14        -0.5140   -0.7760   -2.6770 cc        1 CEO     -0.122400
     19 C15         0.4900   -1.5480   -2.1270 cd        1 CEO     -0.136000
     20 C16         1.4330   -1.9720   -3.1190 cd        1 CEO     -0.141000
     21 C17         1.1040   -1.5100   -4.3720 cc        1 CEO     -0.171100
     22 S19        -0.2940   -0.5910   -4.3440 ss        1 CEO     -0.052800
     23 HC21       -0.7760    0.2120    4.3830 h1        1 CEO      0.069200
     24 HC22       -2.3610    0.1260    3.5060 h1        1 CEO      0.069200
     25 H3'1       -0.8690   -2.5810    1.4150 ha        1 CEO      0.126500
     26 H3'2       -2.3860   -2.0160    2.3550 ha        1 CEO      0.126500
     27 HC6         1.1230    2.6420    2.2540 h2        1 CEO      0.079700
     28 HC7        -0.7820    2.9620    0.4060 h1        1 CEO      0.115700
     29 HC8         1.6000    3.9300    0.5850 h4        1 CEO     -0.013800
     30 H10         0.4840    0.4710   -0.6450 hn        1 CEO      0.347500
     31 H131       -2.0400   -0.9200   -1.1980 hc        1 CEO      0.077700
     32 H132       -2.5040    0.0100   -2.6890 hc        1 CEO      0.077700
     33 H15         0.5950   -1.8260   -1.0640 ha        1 CEO      0.222000
     34 H16         2.3030   -2.5850   -2.8710 ha        1 CEO      0.161000
     35 H17         1.6640   -1.6940   -5.2860 h4        1 CEO      0.157000
@<TRIPOS>BOND
     1    1    2 1   
     2    1   10 1   
     3    2    3 1   
     4    2   23 1   
     5    2   24 1   
     6    3    4 2   
     7    3    5 1   
     8    4   25 1   
     9    4   26 1   
    10    5    6 1   
    11    5    9 2   
    12    6    7 1   
    13    6    8 1   
    14    9   10 1   
    15   10   11 1   
    16   10   27 1   
    17   11   12 1   
    18   11   14 1   
    19   11   28 1   
    20   12   13 2   
    21   12   29 1   
    22   14   15 1   
    23   14   30 1   
    24   15   16 2   
    25   15   17 1   
    26   17   18 1   
    27   17   31 1   
    28   17   32 1   
    29   18   19 2   
    30   18   22 1   
    31   19   20 1   
    32   19   33 1   
    33   20   21 2   
    34   20   34 1   
    35   21   22 1   
    36   21   35 1   
@<TRIPOS>SUBSTRUCTURE
     1 CEO         1 TEMP              0 ****  ****    0 ROOT
