@<TRIPOS>MOLECULE
CEO
   35    31     1     0     0
SMALL
bcc


@<TRIPOS>ATOM
      1 S1          0.3450   -3.2960   -0.7200 ss        1 CEO     -0.086000
      2 C2          1.8690   -3.4640   -0.9860 c3        1 CEO     -0.213000
      3 C3          2.6520   -3.5560    0.2640 c2        1 CEO     -0.136000
      4 C3'         3.8450   -4.1820    0.2840 c1        1 CEO     -0.162000
      5 C4          2.0120   -2.8520    1.6850 c2        1 CEO      0.005000
      6 C4'         2.5940   -3.2110    3.0360 c2        1 CEO      0.392000
      7 O4A         2.1970   -4.2430    3.6380 o         1 CEO     -0.540000
      8 O4B         3.4700   -2.4740    3.5590 o         1 CEO     -0.540000
      9 N5          0.5550   -2.1030    1.5930 n1        1 CEO     -0.212000
     10 C6         -0.1380   -2.0760    0.2590 c2        1 CEO     -0.115000
     11 C7          0.0290   -0.6410   -0.4630 c3        1 CEO     -0.048000
     12 C8         -0.4900   -0.7200   -1.8440 c2        1 CEO      0.187000
     13 O9         -1.5400   -1.2930   -2.0680 o         1 CEO     -0.286000
     14 N10        -0.6790    0.3160    0.2430 n         1 CEO     -0.320000
     15 C11        -0.9710    1.5680   -0.3580 c2        1 CEO      0.315000
     16 O12        -1.1740    1.6360   -1.5530 o         1 CEO     -0.395000
     17 C13        -0.9880    2.8240    0.4850 c3        1 CEO     -0.151000
     18 C14        -2.0100    3.7910   -0.0720 c2        1 CEO     -0.376000
     19 C15        -1.7830    5.1910   -0.3760 c1        1 CEO     -0.166000
     20 C16        -3.1640    5.8330   -0.8400 c1        1 CEO     -0.166000
     21 C17        -4.1820    4.8010   -0.8010 c1        1 CEO     -0.488000
     22 S19        -3.5110    3.4860   -0.3220 ss        1 CEO      0.657000
     23 HC21        2.2050   -2.7640   -1.5820 h1        1 CEO      0.120500
     24 HC22        2.0290   -4.2590   -1.5330 h1        1 CEO      0.120500
     25 H3'1        4.3550   -4.2370    1.1170 DU        1 CEO      0.151750
     26 H3'2        4.2020   -4.5800   -0.5350 ha        1 CEO      0.090000
     27 HC6        -1.1060   -2.1090    0.3830 h4        1 CEO      0.120000
     28 HC7         0.9750   -0.3950   -0.4840 h1        1 CEO      0.156000
     29 HC8         0.0190   -0.3280   -2.5810 h4        1 CEO      0.084000
     30 H10        -0.9290    0.1550    1.1050 hn        1 CEO      0.230000
     31 H131       -1.2220    2.5960    1.4060 hc        1 CEO      0.159000
     32 H132       -0.1030    3.2400    0.4670 hc        1 CEO      0.159000
     33 H15        -0.9290    5.6590   -0.3090 DU        1 CEO      0.151750
     34 H16        -3.3010    6.7620   -1.1060 DU        1 CEO      0.151750
     35 H17        -5.1330    4.9250   -0.9890 DU        1 CEO      0.151750
@<TRIPOS>BOND
     1    1    2 1   
     2    1   10 1   
     3    2    3 1   
     4    2   23 1   
     5    2   24 1   
     6    3    4 1   
     7    3    5 1   
     8    4   26 1   
     9    5    6 1   
    10    5    9 1   
    11    6    7 1   
    12    6    8 1   
    13   10   11 1   
    14   10   27 1   
    15   11   12 1   
    16   11   14 1   
    17   11   28 1   
    18   12   13 1   
    19   12   29 1   
    20   14   15 1   
    21   14   30 1   
    22   15   16 1   
    23   15   17 1   
    24   17   18 1   
    25   17   31 1   
    26   17   32 1   
    27   18   19 1   
    28   18   22 1   
    29   19   20 1   
    30   20   21 1   
    31   21   22 1   
@<TRIPOS>SUBSTRUCTURE
     1 CEO         1 TEMP              0 ****  ****    0 ROOT
