@<TRIPOS>MOLECULE
CEO
   36    37     1     0     0
SMALL
bcc


@<TRIPOS>ATOM
      1 S1         -0.1830   -0.8740   -0.4840 ss        1 CEO     -0.414200
      2 C2          1.0000    0.3850   -0.0640 c3        1 CEO      0.051900
      3 C3          0.9060    0.7700    1.3640 ce        1 CEO     -0.272800
      4 C3'         0.9980    2.0480    1.7570 c2        1 CEO     -0.110000
      5 C4          0.8130   -0.3290    2.3460 ce        1 CEO      0.441600
      6 C4'         0.5680    0.1230    3.8210 c         1 CEO      0.856300
      7 O4A        -0.6850    0.0640    4.0720 o         1 CEO     -0.771800
      8 O4B         1.4720    0.5320    4.5570 o         1 CEO     -0.771800
      9 N5          0.6600   -1.5900    2.0860 n2        1 CEO     -0.647900
     10 C6         -0.0030   -2.0280    0.9030 c3        1 CEO      0.229600
     11 C7         -1.4900   -2.3570    1.2930 c3        1 CEO      0.005500
     12 C8         -1.5000   -3.6060    2.1690 c         1 CEO      0.589900
     13 O9         -2.2540   -3.7340    3.1280 o         1 CEO     -0.497100
     14 N10        -2.1190   -1.1700    1.9520 n4        1 CEO     -0.693800
     15 C11        -3.5760   -1.3150    2.2500 c         1 CEO      0.576100
     16 O12        -4.2520   -2.0170    1.5080 o         1 CEO     -0.462100
     17 C13        -4.0590   -0.5410    3.4580 c3        1 CEO     -0.058100
     18 C14        -4.3700    0.8470    3.0920 cc        1 CEO     -0.213400
     19 C15        -5.3340    1.2370    2.1690 cd        1 CEO     -0.141000
     20 C16        -5.4350    2.6540    2.0880 cd        1 CEO     -0.161000
     21 C17        -4.5530    3.2690    2.9600 cc        1 CEO     -0.191100
     22 S19        -3.6550    2.1750    3.8130 ss        1 CEO      0.171200
     23 HC21        0.7780    1.2420   -0.7470 h1        1 CEO      0.089700
     24 HC22        2.0310    0.0130   -0.2920 h1        1 CEO      0.089700
     25 H3'1        1.1140    2.8720    1.0400 ha        1 CEO      0.139000
     26 H3'2        0.9770    2.3340    2.8220 ha        1 CEO      0.139000
     27 HC6         0.4800   -2.9640    0.5150 h2        1 CEO      0.114700
     28 HC7        -2.0710   -2.5900    0.3500 hx        1 CEO      0.127700
     29 HC8        -0.7780   -4.3840    1.8430 h4        1 CEO      0.048200
     30 H10        -1.6110   -0.9460    2.8700 hn        1 CEO      0.500800
     31 H131       -3.2850   -0.5780    4.2800 hc        1 CEO      0.118700
     32 H132       -4.9840   -1.0680    3.8280 hc        1 CEO      0.118700
     33 H15        -5.9480    0.5520    1.5790 ha        1 CEO      0.158000
     34 H16        -6.1290    3.1720    1.4230 ha        1 CEO      0.160000
     35 H17        -4.4520    4.3480    3.0810 h4        1 CEO      0.180000
     36 H102       -1.9780   -0.3650    1.3200 hn        1 CEO      0.500800
@<TRIPOS>BOND
     1    1    2 1   
     2    1   10 1   
     3    2    3 1   
     4    2   23 1   
     5    2   24 1   
     6    3    4 2   
     7    3    5 1   
     8    4   25 1   
     9    4   26 1   
    10    5    6 1   
    11    5    9 2   
    12    6    7 1   
    13    6    8 1   
    14    9   10 1   
    15   10   11 1   
    16   10   27 1   
    17   11   12 1   
    18   11   14 1   
    19   11   28 1   
    20   12   13 2   
    21   12   29 1   
    22   14   15 1   
    23   14   30 1   
    24   14   36 1   
    25   15   16 2   
    26   15   17 1   
    27   17   18 1   
    28   17   31 1   
    29   17   32 1   
    30   18   19 2   
    31   18   22 1   
    32   19   20 1   
    33   19   33 1   
    34   20   21 2   
    35   20   34 1   
    36   21   22 1   
    37   21   35 1   
@<TRIPOS>SUBSTRUCTURE
     1 CEO         1 TEMP              0 ****  ****    0 ROOT
