@<TRIPOS>MOLECULE
CEP
   43    44     1     0     0
SMALL
bcc


@<TRIPOS>ATOM
      1 S1         -4.5080   -0.4670    1.4980 ss        1 CEP     -0.342200
      2 C2         -3.3060    0.4470    2.4230 c3        1 CEP      0.058900
      3 C3         -2.1450    0.8690    1.6170 c2        1 CEP     -0.250400
      4 C3'        -1.5530    2.1890    1.9570 c3        1 CEP     -0.065200
      5 C2'        -1.6920    2.5300    3.4090 c         1 CEP      0.647100
      6 O1'        -1.1280    2.0720    4.4070 o         1 CEP     -0.575000
      7 O2'        -2.5770    3.5630    3.6280 os        1 CEP     -0.453900
      8 C1'        -2.7490    3.9960    4.9720 c3        1 CEP      0.127700
      9 C4         -1.6520    0.1190    0.5920 ce        1 CEP      0.059800
     10 C4'        -0.4480    0.5710   -0.2910 c         1 CEP      0.916800
     11 O4A         0.5510    1.0820    0.2730 o         1 CEP     -0.804300
     12 O4B        -0.5690    0.3610   -1.5270 o         1 CEP     -0.804300
     13 N5         -2.1500   -1.1370    0.2300 nh        1 CEP     -0.732000
     14 C6         -3.5170   -1.5280    0.4520 c3        1 CEP      0.281600
     15 C7         -3.6120   -2.9970    0.9880 c3        1 CEP     -0.010300
     16 C8         -3.1850   -3.9090   -0.1640 c         1 CEP      0.565900
     17 O9         -3.9540   -4.1720   -1.0880 o         1 CEP     -0.541100
     18 N10        -2.8460   -3.2350    2.1830 n         1 CEP     -0.545900
     19 C11        -3.2690   -4.1060    3.1630 c         1 CEP      0.659100
     20 O12        -4.2670   -4.8410    3.0110 o         1 CEP     -0.624100
     21 C13        -2.4190   -4.2120    4.4260 c3        1 CEP     -0.070100
     22 C14        -2.2570   -2.9300    5.1240 cc        1 CEP     -0.159400
     23 C15        -2.9950   -2.5210    6.2210 cd        1 CEP     -0.142000
     24 C16        -2.6120   -1.2180    6.6610 cd        1 CEP     -0.182000
     25 C17        -1.6040   -0.6960    5.8780 cc        1 CEP     -0.149100
     26 S19        -1.1410   -1.7540    4.6810 ss        1 CEP      0.067200
     27 H21        -2.9610   -0.1780    3.2890 h1        1 CEP      0.066700
     28 H22        -3.8620    1.3310    2.8300 h1        1 CEP      0.066700
     29 H3'1       -2.0550    2.9900    1.3480 hc        1 CEP      0.107700
     30 H3'2       -0.4480    2.1950    1.7150 hc        1 CEP      0.107700
     31 H1'1       -1.7760    4.3560    5.3870 h1        1 CEP      0.038367
     32 H1'2       -3.1400    3.1580    5.5980 h1        1 CEP      0.038367
     33 H1'3       -3.4910    4.8280    4.8970 h1        1 CEP      0.038367
     34 H6         -4.0980   -1.5380   -0.5210 h2        1 CEP      0.081700
     35 H7         -4.7060   -3.2030    1.2080 h1        1 CEP      0.106700
     36 H88        -2.1470   -4.3040   -0.1320 h4        1 CEP      0.008200
     37 HN1        -2.1140   -2.5920    2.3920 hn        1 CEP      0.333500
     38 H131       -1.4190   -4.6400    4.1410 hc        1 CEP      0.073700
     39 H132       -2.9270   -4.9550    5.1000 hc        1 CEP      0.073700
     40 H15        -3.7870   -3.1060    6.6930 ha        1 CEP      0.147000
     41 H16        -3.0800   -0.7110    7.5060 ha        1 CEP      0.145000
     42 H17        -1.1630    0.3000    5.9720 h4        1 CEP      0.199000
     43 HN2        -1.8340   -1.3920   -0.6930 hn        1 CEP      0.430800
@<TRIPOS>BOND
     1    1    2 1   
     2    1   14 1   
     3    2    3 1   
     4    2   27 1   
     5    2   28 1   
     6    3    4 1   
     7    3    9 2   
     8    4    5 1   
     9    4   29 1   
    10    4   30 1   
    11    5    6 2   
    12    5    7 1   
    13    7    8 1   
    14    8   31 1   
    15    8   32 1   
    16    8   33 1   
    17    9   10 1   
    18    9   13 1   
    19   10   11 1   
    20   10   12 1   
    21   13   14 1   
    22   13   43 1   
    23   14   15 1   
    24   14   34 1   
    25   15   16 1   
    26   15   18 1   
    27   15   35 1   
    28   16   17 2   
    29   16   36 1   
    30   18   19 1   
    31   18   37 1   
    32   19   20 2   
    33   19   21 1   
    34   21   22 1   
    35   21   38 1   
    36   21   39 1   
    37   22   23 2   
    38   22   26 1   
    39   23   24 1   
    40   23   40 1   
    41   24   25 2   
    42   24   41 1   
    43   25   26 1   
    44   25   42 1   
@<TRIPOS>SUBSTRUCTURE
     1 CEP         1 TEMP              0 ****  ****    0 ROOT
