@<TRIPOS>MOLECULE
CEP
   44    45     1     0     0
SMALL
bcc


@<TRIPOS>ATOM
      1 S1          0.2030   -0.3790   -0.4920 ss        1 CEP     -0.291200
      2 C2          1.9380   -0.3070   -0.1380 c3        1 CEP      0.020900
      3 C3          2.2220   -0.2550    1.3150 c2        1 CEP     -0.091400
      4 C3'         3.3570    0.5970    1.7500 c3        1 CEP     -0.096200
      5 C2'         3.2540    2.0250    1.2980 c         1 CEP      0.633100
      6 O1'         3.1370    2.4830    0.1600 o         1 CEP     -0.546000
      7 O2'         3.3700    2.9070    2.3370 os        1 CEP     -0.429900
      8 C1'         3.3630    4.2960    2.0070 c3        1 CEP      0.121700
      9 C4          1.5040   -1.0420    2.1690 ce        1 CEP     -0.004200
     10 C4'         1.7620   -1.0550    3.6420 c         1 CEP      0.631300
     11 O4A         2.8640   -1.0580    4.1910 o         1 CEP     -0.482000
     12 O4B         0.7180   -1.0760    4.5150 oh        1 CEP     -0.571100
     13 N5          0.5650   -1.9780    1.6860 nh        1 CEP     -0.707000
     14 C6         -0.4200   -1.5470    0.7270 c3        1 CEP      0.267600
     15 C7         -1.7310   -0.9300    1.2930 c3        1 CEP     -0.054300
     16 C8         -2.4000   -1.9300    2.2430 c         1 CEP      0.594900
     17 O9         -1.8440   -2.3340    3.2640 o         1 CEP     -0.541100
     18 N10        -1.5220    0.3470    1.9420 n         1 CEP     -0.549900
     19 C11        -2.5840    0.9300    2.6230 c         1 CEP      0.653100
     20 O12        -3.6010    0.2560    2.8890 o         1 CEP     -0.609100
     21 C13        -2.4470    2.3530    3.1270 c3        1 CEP     -0.069100
     22 C14        -1.7150    3.2630    2.2370 cc        1 CEP     -0.142400
     23 C15        -1.8160    3.3390    0.8600 cd        1 CEP     -0.154000
     24 C16        -0.9980    4.3810    0.3250 cd        1 CEP     -0.145000
     25 C17        -0.3200    5.0530    1.3200 cc        1 CEP     -0.170100
     26 S19        -0.6660    4.4360    2.8290 ss        1 CEP      0.039200
     27 H21         2.4450   -1.2030   -0.5800 h1        1 CEP      0.110200
     28 H22         2.3090    0.6080   -0.6730 h1        1 CEP      0.110200
     29 H3'1        4.3030    0.1810    1.2970 hc        1 CEP      0.109700
     30 H3'2        3.4870    0.5810    2.8690 hc        1 CEP      0.109700
     31 H1'1        3.5460    4.8000    2.9880 h1        1 CEP      0.052367
     32 H1'2        4.1730    4.5210    1.2730 h1        1 CEP      0.052367
     33 H1'3        2.3690    4.5770    1.5800 h1        1 CEP      0.052367
     34 H6         -0.7290   -2.4770    0.1650 h2        1 CEP      0.099700
     35 H7         -2.4270   -0.7940    0.4060 h1        1 CEP      0.071700
     36 H88        -3.4190   -2.2500    1.9440 h4        1 CEP      0.037200
     37 HN1        -0.1390   -1.0730    4.0590 ho        1 CEP      0.452000
     38 H131       -1.9500    2.2960    4.1360 hc        1 CEP      0.091700
     39 H132       -3.4930    2.7410    3.2890 hc        1 CEP      0.091700
     40 H15        -2.4420    2.6950    0.2380 ha        1 CEP      0.157000
     41 H16        -0.9310    4.5990   -0.7430 ha        1 CEP      0.161000
     42 H17         0.3620    5.8880    1.1640 h4        1 CEP      0.174000
     43 HN2         0.1590   -2.5380    2.4180 hn        1 CEP      0.423800
     44 H102       -0.8530    0.9450    1.5000 hn        1 CEP      0.336500
@<TRIPOS>BOND
     1    1    2 1   
     2    1   14 1   
     3    2    3 1   
     4    2   27 1   
     5    2   28 1   
     6    3    4 1   
     7    3    9 2   
     8    4    5 1   
     9    4   29 1   
    10    4   30 1   
    11    5    6 2   
    12    5    7 1   
    13    7    8 1   
    14    8   31 1   
    15    8   32 1   
    16    8   33 1   
    17    9   10 1   
    18    9   13 1   
    19   10   11 2   
    20   10   12 1   
    21   12   37 1   
    22   13   14 1   
    23   13   43 1   
    24   14   15 1   
    25   14   34 1   
    26   15   16 1   
    27   15   18 1   
    28   15   35 1   
    29   16   17 2   
    30   16   36 1   
    31   18   19 1   
    32   18   44 1   
    33   19   20 2   
    34   19   21 1   
    35   21   22 1   
    36   21   38 1   
    37   21   39 1   
    38   22   23 2   
    39   22   26 1   
    40   23   24 1   
    41   23   40 1   
    42   24   25 2   
    43   24   41 1   
    44   25   26 1   
    45   25   42 1   
@<TRIPOS>SUBSTRUCTURE
     1 CEP         1 TEMP              0 ****  ****    0 ROOT
