@<TRIPOS>MOLECULE
CEP
   44    45     1     0     0
SMALL
bcc


@<TRIPOS>ATOM
      1 S1          0.2380   -0.4020   -0.4760 ss        1 CEP     -0.291200
      2 C2          1.9690   -0.3010   -0.1110 c3        1 CEP      0.020900
      3 C3          2.2430   -0.2310    1.3430 c2        1 CEP     -0.091400
      4 C3'         3.3630    0.6420    1.7770 c3        1 CEP     -0.096200
      5 C2'         3.2420    2.0630    1.3120 c         1 CEP      0.633100
      6 O1'         3.1240    2.5100    0.1680 o         1 CEP     -0.546000
      7 O2'         3.3380    2.9570    2.3420 os        1 CEP     -0.429900
      8 C1'         3.3120    4.3430    2.0000 c3        1 CEP      0.121700
      9 C4          1.5310   -1.0210    2.1990 ce        1 CEP     -0.004200
     10 C4'         1.7800   -1.0160    3.6740 c         1 CEP      0.631300
     11 O4A         2.8780   -0.9970    4.2300 o         1 CEP     -0.482000
     12 O4B         0.7310   -1.0440    4.5400 oh        1 CEP     -0.571100
     13 N5          0.6090   -1.9750    1.7190 nu        1 CEP     -0.707000
     14 C6         -0.3750   -1.5670    0.7500 c3        1 CEP      0.267600
     15 C7         -1.7000   -0.9640    1.3010 c3        1 CEP     -0.054300
     16 C8         -2.3590   -1.9650    2.2570 c         1 CEP      0.594900
     17 O9         -1.8050   -2.3520    3.2860 o         1 CEP     -0.541100
     18 N10        -1.5130    0.3210    1.9400 ns        1 CEP     -0.549900
     19 C11        -2.5880    0.8950    2.6070 c         1 CEP      0.653100
     20 O12        -3.5980    0.2090    2.8730 o         1 CEP     -0.609100
     21 C13        -2.4760    2.3250    3.0990 c3        1 CEP     -0.069100
     22 C14        -1.7520    3.2370    2.2050 cc        1 CEP     -0.142400
     23 C15        -1.8450    3.2980    0.8270 cd        1 CEP     -0.154000
     24 C16        -1.0390    4.3470    0.2870 cd        1 CEP     -0.145000
     25 C17        -0.3770    5.0380    1.2790 cc        1 CEP     -0.170100
     26 S19        -0.7240    4.4310    2.7920 ss        1 CEP      0.039200
     27 H21         2.3310    0.6140   -0.6530 h1        1 CEP      0.110200
     28 H22         2.4930   -1.1930   -0.5410 h1        1 CEP      0.110200
     29 H3'1        4.3170    0.2350    1.3340 hc        1 CEP      0.109700
     30 H3'2        3.4860    0.6380    2.8970 hc        1 CEP      0.109700
     31 H1'1        4.1240    4.5740    1.2690 h1        1 CEP      0.052367
     32 H1'2        3.4810    4.8580    2.9780 h1        1 CEP      0.052367
     33 H1'3        2.3170    4.6040    1.5640 h1        1 CEP      0.052367
     34 H6         -0.6670   -2.5070    0.1950 h2        1 CEP      0.099700
     35 H7         -2.3910   -0.8470    0.4090 h1        1 CEP      0.071700
     36 H88        -3.3710   -2.3030    1.9540 h4        1 CEP      0.037200
     37 HN1        -0.8510    0.9250    1.4960 hn        1 CEP      0.336500
     38 H131       -3.5290    2.6980    3.2500 hc        1 CEP      0.091700
     39 H132       -1.9850    2.2850    4.1120 hc        1 CEP      0.091700
     40 H15        -2.4580    2.6390    0.2070 ha        1 CEP      0.157000
     41 H16        -0.9680    4.5560   -0.7830 ha        1 CEP      0.161000
     42 H17         0.2930    5.8820    1.1200 h4        1 CEP      0.174000
     43 HN2         0.2070   -2.5340    2.4540 hn        1 CEP      0.423800
     44 H102       -0.1230   -1.0580    4.0790 ho        1 CEP      0.452000
@<TRIPOS>BOND
     1    1    2 1   
     2    1   14 1   
     3    2    3 1   
     4    2   27 1   
     5    2   28 1   
     6    3    4 1   
     7    3    9 2   
     8    4    5 1   
     9    4   29 1   
    10    4   30 1   
    11    5    6 2   
    12    5    7 1   
    13    7    8 1   
    14    8   31 1   
    15    8   32 1   
    16    8   33 1   
    17    9   10 1   
    18    9   13 1   
    19   10   11 2   
    20   10   12 1   
    21   12   44 1   
    22   13   14 1   
    23   13   43 1   
    24   14   15 1   
    25   14   34 1   
    26   15   16 1   
    27   15   18 1   
    28   15   35 1   
    29   16   17 2   
    30   16   36 1   
    31   18   19 1   
    32   18   37 1   
    33   19   20 2   
    34   19   21 1   
    35   21   22 1   
    36   21   38 1   
    37   21   39 1   
    38   22   23 2   
    39   22   26 1   
    40   23   24 1   
    41   23   40 1   
    42   24   25 2   
    43   24   41 1   
    44   25   26 1   
    45   25   42 1   
@<TRIPOS>SUBSTRUCTURE
     1 CEP         1 TEMP              0 ****  ****    0 ROOT
