@<TRIPOS>MOLECULE
CEP
   43    40     1     0     0
SMALL
bcc


@<TRIPOS>ATOM
      1 S1          1.2200    0.0720   -0.3970 ss        1 CEP      0.005000
      2 C2          2.9140    0.6240    0.0540 c3        1 CEP     -0.191000
      3 C3          3.1290    0.2900    0.3520 c2        1 CEP     -0.190000
      4 C3'         4.6440    0.2740    0.5100 c3        1 CEP     -0.086000
      5 C2'         5.1060    1.5970    1.0820 c2        1 CEP      0.308000
      6 O1'         4.5200    2.6220    0.7930 o         1 CEP     -0.376000
      7 O2'         6.2550    1.6490    1.8900 os        1 CEP     -0.288000
      8 C1'         6.6720    2.9590    2.2060 c3        1 CEP     -0.062000
      9 C4          1.8740    0.0110    2.0590 c1        1 CEP     -0.045000
     10 C4'         2.4250   -0.6520    3.3030 c1        1 CEP      0.362000
     11 O4A         2.5800    0.0190    4.3580 o         1 CEP     -0.546500
     12 O4B         2.7840   -1.8570    3.2660 o         1 CEP     -0.546500
     13 N5          0.3000   -0.2120    1.6360 n3        1 CEP     -0.264000
     14 C6          0.2490   -0.6070    1.0240 c3        1 CEP     -0.087000
     15 C7         -1.6010   -0.6510    0.5040 c3        1 CEP     -0.040000
     16 C8         -2.2280   -1.7290    1.1090 c2        1 CEP      0.172000
     17 O9         -2.0520   -2.8540    0.6800 o         1 CEP     -0.309000
     18 N10        -1.6870   -0.7640   -0.7780 n         1 CEP     -0.344000
     19 C11        -2.8450   -0.2870   -1.4590 c2        1 CEP      0.314000
     20 O12        -3.4340    0.6900   -1.0420 o         1 CEP     -0.382000
     21 C13        -3.3790   -1.0370   -2.6660 c3        1 CEP     -0.115000
     22 C14        -4.8860   -0.8570   -2.7490 c2        1 CEP     -0.378000
     23 C15        -5.6070   -0.1780   -3.8110 c1        1 CEP     -0.148000
     24 C16        -7.1680   -0.3250   -3.5300 c1        1 CEP     -0.150000
     25 C17        -7.3410   -1.0870   -2.3070 c1        1 CEP     -0.438000
     26 S19        -5.9320   -1.4510   -1.7670 ss        1 CEP      0.521000
     27 H21         3.4100    0.8810   -0.7580 h1        1 CEP      0.105500
     28 H22         2.8950    1.4830    0.5360 h1        1 CEP      0.105500
     29 H3'1        4.9010   -0.4500    1.1140 hc        1 CEP      0.148000
     30 H3'2        5.0620    0.1330   -0.3650 hc        1 CEP      0.148000
     31 H1'1        6.0260    3.3680    2.8210 h1        1 CEP      0.077000
     32 H1'2        6.7250    3.4930    1.3850 h1        1 CEP      0.077000
     33 H1'3        7.5550    2.9270    2.6340 h1        1 CEP      0.077000
     34 H6          0.5510   -1.5220    1.2080 h2        1 CEP      0.093000
     35 H7         -2.0370    0.1790    0.7870 h1        1 CEP      0.163000
     36 H88        -2.8060   -1.5870    1.8850 h4        1 CEP      0.118000
     37 HN1        -1.0300   -1.1970   -1.2440 hn        1 CEP      0.235000
     38 H131       -3.1700   -1.9880   -2.5770 hc        1 CEP      0.119500
     39 H132       -2.9640   -0.6860   -3.4780 hc        1 CEP      0.119500
     40 H15        -5.2040    0.2840   -4.5700 DU        1 CEP      0.168000
     41 H16        -7.8850    0.0360   -4.0850 DU        1 CEP      0.168000
     42 H17        -8.1950   -1.3280   -1.8960 DU        1 CEP      0.168000
     43 HN2        -0.3440   -0.2860    2.2860 hn        1 CEP      0.211000
@<TRIPOS>BOND
     1    1    2 1   
     2    1   14 1   
     3    2    3 1   
     4    2   27 1   
     5    2   28 1   
     6    3    4 1   
     7    3    9 1   
     8    4    5 1   
     9    4   29 1   
    10    4   30 1   
    11    5    6 1   
    12    5    7 1   
    13    7    8 1   
    14    8   31 1   
    15    8   32 1   
    16    8   33 1   
    17    9   13 1   
    18   10   11 1   
    19   10   12 1   
    20   13   14 1   
    21   13   43 1   
    22   14   15 1   
    23   14   34 1   
    24   15   16 1   
    25   15   18 1   
    26   15   35 1   
    27   16   17 1   
    28   16   36 1   
    29   18   19 1   
    30   18   37 1   
    31   19   20 1   
    32   19   21 1   
    33   21   22 1   
    34   21   38 1   
    35   21   39 1   
    36   22   23 1   
    37   22   26 1   
    38   23   24 1   
    39   24   25 1   
    40   25   26 1   
@<TRIPOS>SUBSTRUCTURE
     1 CEP         1 TEMP              0 ****  ****    0 ROOT
