@<TRIPOS>MOLECULE
CEP
   44    45     1     0     0
SMALL
bcc


@<TRIPOS>ATOM
      1 S1          0.1630   -0.3570   -0.5010 ss        1 CEP     -0.291200
      2 C2          1.9030   -0.2890   -0.1760 c3        1 CEP      0.020900
      3 C3          2.2120   -0.2510    1.2720 c2        1 CEP     -0.091400
      4 C3'         3.3550    0.5980    1.6960 c3        1 CEP     -0.096200
      5 C2'         3.2450    2.0290    1.2590 c         1 CEP      0.633100
      6 O1'         3.1090    2.4980    0.1260 o         1 CEP     -0.546000
      7 O2'         3.3800    2.9010    2.3030 os        1 CEP     -0.429900
      8 C1'         3.3680    4.2940    1.9860 c3        1 CEP      0.121700
      9 C4          1.5080   -1.0460    2.1300 ce        1 CEP     -0.004200
     10 C4'         1.7920   -1.0720    3.5980 c         1 CEP      0.631300
     11 O4A         2.9030   -1.0800    4.1290 o         1 CEP     -0.482000
     12 O4B         0.7630   -1.1020    4.4890 oh        1 CEP     -0.571100
     13 N5          0.5610   -1.9780    1.6550 nh        1 CEP     -0.707000
     14 C6         -0.4390   -1.5370    0.7160 c3        1 CEP      0.267600
     15 C7         -1.7410   -0.9260    1.3100 c3        1 CEP     -0.054300
     16 C8         -2.3930   -1.9350    2.2630 c         1 CEP      0.594900
     17 O9         -1.8200   -2.3500    3.2700 o         1 CEP     -0.541100
     18 N10        -1.5200    0.3440    1.9690 n         1 CEP     -0.549900
     19 C11        -2.5710    0.9200    2.6730 c         1 CEP      0.653100
     20 O12        -3.5840    0.2440    2.9490 o         1 CEP     -0.609100
     21 C13        -2.4260    2.3380    3.1880 c3        1 CEP     -0.069100
     22 C14        -1.7080    3.2570    2.2960 cc        1 CEP     -0.142400
     23 C15        -1.8310    3.3470    0.9210 cd        1 CEP     -0.154000
     24 C16        -1.0210    4.3940    0.3840 cd        1 CEP     -0.145000
     25 C17        -0.3270    5.0550    1.3740 cc        1 CEP     -0.170100
     26 S19        -0.6480    4.4240    2.8820 ss        1 CEP      0.039200
     27 H21         2.2660    0.6310   -0.7090 h1        1 CEP      0.110200
     28 H22         2.4030   -1.1810   -0.6350 h1        1 CEP      0.110200
     29 H3'1        3.5040    0.5710    2.8120 hc        1 CEP      0.109700
     30 H3'2        4.2930    0.1840    1.2240 hc        1 CEP      0.109700
     31 H1'1        3.5680    4.7890    2.9680 h1        1 CEP      0.052367
     32 H1'2        4.1670    4.5250    1.2400 h1        1 CEP      0.052367
     33 H1'3        2.3680    4.5790    1.5770 h1        1 CEP      0.052367
     34 H6         -0.7570   -2.4620    0.1510 h2        1 CEP      0.099700
     35 H7         -2.4510   -0.7820    0.4370 h1        1 CEP      0.071700
     36 H88        -3.4170   -2.2530    1.9770 h4        1 CEP      0.037200
     37 HN1        -0.1020   -1.0950    4.0470 ho        1 CEP      0.452000
     38 H131       -1.9130    2.2720    4.1890 hc        1 CEP      0.091700
     39 H132       -3.4690    2.7250    3.3710 hc        1 CEP      0.091700
     40 H15        -2.4680    2.7100    0.3040 ha        1 CEP      0.157000
     41 H16        -0.9710    4.6220   -0.6830 ha        1 CEP      0.161000
     42 H17         0.3530    5.8920    1.2160 h4        1 CEP      0.174000
     43 HN2         0.1690   -2.5440    2.3890 hn        1 CEP      0.423800
     44 H102       -0.8590    0.9470    1.5210 hn        1 CEP      0.336500
@<TRIPOS>BOND
     1    1    2 1   
     2    1   14 1   
     3    2    3 1   
     4    2   27 1   
     5    2   28 1   
     6    3    4 1   
     7    3    9 2   
     8    4    5 1   
     9    4   29 1   
    10    4   30 1   
    11    5    6 2   
    12    5    7 1   
    13    7    8 1   
    14    8   31 1   
    15    8   32 1   
    16    8   33 1   
    17    9   10 1   
    18    9   13 1   
    19   10   11 2   
    20   10   12 1   
    21   12   37 1   
    22   13   14 1   
    23   13   43 1   
    24   14   15 1   
    25   14   34 1   
    26   15   16 1   
    27   15   18 1   
    28   15   35 1   
    29   16   17 2   
    30   16   36 1   
    31   18   19 1   
    32   18   44 1   
    33   19   20 2   
    34   19   21 1   
    35   21   22 1   
    36   21   38 1   
    37   21   39 1   
    38   22   23 2   
    39   22   26 1   
    40   23   24 1   
    41   23   40 1   
    42   24   25 2   
    43   24   41 1   
    44   25   26 1   
    45   25   42 1   
@<TRIPOS>SUBSTRUCTURE
     1 CEP         1 TEMP              0 ****  ****    0 ROOT
