@<TRIPOS>MOLECULE
CEQ
   20    19     1     0     0
SMALL
bcc


@<TRIPOS>ATOM
      1 SI1        -0.0140    0.0030   -0.0010 Si        1 CEQ      0.617000
      2 C2          1.8160    0.0480   -0.0280 c3        1 CEQ     -0.294433
      3 C3         -0.5860   -0.0180    1.7370 c3        1 CEQ     -0.294433
      4 C4         -0.5870   -1.5130   -0.8530 c3        1 CEQ     -0.294433
      5 C5         -0.6510    1.4960   -0.8630 c3        1 CEQ     -0.272400
      6 C6         -2.1480    1.5060   -0.8690 c3        1 CEQ     -0.076100
      7 H21         2.2090    0.0580   -1.0700 hc        1 CEQ      0.046922
      8 H22         2.2100    0.9550    0.4850 hc        1 CEQ      0.046922
      9 H23         2.2550   -0.8390    0.4840 hc        1 CEQ      0.046922
     10 H31        -1.6980   -0.0080    1.8050 hc        1 CEQ      0.046922
     11 H32        -0.2120    0.8670    2.3010 hc        1 CEQ      0.046922
     12 H33        -0.2290   -0.9280    2.2720 hc        1 CEQ      0.046922
     13 H41        -1.6990   -1.5660   -0.8940 hc        1 CEQ      0.046922
     14 H42        -0.2130   -1.5580   -1.9010 hc        1 CEQ      0.046922
     15 H43        -0.2290   -2.4310   -0.3330 hc        1 CEQ      0.046922
     16 H51        -0.2730    1.5290   -1.9150 hc        1 CEQ      0.051700
     17 H52        -0.2730    2.4240   -0.3650 hc        1 CEQ      0.051700
     18 H61        -2.5520    1.5120    0.1750 hc        1 CEQ      0.029367
     19 H62        -2.5420    2.4130   -1.3920 hc        1 CEQ      0.029367
     20 H63        -2.5520    0.6060   -1.3960 hc        1 CEQ      0.029367
@<TRIPOS>BOND
     1    1    2 1   
     2    1    3 1   
     3    1    4 1   
     4    1    5 1   
     5    2    7 1   
     6    2    8 1   
     7    2    9 1   
     8    3   10 1   
     9    3   11 1   
    10    3   12 1   
    11    4   13 1   
    12    4   14 1   
    13    4   15 1   
    14    5    6 1   
    15    5   16 1   
    16    5   17 1   
    17    6   18 1   
    18    6   19 1   
    19    6   20 1   
@<TRIPOS>SUBSTRUCTURE
     1 CEQ         1 TEMP              0 ****  ****    0 ROOT
