@<TRIPOS>MOLECULE
CEQ
   20    19     1     0     0
SMALL
bcc


@<TRIPOS>ATOM
      1 SI1         0.3960   -0.2300    0.1290 Si        1 CEQ      0.617000
      2 C2          2.2600   -0.2300    0.1290 c3        1 CEQ     -0.294433
      3 C3         -0.2260   -0.2300    1.8870 c3        1 CEQ     -0.294433
      4 C4         -0.2260   -1.7520   -0.7500 c3        1 CEQ     -0.294433
      5 C5         -0.2260    1.2920   -0.7500 c3        1 CEQ     -0.272400
      6 C6         -1.7380    1.3000   -0.7370 c3        1 CEQ     -0.076100
      7 H21         2.5860   -0.2300   -0.7910 hc        1 CEQ      0.046922
      8 H22         2.5860    0.5670    0.5890 hc        1 CEQ      0.046922
      9 H23         2.5860   -1.0270    0.5900 hc        1 CEQ      0.046922
     10 H31        -1.1780   -0.4450    1.8960 hc        1 CEQ      0.046922
     11 H32         0.2630   -0.8970    2.4050 hc        1 CEQ      0.046922
     12 H33        -0.0880    0.6530    2.2810 hc        1 CEQ      0.046922
     13 H41        -1.1760   -1.8720   -0.5610 hc        1 CEQ      0.046922
     14 H42        -0.0950   -1.6480   -1.7110 hc        1 CEQ      0.046922
     15 H43         0.2690   -2.5330   -0.4370 hc        1 CEQ      0.046922
     16 H51         0.1070    2.0890   -0.2950 hc        1 CEQ      0.051700
     17 H52         0.0920    1.2880   -1.6720 hc        1 CEQ      0.051700
     18 H61        -2.0640    2.0820   -1.2220 hc        1 CEQ      0.029367
     19 H62        -2.0710    0.4890   -1.1670 hc        1 CEQ      0.029367
     20 H63        -2.0560    1.3330    0.1850 hc        1 CEQ      0.029367
@<TRIPOS>BOND
     1    1    2 1   
     2    1    3 1   
     3    1    4 1   
     4    1    5 1   
     5    2    7 1   
     6    2    8 1   
     7    2    9 1   
     8    3   10 1   
     9    3   11 1   
    10    3   12 1   
    11    4   13 1   
    12    4   14 1   
    13    4   15 1   
    14    5    6 1   
    15    5   16 1   
    16    5   17 1   
    17    6   18 1   
    18    6   19 1   
    19    6   20 1   
@<TRIPOS>SUBSTRUCTURE
     1 CEQ         1 TEMP              0 ****  ****    0 ROOT
