@<TRIPOS>MOLECULE
CEQ
   20    19     1     0     0
SMALL
bcc


@<TRIPOS>ATOM
      1 Si1        -0.0110    0.0060   -0.0050 Si        1 CEQ      0.617000
      2 C2          1.8180    0.0690   -0.0440 c3        1 CEQ     -0.294433
      3 C3         -0.5700   -0.0190    1.7380 c3        1 CEQ     -0.294433
      4 C4         -0.5750   -1.5150   -0.8520 c3        1 CEQ     -0.294433
      5 C5         -0.6690    1.4930   -0.8620 c3        1 CEQ     -0.272400
      6 C6         -2.1660    1.4900   -0.8530 c3        1 CEQ     -0.076100
      7 H21         2.2050    0.0770   -1.0890 hc        1 CEQ      0.046922
      8 H22         2.2070    0.9830    0.4610 hc        1 CEQ      0.046922
      9 H23         2.2690   -0.8110    0.4700 hc        1 CEQ      0.046922
     10 H31        -1.6820   -0.0300    1.8130 hc        1 CEQ      0.046922
     11 H32        -0.2090    0.8740    2.2970 hc        1 CEQ      0.046922
     12 H33        -0.1930   -0.9210    2.2720 hc        1 CEQ      0.046922
     13 H41        -1.6870   -1.5790   -0.8860 hc        1 CEQ      0.046922
     14 H42        -0.2080   -1.5570   -1.9030 hc        1 CEQ      0.046922
     15 H43        -0.2050   -2.4290   -0.3350 hc        1 CEQ      0.046922
     16 H51        -0.3010    1.5280   -1.9180 hc        1 CEQ      0.051700
     17 H52        -0.2930    2.4250   -0.3690 hc        1 CEQ      0.051700
     18 H61        -2.5590    1.4930    0.1940 hc        1 CEQ      0.029367
     19 H62        -2.5720    2.3930   -1.3730 hc        1 CEQ      0.029367
     20 H63        -2.5670    0.5860   -1.3760 hc        1 CEQ      0.029367
@<TRIPOS>BOND
     1    1    2 1   
     2    1    3 1   
     3    1    4 1   
     4    1    5 1   
     5    2    7 1   
     6    2    8 1   
     7    2    9 1   
     8    3   10 1   
     9    3   11 1   
    10    3   12 1   
    11    4   13 1   
    12    4   14 1   
    13    4   15 1   
    14    5    6 1   
    15    5   16 1   
    16    5   17 1   
    17    6   18 1   
    18    6   19 1   
    19    6   20 1   
@<TRIPOS>SUBSTRUCTURE
     1 CEQ         1 TEMP              0 ****  ****    0 ROOT
