@<TRIPOS>MOLECULE
CEQ
   20    19     1     0     0
SMALL
bcc


@<TRIPOS>ATOM
      1 SI1         0.0000   -0.0110   -0.3800 Si        1 CEQ      0.617000
      2 C2         -0.0120    1.1400   -1.8030 c3        1 CEQ     -0.294433
      3 C3          1.5070   -1.0470   -0.4620 c3        1 CEQ     -0.294433
      4 C4         -1.4840   -1.0790   -0.4620 c3        1 CEQ     -0.294433
      5 C5         -0.0100    0.9740    1.1730 c3        1 CEQ     -0.272400
      6 C6         -0.0010    0.0750    2.3700 c3        1 CEQ     -0.076100
      7 H21        -0.0060    0.5920   -2.7730 hc        1 CEQ      0.046922
      8 H22        -0.9170    1.7900   -1.7950 hc        1 CEQ      0.046922
      9 H23         0.8780    1.8100   -1.7950 hc        1 CEQ      0.046922
     10 H31         2.4310   -0.4250   -0.4660 hc        1 CEQ      0.046922
     11 H32         1.5770   -1.7410    0.4070 hc        1 CEQ      0.046922
     12 H33         1.5220   -1.6690   -1.3860 hc        1 CEQ      0.046922
     13 H41        -2.4210   -0.4770   -0.4660 hc        1 CEQ      0.046922
     14 H42        -1.4850   -1.7020   -1.3860 hc        1 CEQ      0.046922
     15 H43        -1.5390   -1.7740    0.4070 hc        1 CEQ      0.046922
     16 H51        -0.9120    1.6350    1.2080 hc        1 CEQ      0.051700
     17 H52         0.8770    1.6540    1.2080 hc        1 CEQ      0.051700
     18 H61        -0.0070    0.6690    3.3180 hc        1 CEQ      0.029367
     19 H62        -0.9000   -0.5900    2.3780 hc        1 CEQ      0.029367
     20 H63         0.9130   -0.5710    2.3780 hc        1 CEQ      0.029367
@<TRIPOS>BOND
     1    1    2 1   
     2    1    3 1   
     3    1    4 1   
     4    1    5 1   
     5    2    7 1   
     6    2    8 1   
     7    2    9 1   
     8    3   10 1   
     9    3   11 1   
    10    3   12 1   
    11    4   13 1   
    12    4   14 1   
    13    4   15 1   
    14    5    6 1   
    15    5   16 1   
    16    5   17 1   
    17    6   18 1   
    18    6   19 1   
    19    6   20 1   
@<TRIPOS>SUBSTRUCTURE
     1 CEQ         1 TEMP              0 ****  ****    0 ROOT
