@<TRIPOS>MOLECULE
CER
   36    35     1     0     0
SMALL
bcc


@<TRIPOS>ATOM
      1 C1         -1.3770   -0.8400   -1.1010 c         1 CER      0.557100
      2 N1         -0.4840    0.2690   -1.6150 nz        1 CER     -0.763400
      3 O1         -1.2550    0.3280    3.3540 o         1 CER     -0.488100
      4 C2         -1.3820   -1.0460    0.3830 c3        1 CER     -0.176400
      5 O2         -1.9990   -1.4430   -1.9570 o         1 CER     -0.388100
      6 C3         -2.0300    0.1310    1.1190 c3        1 CER      0.027100
      7 O3         -1.2790    1.3020    0.8520 oh        1 CER     -0.652800
      8 C4         -2.1000   -0.1810    2.6180 c         1 CER      0.549100
      9 C5         -3.2340   -1.0470    3.0520 c3        1 CER     -0.168400
     10 C6         -2.9470   -1.7540    4.3620 c3        1 CER     -0.037200
     11 C7         -4.1050   -2.5640    4.8070 c2        1 CER     -0.218200
     12 C8         -4.1990   -3.1120    6.0230 c2        1 CER     -0.119200
     13 C9         -3.1670   -2.9660    7.0800 c3        1 CER     -0.024000
     14 C10        -3.4040   -3.8670    8.2340 c2        1 CER     -0.188200
     15 C11        -2.4490   -4.6210    8.7870 c2        1 CER     -0.150200
     16 C12        -2.6680   -5.4980    9.9530 c3        1 CER     -0.069900
     17 HN11       -0.7150    1.1470   -1.1210 hn        1 CER      0.477133
     18 HN12        0.4960    0.0410   -1.4270 hn        1 CER      0.477133
     19 H21        -0.3310   -1.1990    0.7540 hc        1 CER      0.126200
     20 H22        -1.9690   -1.9860    0.5900 hc        1 CER      0.126200
     21 H31        -3.0680    0.3230    0.7240 h1        1 CER      0.105700
     22 HO3        -0.8280    1.5910    1.6640 ho        1 CER      0.469000
     23 H51        -4.1380   -0.3860    3.1730 hc        1 CER      0.081700
     24 H52        -3.4720   -1.7960    2.2520 hc        1 CER      0.081700
     25 H61        -2.0470   -2.4180    4.2420 hc        1 CER      0.063700
     26 H62        -2.6820   -0.9910    5.1460 hc        1 CER      0.063700
     27 H71        -4.9110   -2.7070    4.0700 ha        1 CER      0.123000
     28 H81        -5.0850   -3.7120    6.2930 ha        1 CER      0.138000
     29 H91        -2.1470   -3.1440    6.6380 hc        1 CER      0.056700
     30 H92        -3.1770   -1.8990    7.4480 hc        1 CER      0.056700
     31 H101       -4.4330   -3.8650    8.6300 ha        1 CER      0.128000
     32 H111       -1.4210   -4.6220    8.3870 ha        1 CER      0.117000
     33 H121       -2.0000   -5.1870   10.7960 hc        1 CER      0.047033
     34 H122       -2.4210   -6.5570    9.6870 hc        1 CER      0.047033
     35 H123       -3.7260   -5.4630   10.3110 hc        1 CER      0.047033
     36 H13        -0.6140    0.3970   -2.6260 hn        1 CER      0.477133
@<TRIPOS>BOND
     1    1    2 1   
     2    1    4 1   
     3    1    5 2   
     4    2   17 1   
     5    2   18 1   
     6    2   36 1   
     7    3    8 2   
     8    4    6 1   
     9    4   19 1   
    10    4   20 1   
    11    6    7 1   
    12    6    8 1   
    13    6   21 1   
    14    7   22 1   
    15    8    9 1   
    16    9   10 1   
    17    9   23 1   
    18    9   24 1   
    19   10   11 1   
    20   10   25 1   
    21   10   26 1   
    22   11   12 2   
    23   11   27 1   
    24   12   13 1   
    25   12   28 1   
    26   13   14 1   
    27   13   29 1   
    28   13   30 1   
    29   14   15 2   
    30   14   31 1   
    31   15   16 1   
    32   15   32 1   
    33   16   33 1   
    34   16   34 1   
    35   16   35 1   
@<TRIPOS>SUBSTRUCTURE
     1 CER         1 TEMP              0 ****  ****    0 ROOT
