@<TRIPOS>MOLECULE
CER
   35    34     1     0     0
SMALL
bcc


@<TRIPOS>ATOM
      1 C1          1.9670    0.0370   -3.8620 c         1 CER      0.658100
      2 N1          1.5640   -0.2640   -5.1360 n         1 CER     -0.667000
      3 O1         -1.9710    1.3920   -1.7610 o         1 CER     -0.523100
      4 C2          0.9800    0.7180   -2.9330 c3        1 CER     -0.184400
      5 O2          3.1310   -0.2110   -3.4840 o         1 CER     -0.618100
      6 C3         -0.3730    0.0140   -2.8880 c3        1 CER      0.041100
      7 O3         -1.1150    0.2510   -4.0720 oh        1 CER     -0.600800
      8 C4         -1.1490    0.4760   -1.6610 c         1 CER      0.541100
      9 C5         -0.8560   -0.2650   -0.3950 c3        1 CER     -0.174400
     10 C6         -1.4240    0.4280    0.8280 c3        1 CER     -0.042200
     11 C7         -1.1950   -0.3730    2.0530 c2        1 CER     -0.183200
     12 C8         -0.7000    0.1360    3.1840 c2        1 CER     -0.153200
     13 C9         -0.5210   -0.6550    4.4280 c3        1 CER     -0.019000
     14 C10         0.7890   -0.3840    5.0720 c2        1 CER     -0.173200
     15 C11         0.9360   -0.1700    6.3820 c2        1 CER     -0.168200
     16 C12         2.2370    0.0730    7.0340 c3        1 CER     -0.064900
     17 HN11        2.1870   -0.7290   -5.7470 hn        1 CER      0.321000
     18 HN12        0.6190   -0.1470   -5.4060 hn        1 CER      0.321000
     19 H21         0.8440    1.7800   -3.2710 hc        1 CER      0.085200
     20 H22         1.4350    0.7320   -1.9080 hc        1 CER      0.085200
     21 H31        -0.2390   -1.1050   -2.8580 h1        1 CER      0.097700
     22 HO3        -1.5030    1.1360   -4.0060 ho        1 CER      0.426000
     23 H51         0.2550   -0.3840   -0.2880 hc        1 CER      0.076200
     24 H52        -1.2960   -1.2950   -0.4910 hc        1 CER      0.076200
     25 H61        -2.5300    0.5790    0.6850 hc        1 CER      0.061200
     26 H62        -0.9670    1.4500    0.9210 hc        1 CER      0.061200
     27 H71        -1.4810   -1.4360    1.9810 ha        1 CER      0.120000
     28 H81        -0.4070    1.1970    3.2560 ha        1 CER      0.127000
     29 H91        -0.5910   -1.7570    4.2090 hc        1 CER      0.053700
     30 H92        -1.3650   -0.4080    5.1310 hc        1 CER      0.053700
     31 H101        1.6550   -0.3840    4.3900 ha        1 CER      0.124000
     32 H111        0.0650   -0.1670    7.0590 ha        1 CER      0.118000
     33 H121        2.2290    1.0680    7.5460 hc        1 CER      0.041367
     34 H122        2.4320   -0.7130    7.8070 hc        1 CER      0.041367
     35 H123        3.0810    0.0610    6.3010 hc        1 CER      0.041367
@<TRIPOS>BOND
     1    1    2 1   
     2    1    4 1   
     3    1    5 2   
     4    2   17 1   
     5    2   18 1   
     6    3    8 2   
     7    4    6 1   
     8    4   19 1   
     9    4   20 1   
    10    6    7 1   
    11    6    8 1   
    12    6   21 1   
    13    7   22 1   
    14    8    9 1   
    15    9   10 1   
    16    9   23 1   
    17    9   24 1   
    18   10   11 1   
    19   10   25 1   
    20   10   26 1   
    21   11   12 2   
    22   11   27 1   
    23   12   13 1   
    24   12   28 1   
    25   13   14 1   
    26   13   29 1   
    27   13   30 1   
    28   14   15 2   
    29   14   31 1   
    30   15   16 1   
    31   15   32 1   
    32   16   33 1   
    33   16   34 1   
    34   16   35 1   
@<TRIPOS>SUBSTRUCTURE
     1 CER         1 TEMP              0 ****  ****    0 ROOT
