@<TRIPOS>MOLECULE
CER
   36    35     1     0     0
SMALL
bcc


@<TRIPOS>ATOM
      1 C1         -1.3430   -0.7490   -1.0800 c         1 CER      0.557100
      2 N1         -0.4900    0.4020   -1.5680 n4        1 CER     -0.763400
      3 O1         -1.3340    0.3700    3.3890 o         1 CER     -0.488100
      4 C2         -1.3610   -0.9730    0.4020 c3        1 CER     -0.176400
      5 O2         -1.9270   -1.3670   -1.9520 o         1 CER     -0.388100
      6 C3         -2.0680    0.1680    1.1410 c3        1 CER      0.027100
      7 O3         -1.3630    1.3720    0.8990 oh        1 CER     -0.652800
      8 C4         -2.1470   -0.1650    2.6350 c         1 CER      0.549100
      9 C5         -3.2500   -1.0820    3.0420 c3        1 CER     -0.168400
     10 C6         -2.9550   -1.7890    4.3520 c3        1 CER     -0.037200
     11 C7         -4.0850   -2.6510    4.7700 c2        1 CER     -0.218200
     12 C8         -4.1780   -3.2090    5.9810 c2        1 CER     -0.119200
     13 C9         -3.1740   -3.0240    7.0580 c3        1 CER     -0.024000
     14 C10        -3.3950   -3.9400    8.2040 c2        1 CER     -0.188200
     15 C11        -2.4210   -4.6560    8.7730 c2        1 CER     -0.150200
     16 C12        -2.6250   -5.5470    9.9310 c3        1 CER     -0.069900
     17 HN11       -0.7640    1.2640   -1.0670 hn        1 CER      0.477133
     18 HN12        0.4950    0.2130   -1.3680 hn        1 CER      0.477133
     19 H21        -1.9120   -1.9390    0.5890 hc        1 CER      0.126200
     20 H22        -0.3110   -1.0860    0.7870 hc        1 CER      0.126200
     21 H31        -3.1080    0.3210    0.7330 h1        1 CER      0.105700
     22 HO3        -0.9370    1.6700    1.7210 ho        1 CER      0.469000
     23 H51        -4.1840   -0.4610    3.1540 hc        1 CER      0.081700
     24 H52        -3.4430   -1.8340    2.2320 hc        1 CER      0.081700
     25 H61        -2.0260   -2.4130    4.2420 hc        1 CER      0.063700
     26 H62        -2.7360   -1.0220    5.1460 hc        1 CER      0.063700
     27 H71        -4.8700   -2.8240    4.0160 ha        1 CER      0.123000
     28 H81        -5.0420   -3.8490    6.2300 ha        1 CER      0.138000
     29 H91        -3.2360   -1.9610    7.4310 hc        1 CER      0.056700
     30 H92        -2.1390   -3.1580    6.6360 hc        1 CER      0.056700
     31 H101       -4.4310   -3.9830    8.5800 ha        1 CER      0.128000
     32 H111       -1.3860   -4.6120    8.3930 ha        1 CER      0.117000
     33 H121       -3.6910   -5.5580   10.2690 hc        1 CER      0.047033
     34 H122       -1.9880   -5.2120   10.7890 hc        1 CER      0.047033
     35 H123       -2.3290   -6.5930    9.6670 hc        1 CER      0.047033
     36 H13        -0.6110    0.5370   -2.5780 hn        1 CER      0.477133
@<TRIPOS>BOND
     1    1    2 1   
     2    1    4 1   
     3    1    5 2   
     4    2   17 1   
     5    2   18 1   
     6    2   36 1   
     7    3    8 2   
     8    4    6 1   
     9    4   19 1   
    10    4   20 1   
    11    6    7 1   
    12    6    8 1   
    13    6   21 1   
    14    7   22 1   
    15    8    9 1   
    16    9   10 1   
    17    9   23 1   
    18    9   24 1   
    19   10   11 1   
    20   10   25 1   
    21   10   26 1   
    22   11   12 2   
    23   11   27 1   
    24   12   13 1   
    25   12   28 1   
    26   13   14 1   
    27   13   29 1   
    28   13   30 1   
    29   14   15 2   
    30   14   31 1   
    31   15   16 1   
    32   15   32 1   
    33   16   33 1   
    34   16   34 1   
    35   16   35 1   
@<TRIPOS>SUBSTRUCTURE
     1 CER         1 TEMP              0 ****  ****    0 ROOT
