@<TRIPOS>MOLECULE
CER
   35    31     1     0     0
SMALL
bcc


@<TRIPOS>ATOM
      1 C1          3.6010    0.4520   -4.4000 c1        1 CER      0.304000
      2 N1          4.7570   -0.2190   -4.8760 n2        1 CER     -0.427000
      3 O1          2.0100    0.2720   -0.4540 o         1 CER     -0.302000
      4 C2          3.0770    0.1620   -3.0100 c3        1 CER     -0.217000
      5 O2          3.0350    1.2620   -5.1050 o         1 CER     -0.399000
      6 C3          2.0710    1.2210   -2.6200 c3        1 CER     -0.004000
      7 O3          2.7330    2.4470   -2.4230 oh        1 CER     -0.335000
      8 C4          1.3780    0.8110   -1.3400 c2        1 CER      0.237000
      9 C5         -0.1030    1.0680   -1.1660 c3        1 CER     -0.196000
     10 C6         -0.5540    0.5260    0.1730 c3        1 CER     -0.128000
     11 C7         -2.0100    0.8740    0.3920 c2        1 CER     -0.176000
     12 C8         -2.6710    0.3680    1.4520 c1        1 CER     -0.159000
     13 C9         -1.9570   -0.5460    2.4230 c2        1 CER     -0.107000
     14 C10        -2.9220   -0.9880    3.5020 c2        1 CER     -0.166000
     15 C11        -2.5410   -1.9080    4.4100 c1        1 CER     -0.167000
     16 C12        -3.5050   -2.3490    5.4890 c2        1 CER     -0.186000
     17 HN11        5.1770   -0.8370   -4.3490 hn        1 CER      0.229500
     18 HN12        5.0780   -0.0380   -5.7130 hn        1 CER      0.229500
     19 H21         3.8200    0.1680   -2.3740 hc        1 CER      0.128500
     20 H22         2.6470   -0.7160   -3.0010 hc        1 CER      0.128500
     21 H31         1.4090    1.3190   -3.3320 h1        1 CER      0.110000
     22 HO3         2.3150    3.0870   -2.8770 ho        1 CER      0.240000
     23 H51        -0.5980    0.6220   -1.8820 hc        1 CER      0.123500
     24 H52        -0.2730    2.0310   -1.2020 hc        1 CER      0.123500
     25 H61        -0.4460   -0.4460    0.1840 hc        1 CER      0.098000
     26 H62        -0.0140    0.9240    0.8840 hc        1 CER      0.098000
     27 H71        -2.4710    1.4640   -0.2350 ha        1 CER      0.123000
     28 H81        -3.6110    0.5920    1.5930 ha        1 CER      0.125000
     29 H91        -1.2080   -0.0680    2.8310 ha        1 CER      0.095500
     30 H92        -1.6220   -1.3310    1.9450 ha        1 CER      0.095500
     31 H101       -3.8190   -0.6050    3.5410 ha        1 CER      0.121000
     32 H111       -1.6420   -2.2860    4.3750 ha        1 CER      0.119000
     33 H121       -3.7540   -1.5780    6.0400 ha        1 CER      0.079667
     34 H122       -3.0780   -3.0290    6.0510 ha        1 CER      0.079667
     35 H123       -4.3090   -2.7270    5.0740 ha        1 CER      0.079667
@<TRIPOS>BOND
     1    1    4 1   
     2    1    5 1   
     3    2   17 1   
     4    2   18 1   
     5    3    8 1   
     6    4    6 1   
     7    4   19 1   
     8    4   20 1   
     9    6    7 1   
    10    6    8 1   
    11    6   21 1   
    12    7   22 1   
    13    8    9 1   
    14    9   10 1   
    15    9   23 1   
    16    9   24 1   
    17   10   11 1   
    18   10   25 1   
    19   10   26 1   
    20   11   12 1   
    21   11   27 1   
    22   12   28 1   
    23   13   14 1   
    24   13   29 1   
    25   13   30 1   
    26   14   15 1   
    27   14   31 1   
    28   15   32 1   
    29   16   33 1   
    30   16   34 1   
    31   16   35 1   
@<TRIPOS>SUBSTRUCTURE
     1 CER         1 TEMP              0 ****  ****    0 ROOT
