@<TRIPOS>MOLECULE
CER
   36    35     1     0     0
SMALL
bcc


@<TRIPOS>ATOM
      1 C1         -1.1560   -1.4510   -0.4530 c         1 CER      0.557100
      2 N1         -0.2050   -0.5010   -1.1480 n4        1 CER     -0.763400
      3 O1         -2.0520    1.2090    3.2680 o         1 CER     -0.488100
      4 C2         -1.4550   -1.1490    0.9840 c3        1 CER     -0.176400
      5 O2         -1.5770   -2.3620   -1.1450 o         1 CER     -0.388100
      6 C3         -2.2280    0.1630    1.1440 c3        1 CER      0.028100
      7 O3         -1.4180    1.2230    0.6690 oh        1 CER     -0.652800
      8 C4         -2.6280    0.3420    2.6110 c         1 CER      0.549100
      9 C5         -3.7190   -0.5420    3.1170 c3        1 CER     -0.168400
     10 C6         -3.2420   -1.3880    4.2840 c3        1 CER     -0.037200
     11 C7         -4.3250   -2.2590    4.7990 c2        1 CER     -0.218200
     12 C8         -4.2590   -2.9100    5.9650 c2        1 CER     -0.119200
     13 C9         -3.1090   -2.8310    6.8990 c3        1 CER     -0.024000
     14 C10        -3.1530   -3.8830    7.9440 c2        1 CER     -0.188200
     15 C11        -2.0990   -4.6340    8.2780 c2        1 CER     -0.150200
     16 C12        -2.1250   -5.6620    9.3360 c3        1 CER     -0.069900
     17 HN11       -0.5640    0.4640   -1.0600 hn        1 CER      0.477133
     18 HN12        0.7150   -0.5420   -0.7000 hn        1 CER      0.477133
     19 H21        -0.4970   -1.1040    1.5710 hc        1 CER      0.126200
     20 H22        -2.0770   -1.9980    1.3890 hc        1 CER      0.126200
     21 H31        -3.1570    0.1570    0.5030 h1        1 CER      0.105700
     22 HO3        -1.2110    1.8300    1.4020 ho        1 CER      0.469000
     23 H51        -4.1080   -1.1990    2.2960 hc        1 CER      0.081700
     24 H52        -4.5700    0.1130    3.4590 hc        1 CER      0.081700
     25 H61        -2.8650   -0.7130    5.1020 hc        1 CER      0.063700
     26 H62        -2.3740   -2.0260    3.9570 hc        1 CER      0.063700
     27 H71        -5.2160   -2.3540    4.1590 ha        1 CER      0.123000
     28 H81        -5.0990   -3.5490    6.2890 ha        1 CER      0.138000
     29 H91        -2.1450   -2.8850    6.3210 hc        1 CER      0.056700
     30 H92        -3.1260   -1.8220    7.4050 hc        1 CER      0.056700
     31 H101       -4.1230   -4.0000    8.4550 ha        1 CER      0.128000
     32 H111       -1.1290   -4.5150    7.7650 ha        1 CER      0.117000
     33 H121       -1.8560   -6.6600    8.9080 hc        1 CER      0.047033
     34 H122       -3.1320   -5.7450    9.8150 hc        1 CER      0.047033
     35 H123       -1.3770   -5.4120   10.1310 hc        1 CER      0.047033
     36 H13        -0.1110   -0.7460   -2.1400 hn        1 CER      0.477133
@<TRIPOS>BOND
     1    1    2 1   
     2    1    4 1   
     3    1    5 2   
     4    2   17 1   
     5    2   18 1   
     6    2   36 1   
     7    3    8 2   
     8    4    6 1   
     9    4   19 1   
    10    4   20 1   
    11    6    7 1   
    12    6    8 1   
    13    6   21 1   
    14    7   22 1   
    15    8    9 1   
    16    9   10 1   
    17    9   23 1   
    18    9   24 1   
    19   10   11 1   
    20   10   25 1   
    21   10   26 1   
    22   11   12 2   
    23   11   27 1   
    24   12   13 1   
    25   12   28 1   
    26   13   14 1   
    27   13   29 1   
    28   13   30 1   
    29   14   15 2   
    30   14   31 1   
    31   15   16 1   
    32   15   32 1   
    33   16   33 1   
    34   16   34 1   
    35   16   35 1   
@<TRIPOS>SUBSTRUCTURE
     1 CER         1 TEMP              0 ****  ****    0 ROOT
