@<TRIPOS>MOLECULE
CES
   41    36     1     0     0
SMALL
bcc


@<TRIPOS>ATOM
      1 C14         0.9650    4.3600    0.6220 c1        1 CES     -0.094000
      2 O15         1.7830    4.8270    1.6300 os        1 CES     -0.098000
      3 C16         1.9950    6.1580    1.4220 c1        1 CES     -0.094000
      4 C17         1.3070    6.5270    0.2800 c1        1 CES     -0.166000
      5 C19         0.6730    5.4150   -0.2090 c1        1 CES     -0.166000
      6 C18        -2.7390    3.2130    2.2990 c3        1 CES     -0.055000
      7 O17        -1.3700    3.6030    2.0420 os        1 CES     -0.208000
      8 N16        -0.7310    2.6190    1.2130 n2        1 CES     -0.032000
      9 C13         0.3800    2.9400    0.5220 c1        1 CES     -0.028000
     10 C4'         1.8250   -5.0350   -0.4550 c1        1 CES      0.372000
     11 O4A         2.3570   -5.8080   -1.2710 os        1 CES     -0.554000
     12 O4B         2.2750   -4.9550    0.7210 o         1 CES     -0.575000
     13 O9          0.4670   -0.2050   -3.5510 o         1 CES     -0.562000
     14 C8          0.0740   -0.0180   -2.3540 c1        1 CES      0.337000
     15 C3'        -1.6550   -5.7480    0.5050 c3        1 CES     -0.132000
     16 C3         -1.2750   -4.4310   -0.1060 c2        1 CES     -0.291000
     17 C2         -1.5890   -4.1960   -0.3910 c3        1 CES     -0.161000
     18 S1         -1.1220   -2.4150   -0.4930 ss        1 CES     -0.131000
     19 C6          0.6750   -2.1270   -0.7260 c3        1 CES     -0.008000
     20 N5          0.9910   -2.5730   -1.2340 n3        1 CES     -0.268000
     21 C4          0.6990   -4.1360   -0.8930 c2        1 CES      0.040000
     22 C7          0.9180   -0.2890   -1.3050 c2        1 CES     -0.077000
     23 N10         0.6580    0.5140   -0.3150 n         1 CES     -0.291000
     24 C11         1.0740    1.8760   -0.3730 c2        1 CES      0.351000
     25 O12         1.9620    2.1940   -1.0910 o         1 CES     -0.376000
     26 O9A        -1.1190    0.3370   -2.1300 o         1 CES     -0.562000
     27 H16         2.5680    6.7800    2.0110 DU        1 CES      0.190000
     28 H17         1.3420    7.4110   -0.1560 DU        1 CES      0.190000
     29 H19         0.0980    5.3790   -1.0300 DU        1 CES      0.190000
     30 H183       -3.1430    3.8390    2.9370 h1        1 CES      0.074333
     31 H182       -3.2380    3.2290    1.4780 h1        1 CES      0.074333
     32 H181       -2.7550    2.3260    2.6680 h1        1 CES      0.074333
     33 H3'3       -1.8180   -6.3850   -0.1880 hc        1 CES      0.056000
     34 H3'2       -2.4800   -5.6330    1.0540 hc        1 CES      0.056000
     35 H3'1       -0.9390   -6.0600    1.0650 hc        1 CES      0.056000
     36 H21        -2.5180   -4.4650   -0.1790 h1        1 CES      0.070500
     37 H22        -1.5220   -4.5340   -1.3500 h1        1 CES      0.070500
     38 H6          1.1390   -2.2540    0.1500 h2        1 CES      0.091000
     39 HN5         1.7580   -2.3360   -1.6250 hn        1 CES      0.264000
     40 H7          1.8450   -0.1590   -1.5950 h4        1 CES      0.129000
     41 H10         0.1880    0.2140    0.3990 hn        1 CES      0.241000
@<TRIPOS>BOND
     1    1    2 1   
     2    1    5 1   
     3    2    3 1   
     4    3    4 1   
     5    4    5 1   
     6    6    7 1   
     7    6   30 1   
     8    6   31 1   
     9    6   32 1   
    10    7    8 1   
    11    8    9 1   
    12    9   24 1   
    13   10   12 1   
    14   10   21 1   
    15   13   14 1   
    16   14   26 1   
    17   15   16 1   
    18   15   33 1   
    19   15   34 1   
    20   15   35 1   
    21   16   17 1   
    22   16   21 1   
    23   17   18 1   
    24   17   36 1   
    25   17   37 1   
    26   18   19 1   
    27   19   20 1   
    28   19   22 1   
    29   19   38 1   
    30   20   21 1   
    31   20   39 1   
    32   22   23 1   
    33   22   40 1   
    34   23   24 1   
    35   23   41 1   
    36   24   25 1   
@<TRIPOS>SUBSTRUCTURE
     1 CES         1 TEMP              0 ****  ****    0 ROOT
