@<TRIPOS>MOLECULE
CES
   42    36     1     0     0
SMALL
bcc


@<TRIPOS>ATOM
      1 C14        -0.8770   -1.1240    0.8040 c3        1 CES      0.072000
      2 O15         0.1150   -0.8030    1.7530 oh        1 CES     -0.299000
      3 C16        -3.2730   -0.2270    3.3840 c1        1 CES      0.163000
      4 C17        -2.7290   -0.3320    2.2350 c1        1 CES     -0.541000
      5 C19        -2.1910   -0.4230    1.0340 c2        1 CES      0.131000
      6 N16        -0.0560   -1.8230   -1.3810 n2        1 CES      0.010000
      7 C13        -0.3600   -0.8260   -0.6060 c2        1 CES     -0.123000
      8 O4A        -6.6710   -3.1130   -9.5630 o         1 CES     -0.294000
      9 O4B        -5.1970   -3.7560   -7.8240 o         1 CES     -0.294000
     10 C8         -2.9970    2.2760   -1.9670 c2        1 CES      0.301000
     11 C3         -8.3320   -2.4900   -6.0240 c2        1 CES      0.005000
     12 C2         -8.3390   -1.4550   -5.2140 c1        1 CES     -0.797000
     13 S1         -8.2070   -0.3490   -4.3230 sh        1 CES      1.142000
     14 C6         -6.9420    0.9770   -3.1970 c1        1 CES     -0.096000
     15 N5         -6.0990    1.5460   -2.6290 n2        1 CES     -0.197000
     16 C4         -7.7390   -3.2750   -7.1100 c1        1 CES     -0.078000
     17 C7         -1.4720    2.3980   -2.1240 c3        1 CES     -0.116000
     18 N10        -0.7980    1.1160   -2.0850 ns        1 CES     -0.283000
     19 C11        -0.2770    0.6640   -0.8870 c2        1 CES      0.303000
     20 O12         0.2840    1.4020   -0.0510 o         1 CES     -0.366000
     21 H16         0.2820    0.1510    1.7020 ho        1 CES      0.235000
     22 H17        -2.7020   -0.0030    0.1320 ha        1 CES      0.207000
     23 H19        -1.0450   -2.2360    0.9470 h1        1 CES      0.158000
     24 H183       -1.0650   -3.2040   -4.4800 ha        1 CES      0.002500
     25 H182       -1.0590   -3.5920   -3.9220 ha        1 CES      0.002500
     26 H181        1.1110   -2.0330   -4.3370 ha        1 CES      0.032000
     27 H3'3       -9.6870   -4.3820   -6.3170 ha        1 CES      0.176000
     28 H3'2       -2.6520   -3.3140   -6.2050 ha        1 CES      0.002500
     29 H3'1       -3.2290   -3.3820   -6.5550 ha        1 CES      0.002500
     30 H21        -0.7610   -2.1480   -6.5340 ha        1 CES      0.002500
     31 H22        -0.1600   -1.9550   -6.2890 ha        1 CES      0.002500
     32 H6         -8.8620    0.6510   -4.8750 hs        1 CES     -0.197000
     33 HN5        -5.3190    1.9830   -2.1790 hn        1 CES      0.375000
     34 H7         -1.2460    2.8700   -3.1200 h1        1 CES      0.112000
     35 H10        -1.2910    0.4190   -2.6100 hn        1 CES      0.214000
     36 O17         0.3470   -1.4980   -2.6310 os        1 CES     -0.160000
     37 O9A        -3.4970    1.2200   -1.4620 o         1 CES     -0.584000
     38 C18         0.8960   -2.4940   -3.3330 c1        1 CES      0.028000
     39 C4'        -6.0770   -3.4210   -8.5670 c1        1 CES      0.490000
     40 H102       -1.0760    3.0670   -1.3120 h1        1 CES      0.112000
     41 O9         -3.7340    3.2190   -2.3710 o         1 CES     -0.584000
     42 C3'        -8.8830   -3.6930   -6.4730 c2        1 CES     -0.270000
@<TRIPOS>BOND
     1    1    2 1   
     2    1    5 1   
     3    1    7 1   
     4    1   23 1   
     5    2   21 1   
     6    3    4 1   
     7    4    5 1   
     8    5   22 1   
     9    6    7 1   
    10    6   36 1   
    11    7   19 1   
    12    8   39 1   
    13    9   39 1   
    14   10   17 1   
    15   10   37 1   
    16   10   41 1   
    17   11   12 1   
    18   11   16 1   
    19   11   42 1   
    20   12   13 1   
    21   13   32 1   
    22   14   15 1   
    23   15   33 1   
    24   16   42 1   
    25   17   18 1   
    26   17   34 1   
    27   17   40 1   
    28   18   19 1   
    29   18   35 1   
    30   19   20 1   
    31   24   25 1   
    32   26   38 1   
    33   27   42 1   
    34   28   29 1   
    35   30   31 1   
    36   36   38 1   
@<TRIPOS>SUBSTRUCTURE
     1 CES         1 TEMP              0 ****  ****    0 ROOT
