@<TRIPOS>MOLECULE
CES
   41    42     1     0     0
SMALL
bcc


@<TRIPOS>ATOM
      1 C14       118.3210   62.4550   70.2660 cc        1 CES      0.193400
      2 O15       119.1440   62.9820   69.2510 os        1 CES     -0.358800
      3 C16       118.3060   63.2420   68.1710 cc        1 CES      0.206600
      4 C17       117.0030   62.9020   68.4760 cd        1 CES     -0.266300
      5 C19       117.0070   62.3910   69.8270 cd        1 CES     -0.200300
      6 N16       120.0660   62.5970   71.9190 n2        1 CES     -0.429200
      7 C13       118.9250   62.0860   71.5340 ce        1 CES      0.301300
      8 O4A       113.8620   64.2720   77.7420 o         1 CES     -0.828300
      9 O4B       114.7300   65.2930   75.9590 o         1 CES     -0.828300
     10 C8        114.7240   60.6920   72.6820 c         1 CES      0.905600
     11 C3        116.4820   62.6920   77.4140 c2        1 CES     -0.287400
     12 C2        117.4390   61.6070   77.1320 c3        1 CES      0.103900
     13 S1        116.7370   60.2850   76.1760 ss        1 CES     -0.437200
     14 C6        115.6010   61.1060   75.0200 c3        1 CES      0.347600
     15 N5        115.4500   62.5210   75.2280 nh        1 CES     -0.738000
     16 C4        115.5600   63.0980   76.4920 ce        1 CES      0.095800
     17 C7        116.0170   60.7140   73.5760 c3        1 CES     -0.048300
     18 N10       117.0680   61.5500   73.0350 n         1 CES     -0.469900
     19 C11       118.1080   61.0480   72.3070 c         1 CES      0.562800
     20 O12       118.4740   59.8550   72.2710 o         1 CES     -0.624100
     21 H16       118.8110   63.6540   67.3050 h4        1 CES      0.028100
     22 H17       116.1240   62.9920   67.8450 ha        1 CES      0.153000
     23 H19       116.1280   62.0350   70.3900 ha        1 CES      0.249000
     24 H183      121.7920   62.4650   74.6030 h1        1 CES      0.037367
     25 H182      122.4430   63.0470   72.9820 h1        1 CES      0.037367
     26 H181      121.1610   64.0240   73.8580 h1        1 CES      0.037367
     27 H3'3      115.8190   64.0960   78.9070 hc        1 CES      0.017033
     28 H3'2      116.5110   62.5460   79.5510 hc        1 CES      0.017033
     29 H3'1      117.6150   63.7980   78.8570 hc        1 CES      0.017033
     30 H21       118.3220   62.0070   76.5740 h1        1 CES      0.037700
     31 H22       117.8080   61.1310   78.0750 h1        1 CES      0.037700
     32 H6        114.6260   60.5580   75.2040 h2        1 CES      0.084700
     33 HN5       114.7390   62.9270   74.6530 hn        1 CES      0.432800
     34 H7        116.3980   59.6510   73.6260 h1        1 CES      0.090700
     35 H10       116.7840   62.4890   72.8480 hn        1 CES      0.323500
     36 O17       120.5240   62.1620   73.0840 os        1 CES     -0.163300
     37 O9        114.6260   61.5010   71.7150 o         1 CES     -0.836800
     38 O9A       113.8530   59.8330   72.9810 o         1 CES     -0.836800
     39 C3'       116.6090   63.3190   78.7460 c3        1 CES     -0.006900
     40 C18       121.5510   62.9990   73.6510 c3        1 CES      0.133700
     41 C4'       114.6470   64.3170   76.7540 c         1 CES      0.906800
@<TRIPOS>BOND
     1    1    2 1   
     2    1    5 2   
     3    1    7 1   
     4    2    3 1   
     5    3    4 2   
     6    3   21 1   
     7    4    5 1   
     8    4   22 1   
     9    5   23 1   
    10    6    7 2   
    11    6   36 1   
    12    7   19 1   
    13    8   41 1   
    14    9   41 1   
    15   10   17 1   
    16   10   37 1   
    17   10   38 1   
    18   11   12 1   
    19   11   16 2   
    20   11   39 1   
    21   12   13 1   
    22   12   30 1   
    23   12   31 1   
    24   13   14 1   
    25   14   15 1   
    26   14   17 1   
    27   14   32 1   
    28   15   16 1   
    29   15   33 1   
    30   16   41 1   
    31   17   18 1   
    32   17   34 1   
    33   18   19 1   
    34   18   35 1   
    35   19   20 2   
    36   24   40 1   
    37   25   40 1   
    38   26   40 1   
    39   27   39 1   
    40   28   39 1   
    41   29   39 1   
    42   36   40 1   
@<TRIPOS>SUBSTRUCTURE
     1 CES         1 TEMP              0 ****  ****    0 ROOT
