@<TRIPOS>MOLECULE
CES
   42    39     1     0     0
SMALL
bcc


@<TRIPOS>ATOM
      1 C14         0.5500   -1.0230    0.7450 c3        1 CES      0.075000
      2 O15         1.5650   -1.9990    0.8640 oh        1 CES     -0.286000
      3 C16         3.0620    0.5350    2.9220 c1        1 CES      0.193000
      4 C17         2.0590    0.4020    2.1420 c1        1 CES     -0.536000
      5 C19         1.0300    0.2750    1.3310 c2        1 CES      0.173000
      6 N16         0.8370   -1.0510   -1.7050 n2        1 CES      0.035000
      7 C13         0.0730   -0.7890   -0.6850 c2        1 CES     -0.144000
      8 O4A        -8.9960   -0.6340   -4.1650 os        1 CES     -0.264000
      9 O4B        -8.3780   -2.7960   -3.4420 o         1 CES     -0.278000
     10 C8         -3.8390   -0.3980   -3.2720 c2        1 CES      0.266000
     11 C3         -6.7000   -0.0500   -5.1620 c2        1 CES      0.241000
     12 C2         -7.2460   -0.0540   -6.4060 c1        1 CES     -1.274000
     13 S1         -7.8050   -0.0470   -7.6830 s4        1 CES      1.549000
     14 C6         -9.1900   -1.0290   -7.9780 c1        1 CES     -0.512000
     15 N5        -10.0940   -1.7220   -8.2340 n1        1 CES     -0.131000
     16 C4         -7.5420   -0.3500   -3.9730 cx        1 CES      0.004000
     17 C7         -3.5450   -0.3460   -1.7800 c3        1 CES     -0.056000
     18 N10        -2.2590   -0.9090   -1.4520 n         1 CES     -0.331000
     19 C11        -1.3250   -0.1960   -0.7380 c2        1 CES      0.308000
     20 O12        -1.5890    0.8340   -0.0880 o         1 CES     -0.355000
     21 H16         1.2740   -2.7810    0.3760 ho        1 CES      0.217000
     22 H17         0.3970    1.1440    1.0470 ha        1 CES      0.166000
     23 H19        -0.3560   -1.3510    1.3440 h1        1 CES      0.122000
     24 H183       -1.4710   -2.6230   -4.1960 ha        1 CES      0.003333
     25 H182       -1.1390   -2.9150   -3.6770 ha        1 CES      0.003333
     26 H181        0.2320   -1.0500   -4.8350 ha        1 CES      0.066000
     27 H3'3       -4.6290    0.4680   -5.6790 h4        1 CES      0.150000
     28 H3'2       -3.2500   -3.3480   -5.3860 ha        1 CES      0.003333
     29 H3'1       -3.6870   -2.8410   -5.4930 ha        1 CES      0.003333
     30 H21        -2.0840   -1.3540   -6.1470 ha        1 CES      0.003333
     31 H22        -1.4410   -1.1460   -6.2030 ha        1 CES      0.003333
     32 H6         -8.3950    1.1270   -7.8880 hs        1 CES     -0.344000
     33 HN5        -7.3630    0.3220   -3.1060 h1        1 CES      0.138000
     34 H7         -3.6160    0.7210   -1.4230 h1        1 CES      0.134500
     35 H10        -1.9290   -1.6010   -2.0970 hn        1 CES      0.243000
     36 O17         0.3270   -0.7300   -2.9140 os        1 CES     -0.161000
     37 O9A        -3.1580   -0.9880   -4.1190 o         1 CES     -0.387000
     38 C18         0.6750   -1.5360   -3.9250 c1        1 CES      0.024000
     39 C4'        -8.1720   -1.6410   -3.7440 cu        1 CES      0.286000
     40 H102       -4.3420   -0.9510   -1.2580 h1        1 CES      0.134500
     41 O9         -4.9330    0.3300   -3.5940 os        1 CES     -0.197000
     42 C3'        -5.3850    0.2670   -4.9220 c2        1 CES     -0.290000
@<TRIPOS>BOND
     1    1    2 1   
     2    1    5 1   
     3    1    7 1   
     4    1   23 1   
     5    2   21 1   
     6    3    4 1   
     7    4    5 1   
     8    5   22 1   
     9    6    7 1   
    10    6   36 1   
    11    7   19 1   
    12    8   16 1   
    13    8   39 1   
    14    9   39 1   
    15   10   17 1   
    16   10   37 1   
    17   10   41 1   
    18   11   12 1   
    19   11   16 1   
    20   11   42 1   
    21   12   13 1   
    22   13   14 1   
    23   13   32 1   
    24   14   15 1   
    25   16   33 1   
    26   16   39 1   
    27   17   18 1   
    28   17   34 1   
    29   17   40 1   
    30   18   19 1   
    31   18   35 1   
    32   19   20 1   
    33   24   25 1   
    34   26   38 1   
    35   27   42 1   
    36   28   29 1   
    37   30   31 1   
    38   36   38 1   
    39   41   42 1   
@<TRIPOS>SUBSTRUCTURE
     1 CES         1 TEMP              0 ****  ****    0 ROOT
