@<TRIPOS>MOLECULE
CET
   32    32     1     0     0
SMALL
bcc


@<TRIPOS>ATOM
      1 N1         -0.1100    0.0510   -0.2240 nb        1 CET     -0.798000
      2 C2          1.2500    0.0190   -0.1960 ca        1 CET      0.806000
      3 Cl2         2.0480    0.1740   -1.7180 cl        1 CET     -0.107000
      4 N3          2.0570   -0.1180    0.8930 nb        1 CET     -0.796000
      5 C4          1.3710   -0.2370    2.1000 ca        1 CET      0.928900
      6 N5         -0.0070   -0.1920    2.2280 nb        1 CET     -0.846000
      7 C6         -0.7090   -0.0710    1.0340 ca        1 CET      0.937900
      8 N7          2.0950   -0.4710    3.2770 nu        1 CET     -0.834900
      9 C8          3.5300   -0.1920    3.3860 c3        1 CET      0.319300
     10 C9          3.8970    1.0790    2.7320 c1        1 CET      0.195700
     11 N9          4.1890    2.0720    2.2070 n1        1 CET     -0.352800
     12 C10         3.9050   -0.0710    4.8940 c3        1 CET     -0.089400
     13 C11         5.3730    0.1780    5.1140 c3        1 CET     -0.097100
     14 C12         4.3730   -1.3180    2.7580 c3        1 CET     -0.093100
     15 N13        -2.0900   -0.1030    1.1130 nu        1 CET     -0.849900
     16 C14        -2.9270    0.1870   -0.0250 c3        1 CET      0.217800
     17 C15        -4.4080    0.1850    0.3170 c3        1 CET     -0.114100
     18 HN7         1.5810   -0.3460    4.1250 hn        1 CET      0.441800
     19 H101        3.3160    0.7690    5.3510 hc        1 CET      0.054700
     20 H102        3.6090   -1.0220    5.4110 hc        1 CET      0.054700
     21 H111        5.9770   -0.7260    4.8570 hc        1 CET      0.045700
     22 H112        5.5520    0.4220    6.1900 hc        1 CET      0.045700
     23 H113        5.7370    1.0340    4.4950 hc        1 CET      0.045700
     24 H121        5.4480   -1.0160    2.7700 hc        1 CET      0.059033
     25 H122        4.0770   -1.5160    1.7010 hc        1 CET      0.059033
     26 H123        4.2480   -2.2550    3.3510 hc        1 CET      0.059033
     27 HN3        -2.5060   -0.0830    2.0170 hn        1 CET      0.449800
     28 H141       -2.6500    1.1930   -0.4580 h1        1 CET      0.058700
     29 H142       -2.7280   -0.5890   -0.8210 h1        1 CET      0.058700
     30 H151       -4.9840    0.4030   -0.6150 hc        1 CET      0.046700
     31 H152       -4.7340   -0.8080    0.7110 hc        1 CET      0.046700
     32 H153       -4.6530    0.9670    1.0760 hc        1 CET      0.046700
@<TRIPOS>BOND
     1    1    2 ar  
     2    1    7 ar  
     3    2    3 1   
     4    2    4 ar  
     5    4    5 ar  
     6    5    6 ar  
     7    5    8 1   
     8    6    7 ar  
     9    7   15 1   
    10    8    9 1   
    11    8   18 1   
    12    9   10 1   
    13    9   12 1   
    14    9   14 1   
    15   10   11 3   
    16   12   13 1   
    17   12   19 1   
    18   12   20 1   
    19   13   21 1   
    20   13   22 1   
    21   13   23 1   
    22   14   24 1   
    23   14   25 1   
    24   14   26 1   
    25   15   16 1   
    26   15   27 1   
    27   16   17 1   
    28   16   28 1   
    29   16   29 1   
    30   17   30 1   
    31   17   31 1   
    32   17   32 1   
@<TRIPOS>SUBSTRUCTURE
     1 CET         1 TEMP              0 ****  ****    0 ROOT
