@<TRIPOS>MOLECULE
CET
   34    34     1     0     0
SMALL
bcc


@<TRIPOS>ATOM
      1 N1          0.1130    0.1470   -0.5030 nb        1 CET     -0.656000
      2 C2          1.3120   -0.5000   -0.7190 ca        1 CET      0.808000
      3 CL2         1.8670   -0.6280   -2.3040 cl        1 CET      0.107000
      4 N3          2.0890   -1.0470    0.2850 nb        1 CET     -0.659000
      5 C4          1.5830   -0.9190    1.5480 ca        1 CET      0.813900
      6 N5          0.3900   -0.3100    1.8870 nb        1 CET     -0.703000
      7 C6         -0.2850    0.2120    0.8040 ca        1 CET      0.811900
      8 N7          2.3950   -1.4810    2.6640 n4        1 CET     -0.777700
      9 C8          3.3600   -0.4280    3.2970 c3        1 CET      0.263300
     10 C9          2.6950    0.8710    3.2420 c1        1 CET      0.140700
     11 N9          2.1810    1.9130    3.2090 n1        1 CET     -0.234800
     12 C10         3.6080   -0.8490    4.7650 c3        1 CET     -0.098400
     13 C11         4.5260    0.1240    5.4660 c3        1 CET     -0.109100
     14 C12         4.6680   -0.4010    2.5070 c3        1 CET     -0.139100
     15 N13        -1.5700    0.9180    1.0850 n4        1 CET     -0.758700
     16 C14        -2.7620    0.0800    0.6760 c3        1 CET      0.122800
     17 C15        -4.0600    0.7830    1.0030 c3        1 CET     -0.149100
     18 HN7         1.7640   -1.8340    3.4010 hn        1 CET      0.494300
     19 H101        4.0750   -1.8710    4.7810 hc        1 CET      0.081200
     20 H102        2.6320   -0.8920    5.3190 hc        1 CET      0.081200
     21 H111        5.5620    0.0760    5.0520 hc        1 CET      0.077367
     22 H112        4.5750   -0.1450    6.5530 hc        1 CET      0.077367
     23 H113        4.1500    1.1730    5.3840 hc        1 CET      0.077367
     24 H121        5.3000    0.4360    2.9100 hc        1 CET      0.103033
     25 H122        4.5060   -0.2120    1.4180 hc        1 CET      0.103033
     26 H123        5.2340   -1.3560    2.6420 hc        1 CET      0.103033
     27 HN3        -1.5830    1.8070    0.5550 hn        1 CET      0.493800
     28 H141       -2.6900   -0.9000    1.2290 hx        1 CET      0.120700
     29 H142       -2.6830   -0.1080   -0.4350 hx        1 CET      0.120700
     30 H151       -4.1660    1.7520    0.4530 hc        1 CET      0.099033
     31 H152       -4.8980    0.1100    0.6730 hc        1 CET      0.099033
     32 H153       -4.1790    0.9660    2.0990 hc        1 CET      0.099033
     33 H72         2.9730   -2.2610    2.3080 hn        1 CET      0.494300
     34 H132       -1.6360    1.1390    2.0920 hn        1 CET      0.493800
@<TRIPOS>BOND
     1    1    2 ar  
     2    1    7 ar  
     3    2    3 1   
     4    2    4 ar  
     5    4    5 ar  
     6    5    6 ar  
     7    5    8 1   
     8    6    7 ar  
     9    7   15 1   
    10    8    9 1   
    11    8   18 1   
    12    8   33 1   
    13    9   10 1   
    14    9   12 1   
    15    9   14 1   
    16   10   11 3   
    17   12   13 1   
    18   12   19 1   
    19   12   20 1   
    20   13   21 1   
    21   13   22 1   
    22   13   23 1   
    23   14   24 1   
    24   14   25 1   
    25   14   26 1   
    26   15   16 1   
    27   15   27 1   
    28   15   34 1   
    29   16   17 1   
    30   16   28 1   
    31   16   29 1   
    32   17   30 1   
    33   17   31 1   
    34   17   32 1   
@<TRIPOS>SUBSTRUCTURE
     1 CET         1 TEMP              0 ****  ****    0 ROOT
