@<TRIPOS>MOLECULE
CEV
   37    37     1     0     0
SMALL
bcc


@<TRIPOS>ATOM
      1 O1          0.1200   -0.0570   -0.0810 os        1 CEV     -0.432900
      2 C3          1.5250   -0.4040   -0.0210 c3        1 CEV      0.140400
      3 C5          1.9700   -0.0890    1.3840 c3        1 CEV     -0.105100
      4 N49        -4.7020    1.2160   -1.8170 nz        1 CEV     -0.847600
      5 C57        -4.0030    0.2390   -2.7170 c3        1 CEV      0.127500
      6 C59        -4.4240    0.4080   -4.1830 c3        1 CEV     -0.094400
      7 C61        -5.8760    0.0760   -4.4520 c3        1 CEV     -0.163700
      8 C63        -2.4820    0.3740   -2.6090 c3        1 CEV     -0.119400
      9 C65        -6.8060    1.2880   -4.2590 c         1 CEV      0.696500
     10 O66        -6.8670    1.9740   -3.2130 o         1 CEV     -0.717500
     11 N69        -7.5500    1.5000   -5.3850 ns        1 CEV     -0.530900
     12 C71        -7.2600    0.5440   -6.4350 c3        1 CEV      0.079000
     13 C73        -6.1160   -0.3530   -5.9100 c3        1 CEV     -0.093400
     14 C82        -1.9670    0.0850   -1.2160 c3        1 CEV     -0.153400
     15 C84        -0.5060   -0.2690   -1.2660 c         1 CEV      0.632100
     16 O88         0.1190   -0.7180   -2.2280 o         1 CEV     -0.524000
     17 H3          1.6300   -1.4930   -0.2670 h1        1 CEV      0.062200
     18 H3A         2.0700    0.2050   -0.7880 h1        1 CEV      0.062200
     19 H5          3.0530   -0.3410    1.4820 hc        1 CEV      0.057367
     20 H5A         1.8250    0.9950    1.6110 hc        1 CEV      0.057367
     21 H5B         1.3880   -0.6850    2.1270 hc        1 CEV      0.057367
     22 H57        -4.3110   -0.7910   -2.3590 hx        1 CEV      0.106700
     23 H59        -3.7780   -0.2960   -4.7790 hc        1 CEV      0.094200
     24 H59A       -4.1910    1.4480   -4.5360 hc        1 CEV      0.094200
     25 H61        -6.2260   -0.7360   -3.7570 hc        1 CEV      0.086700
     26 H63        -2.1530    1.3940   -2.9410 hc        1 CEV      0.103700
     27 H63A       -2.0230   -0.3640   -3.3290 hc        1 CEV      0.103700
     28 HN69       -8.2480    2.1970   -5.4730 hn        1 CEV      0.360500
     29 H71        -6.9490    1.0870   -7.3700 h1        1 CEV      0.074200
     30 H71A       -8.1760   -0.0660   -6.6660 h1        1 CEV      0.074200
     31 H73        -6.4100   -1.4290   -5.9620 hc        1 CEV      0.077700
     32 H73A       -5.2000   -0.2110   -6.5340 hc        1 CEV      0.077700
     33 H82        -2.5020   -0.7910   -0.7590 hc        1 CEV      0.078700
     34 H82A       -2.0960    0.9680   -0.5350 hc        1 CEV      0.078700
     35 HN49       -4.5560    2.1740   -2.1570 hn        1 CEV      0.467467
     36 H492       -5.7230    1.0440   -1.8370 hn        1 CEV      0.467467
     37 HN4A       -4.3470    1.1330   -0.8630 hn        1 CEV      0.467467
@<TRIPOS>BOND
     1    1    2 1   
     2    1   15 1   
     3    2    3 1   
     4    2   17 1   
     5    2   18 1   
     6    3   19 1   
     7    3   20 1   
     8    3   21 1   
     9    4    5 1   
    10    4   35 1   
    11    4   36 1   
    12    4   37 1   
    13    5    6 1   
    14    5    8 1   
    15    5   22 1   
    16    6    7 1   
    17    6   23 1   
    18    6   24 1   
    19    7    9 1   
    20    7   13 1   
    21    7   25 1   
    22    8   14 1   
    23    8   26 1   
    24    8   27 1   
    25    9   10 2   
    26    9   11 1   
    27   11   12 1   
    28   11   28 1   
    29   12   13 1   
    30   12   29 1   
    31   12   30 1   
    32   13   31 1   
    33   13   32 1   
    34   14   15 1   
    35   14   33 1   
    36   14   34 1   
    37   15   16 2   
@<TRIPOS>SUBSTRUCTURE
     1 CEV         1 TEMP              0 ****  ****    0 ROOT
