@<TRIPOS>MOLECULE
CEV
   37    37     1     0     0
SMALL
bcc


@<TRIPOS>ATOM
      1 O1          0.1260   -0.0510   -0.0790 os        1 CEV     -0.432900
      2 C3          1.5290   -0.4030   -0.0180 c3        1 CEV      0.140400
      3 C5          1.9770   -0.0740    1.3840 c3        1 CEV     -0.105100
      4 N49        -4.6930    1.2250   -1.8210 n4        1 CEV     -0.847600
      5 C57        -3.9980    0.2390   -2.7150 c3        1 CEV      0.127500
      6 C59        -4.4190    0.4010   -4.1820 c3        1 CEV     -0.094400
      7 C61        -5.8720    0.0720   -4.4480 c3        1 CEV     -0.163700
      8 C63        -2.4770    0.3690   -2.6080 c3        1 CEV     -0.119400
      9 C65        -6.7980    1.2890   -4.2630 c         1 CEV      0.696500
     10 O66        -6.8550    1.9820   -3.2220 o         1 CEV     -0.717500
     11 N69        -7.5410    1.4960   -5.3900 n         1 CEV     -0.530900
     12 C71        -7.2540    0.5330   -6.4350 c3        1 CEV      0.079000
     13 C73        -6.1140   -0.3660   -5.9030 c3        1 CEV     -0.093400
     14 C82        -1.9620    0.0880   -1.2130 c3        1 CEV     -0.153400
     15 C84        -0.5020   -0.2720   -1.2610 c         1 CEV      0.632100
     16 O88         0.1200   -0.7330   -2.2190 o         1 CEV     -0.524000
     17 H3          2.0760    0.1960   -0.7910 h1        1 CEV      0.062200
     18 H3A         1.6290   -1.4940   -0.2520 h1        1 CEV      0.062200
     19 H5          1.3930   -0.6610    2.1330 hc        1 CEV      0.057367
     20 H5A         1.8370    1.0120    1.6000 hc        1 CEV      0.057367
     21 H5B         3.0590   -0.3300    1.4840 hc        1 CEV      0.057367
     22 H57        -4.3090   -0.7870   -2.3500 hx        1 CEV      0.106700
     23 H59        -4.1820    1.4370   -4.5420 hc        1 CEV      0.094200
     24 H59A       -3.7750   -0.3100   -4.7730 hc        1 CEV      0.094200
     25 H61        -6.2250   -0.7340   -3.7480 hc        1 CEV      0.086700
     26 H63        -2.1430    1.3860   -2.9470 hc        1 CEV      0.103700
     27 H63A       -2.0200   -0.3750   -3.3230 hc        1 CEV      0.103700
     28 HN69       -8.2360    2.1960   -5.4830 hn        1 CEV      0.360500
     29 H71        -8.1730   -0.0760   -6.6610 h1        1 CEV      0.074200
     30 H71A       -6.9420    1.0680   -7.3730 h1        1 CEV      0.074200
     31 H73        -6.4120   -1.4410   -5.9490 hc        1 CEV      0.077700
     32 H73A       -5.1980   -0.2320   -6.5290 hc        1 CEV      0.077700
     33 H82        -2.0870    0.9760   -0.5380 hc        1 CEV      0.078700
     34 H82A       -2.5000   -0.7820   -0.7500 hc        1 CEV      0.078700
     35 HN49       -5.7150    1.0570   -1.8400 hn        1 CEV      0.467467
     36 H492       -4.3380    1.1470   -0.8670 hn        1 CEV      0.467467
     37 HN4A       -4.5440    2.1790   -2.1670 hn        1 CEV      0.467467
@<TRIPOS>BOND
     1    1    2 1   
     2    1   15 1   
     3    2    3 1   
     4    2   17 1   
     5    2   18 1   
     6    3   19 1   
     7    3   20 1   
     8    3   21 1   
     9    4    5 1   
    10    4   35 1   
    11    4   36 1   
    12    4   37 1   
    13    5    6 1   
    14    5    8 1   
    15    5   22 1   
    16    6    7 1   
    17    6   23 1   
    18    6   24 1   
    19    7    9 1   
    20    7   13 1   
    21    7   25 1   
    22    8   14 1   
    23    8   26 1   
    24    8   27 1   
    25    9   10 2   
    26    9   11 1   
    27   11   12 1   
    28   11   28 1   
    29   12   13 1   
    30   12   29 1   
    31   12   30 1   
    32   13   31 1   
    33   13   32 1   
    34   14   15 1   
    35   14   33 1   
    36   14   34 1   
    37   15   16 2   
@<TRIPOS>SUBSTRUCTURE
     1 CEV         1 TEMP              0 ****  ****    0 ROOT
