@<TRIPOS>MOLECULE
CEV
   36    36     1     0     0
SMALL
bcc


@<TRIPOS>ATOM
      1 O1          3.4140   -2.4520    0.0940 os        1 CEV     -0.442900
      2 C3          4.8200   -2.3690    0.0870 c3        1 CEV      0.138400
      3 C5          5.4010   -3.7100   -0.3010 c3        1 CEV     -0.100100
      4 N49        -0.9490    0.1860    2.0260 n3        1 CEV     -0.902800
      5 C57        -0.7690    0.1170    0.6150 c3        1 CEV      0.167500
      6 C59        -1.4070    1.3240   -0.0340 c3        1 CEV     -0.108400
      7 C61        -2.8750    1.1040   -0.1560 c3        1 CEV     -0.140700
      8 C63         0.7060    0.0950    0.2960 c3        1 CEV     -0.074400
      9 C65        -3.6310    2.2860    0.5310 c         1 CEV      0.696500
     10 O66        -4.0160    2.3140    1.6820 o         1 CEV     -0.645500
     11 N69        -3.9900    3.2080   -0.4950 n         1 CEV     -0.583900
     12 C71        -3.8340    2.5600   -1.7450 c3        1 CEV      0.091000
     13 C73        -3.2500    1.2140   -1.5080 c3        1 CEV     -0.092400
     14 C82         1.2930   -1.2300    0.7220 c3        1 CEV     -0.119400
     15 C84         2.7750   -1.2440    0.4220 c         1 CEV      0.629100
     16 O88         3.4160   -0.2130    0.4750 o         1 CEV     -0.554000
     17 H3          5.1370   -2.1220    0.9800 h1        1 CEV      0.049700
     18 H3A         5.1040   -1.6910   -0.5600 h1        1 CEV      0.049700
     19 H5          6.3800   -3.6580   -0.2870 hc        1 CEV      0.047700
     20 H5A         5.1010   -4.3930    0.3360 hc        1 CEV      0.047700
     21 H5B         5.0990   -3.9490   -1.2020 hc        1 CEV      0.047700
     22 HN49       -1.5840   -0.4210    2.2830 hn        1 CEV      0.360300
     23 HN4A       -1.2210    1.0300    2.2580 hn        1 CEV      0.360300
     24 H57        -1.1890   -0.6970    0.2730 h1        1 CEV      0.052700
     25 H59        -1.0220    1.4570   -0.9230 hc        1 CEV      0.055700
     26 H59A       -1.2400    2.1160    0.5160 hc        1 CEV      0.055700
     27 H61        -2.9640    0.2230    0.2570 hc        1 CEV      0.083700
     28 H63         1.1540    0.8190    0.7770 hc        1 CEV      0.056200
     29 H63A        0.8340    0.2140   -0.6660 hc        1 CEV      0.056200
     30 HN69       -4.3860    4.0200   -0.3730 hn        1 CEV      0.335500
     31 H71        -3.2340    3.0840   -2.3150 h1        1 CEV      0.043700
     32 H71A       -4.7070    2.4690   -2.1810 h1        1 CEV      0.043700
     33 H73        -3.9140    0.5260   -1.7210 hc        1 CEV      0.059700
     34 H73A       -2.4610    1.0940   -2.0770 hc        1 CEV      0.059700
     35 H82         1.1530   -1.3560    1.6820 hc        1 CEV      0.088200
     36 H82A        0.8540   -1.9540    0.2310 hc        1 CEV      0.088200
@<TRIPOS>BOND
     1    1    2 1   
     2    1   15 1   
     3    2    3 1   
     4    2   17 1   
     5    2   18 1   
     6    3   19 1   
     7    3   20 1   
     8    3   21 1   
     9    4    5 1   
    10    4   22 1   
    11    4   23 1   
    12    5    6 1   
    13    5    8 1   
    14    5   24 1   
    15    6    7 1   
    16    6   25 1   
    17    6   26 1   
    18    7    9 1   
    19    7   13 1   
    20    7   27 1   
    21    8   14 1   
    22    8   28 1   
    23    8   29 1   
    24    9   10 2   
    25    9   11 1   
    26   11   12 1   
    27   11   30 1   
    28   12   13 1   
    29   12   31 1   
    30   12   32 1   
    31   13   33 1   
    32   13   34 1   
    33   14   15 1   
    34   14   35 1   
    35   14   36 1   
    36   15   16 2   
@<TRIPOS>SUBSTRUCTURE
     1 CEV         1 TEMP              0 ****  ****    0 ROOT
