@<TRIPOS>MOLECULE
CEV
   37    37     1     0     0
SMALL
bcc


@<TRIPOS>ATOM
      1 O1          0.1110   -0.0560   -0.0690 os        1 CEV     -0.432900
      2 C3          1.5230   -0.3720   -0.0110 c3        1 CEV      0.140400
      3 C5          1.9520   -0.0890    1.4070 c3        1 CEV     -0.105100
      4 N49        -4.7280    1.1570   -1.8000 n4        1 CEV     -0.847600
      5 C57        -4.0010    0.2230   -2.7240 c3        1 CEV      0.127500
      6 C59        -4.4170    0.4260   -4.1870 c3        1 CEV     -0.094400
      7 C61        -5.8600    0.0680   -4.4750 c3        1 CEV     -0.163700
      8 C63        -2.4850    0.3900   -2.6020 c3        1 CEV     -0.119400
      9 C65        -6.8190    1.2520   -4.2540 c         1 CEV      0.696500
     10 O66        -6.9010    1.9050   -3.1880 o         1 CEV     -0.717500
     11 N69        -7.5600    1.4800   -5.3780 n         1 CEV     -0.530900
     12 C71        -7.2410    0.5630   -6.4540 c3        1 CEV      0.079000
     13 C73        -6.0800   -0.3230   -5.9470 c3        1 CEV     -0.093400
     14 C82        -1.9710    0.0720   -1.2140 c3        1 CEV     -0.153400
     15 C84        -0.5020   -0.2470   -1.2640 c         1 CEV      0.632100
     16 O88         0.1390   -0.6520   -2.2350 o         1 CEV     -0.524000
     17 H3          2.0590    0.2730   -0.7540 h1        1 CEV      0.062200
     18 H3A         1.6550   -1.4500   -0.2890 h1        1 CEV      0.062200
     19 H5          3.0400   -0.3190    1.5050 hc        1 CEV      0.057367
     20 H5A         1.7800    0.9830    1.6660 hc        1 CEV      0.057367
     21 H5B         1.3790   -0.7220    2.1270 hc        1 CEV      0.057367
     22 H57        -4.2870   -0.8240   -2.3980 hx        1 CEV      0.106700
     23 H59        -3.7510   -0.2460   -4.7990 hc        1 CEV      0.094200
     24 H59A       -4.2060    1.4810   -4.5080 hc        1 CEV      0.094200
     25 H61        -6.1940   -0.7710   -3.8070 hc        1 CEV      0.086700
     26 H63        -2.0040   -0.3150   -3.3400 hc        1 CEV      0.103700
     27 H63A       -2.1770    1.4270   -2.9010 hc        1 CEV      0.103700
     28 HN69       -8.2730    2.1640   -5.4500 hn        1 CEV      0.360500
     29 H71        -6.9370    1.1400   -7.3700 h1        1 CEV      0.074200
     30 H71A       -8.1410   -0.0610   -6.7090 h1        1 CEV      0.074200
     31 H73        -5.1640   -0.1430   -6.5610 hc        1 CEV      0.077700
     32 H73A       -6.3490   -1.4040   -6.0330 hc        1 CEV      0.077700
     33 H82        -2.4890   -0.8290   -0.7870 hc        1 CEV      0.078700
     34 H82A       -2.1250    0.9310   -0.5080 hc        1 CEV      0.078700
     35 HN49       -5.7450    0.9620   -1.8330 hn        1 CEV      0.467467
     36 H492       -4.6030    2.1270   -2.1110 hn        1 CEV      0.467467
     37 HN4A       -4.3780    1.0540   -0.8470 hn        1 CEV      0.467467
@<TRIPOS>BOND
     1    1    2 1   
     2    1   15 1   
     3    2    3 1   
     4    2   17 1   
     5    2   18 1   
     6    3   19 1   
     7    3   20 1   
     8    3   21 1   
     9    4    5 1   
    10    4   35 1   
    11    4   36 1   
    12    4   37 1   
    13    5    6 1   
    14    5    8 1   
    15    5   22 1   
    16    6    7 1   
    17    6   23 1   
    18    6   24 1   
    19    7    9 1   
    20    7   13 1   
    21    7   25 1   
    22    8   14 1   
    23    8   26 1   
    24    8   27 1   
    25    9   10 2   
    26    9   11 1   
    27   11   12 1   
    28   11   28 1   
    29   12   13 1   
    30   12   29 1   
    31   12   30 1   
    32   13   31 1   
    33   13   32 1   
    34   14   15 1   
    35   14   33 1   
    36   14   34 1   
    37   15   16 2   
@<TRIPOS>SUBSTRUCTURE
     1 CEV         1 TEMP              0 ****  ****    0 ROOT
