@<TRIPOS>MOLECULE
CEV
   36    36     1     0     0
SMALL
bcc


@<TRIPOS>ATOM
      1 O1          4.0460   -0.2870   -0.3160 os        1 CEV     -0.445900
      2 C3          5.1450    0.4120   -0.9270 c3        1 CEV      0.138400
      3 C5          6.3850   -0.3860   -0.6080 c3        1 CEV     -0.100100
      4 N49        -0.4460   -1.2960    2.2240 n3        1 CEV     -0.901800
      5 C57        -0.6500   -0.5520    0.9950 c3        1 CEV      0.152500
      6 C59        -1.8910    0.3530    1.0990 c3        1 CEV     -0.061400
      7 C61        -2.4840    0.6900   -0.2540 c3        1 CEV     -0.139700
      8 C63         0.5550    0.3010    0.5590 c3        1 CEV     -0.119400
      9 C65        -3.1350   -0.5260   -0.9300 c         1 CEV      0.701500
     10 O66        -2.5640   -1.5690   -1.2830 o         1 CEV     -0.634500
     11 N69        -4.4840   -0.2810   -1.1260 n         1 CEV     -0.586900
     12 C71        -4.8810    1.0390   -0.7040 c3        1 CEV      0.093000
     13 C73        -3.6190    1.7190   -0.1300 c3        1 CEV     -0.094400
     14 C82         1.7240   -0.5660    0.1480 c3        1 CEV     -0.129400
     15 C84         2.8030    0.2540   -0.4900 c         1 CEV      0.632100
     16 O88         2.7060    1.3020   -1.1330 o         1 CEV     -0.546000
     17 H3          4.9600    0.4770   -2.0310 h1        1 CEV      0.051200
     18 H3A         5.1910    1.4480   -0.5020 h1        1 CEV      0.051200
     19 H5          6.5330   -0.4570    0.4960 hc        1 CEV      0.047700
     20 H5A         6.3020   -1.4210   -1.0180 hc        1 CEV      0.047700
     21 H5B         7.2700    0.1190   -1.0640 hc        1 CEV      0.047700
     22 HN4A       -0.2420   -0.6790    2.9860 hn        1 CEV      0.345800
     23 H57        -0.8520   -1.3200    0.1840 h1        1 CEV      0.097700
     24 H59        -2.6760   -0.1500    1.7240 hc        1 CEV      0.055200
     25 H59A       -1.6080    1.3090    1.6150 hc        1 CEV      0.055200
     26 H61        -1.6870    1.0700   -0.9460 hc        1 CEV      0.085700
     27 H63         0.2600    0.9470   -0.3090 hc        1 CEV      0.057700
     28 H63A        0.8640    0.9880    1.3900 hc        1 CEV      0.057700
     29 HN69       -5.0960   -0.8940   -1.5960 hn        1 CEV      0.332500
     30 H71        -5.2890    1.6250   -1.5730 h1        1 CEV      0.041700
     31 H71A       -5.6870    0.9690    0.0770 h1        1 CEV      0.041700
     32 H73        -3.7890    2.0110    0.9350 hc        1 CEV      0.058200
     33 H73A       -3.3780    2.6430   -0.7090 hc        1 CEV      0.058200
     34 H82         2.1530   -1.1140    1.0280 hc        1 CEV      0.080700
     35 H82A        1.3960   -1.3330   -0.6060 hc        1 CEV      0.080700
     36 HN49        0.3110   -1.9410    2.1140 hn        1 CEV      0.345800
@<TRIPOS>BOND
     1    1    2 1   
     2    1   15 1   
     3    2    3 1   
     4    2   17 1   
     5    2   18 1   
     6    3   19 1   
     7    3   20 1   
     8    3   21 1   
     9    4    5 1   
    10    4   22 1   
    11    4   36 1   
    12    5    6 1   
    13    5    8 1   
    14    5   23 1   
    15    6    7 1   
    16    6   24 1   
    17    6   25 1   
    18    7    9 1   
    19    7   13 1   
    20    7   26 1   
    21    8   14 1   
    22    8   27 1   
    23    8   28 1   
    24    9   10 2   
    25    9   11 1   
    26   11   12 1   
    27   11   29 1   
    28   12   13 1   
    29   12   30 1   
    30   12   31 1   
    31   13   32 1   
    32   13   33 1   
    33   14   15 1   
    34   14   34 1   
    35   14   35 1   
    36   15   16 2   
@<TRIPOS>SUBSTRUCTURE
     1 CEV         1 TEMP              0 ****  ****    0 ROOT
