@<TRIPOS>MOLECULE
CEW
   46    47     1     0     0
SMALL
bcc


@<TRIPOS>ATOM
      1 S1          1.4510   -2.2350    0.5000 ss        1 CEW     -0.278200
      2 C2          1.3500   -0.5010    0.8770 c3        1 CEW      0.016900
      3 C3         -0.0370   -0.0880    1.1930 c2        1 CEW     -0.000400
      4 C3'        -0.5300    1.1660    0.5910 c3        1 CEW     -0.076900
      5 C4         -0.7940   -0.8830    2.0170 ce        1 CEW     -0.064200
      6 C4'        -2.2020   -0.5340    2.2860 c         1 CEW      0.670300
      7 O4A        -3.0730   -1.3730    2.9250 oh        1 CEW     -0.645100
      8 O4B        -2.7880    0.5090    1.9500 o         1 CEW     -0.573000
      9 N5         -0.1960   -2.0070    2.6350 nh        1 CEW     -0.702000
     10 C6          0.4040   -2.9870    1.7640 c3        1 CEW      0.258600
     11 C7         -0.5560   -3.9650    1.0180 c3        1 CEW     -0.053300
     12 C8         -1.3880   -4.7540    2.0360 c         1 CEW      0.612900
     13 O9         -2.0020   -4.2050    2.9510 o         1 CEW     -0.563100
     14 N10        -1.3670   -3.2790    0.0380 n         1 CEW     -0.539900
     15 C11        -2.6710   -3.6140   -0.2140 c         1 CEW      0.599800
     16 O12        -3.2850   -4.4700    0.4580 o         1 CEW     -0.610100
     17 C13        -3.3880   -2.8280   -1.2970 ce        1 CEW      0.359600
     18 N16        -2.9400   -2.9710   -2.5190 n2        1 CEW     -0.351200
     19 O17        -3.5540   -2.3400   -3.4810 os        1 CEW     -0.179300
     20 C18        -3.0560   -2.6480   -4.8160 c3        1 CEW      0.128700
     21 C14        -4.5160   -2.0160   -0.8240 ce        1 CEW      0.023400
     22 C15        -5.1730   -1.0620   -1.5470 c2        1 CEW     -0.135400
     23 S16        -6.4150   -0.3030   -0.6810 ss        1 CEW     -0.088700
     24 C17        -6.0000   -1.2240    0.8460 c3        1 CEW      0.464800
     25 N18        -5.5130   -0.2080    1.8940 n4        1 CEW     -0.888600
     26 N19        -4.9780   -2.1650    0.5070 nh        1 CEW     -0.766000
     27 H2          2.0180   -0.2650    1.7470 h1        1 CEW      0.111200
     28 H2A         1.7550    0.0240   -0.0260 h1        1 CEW      0.111200
     29 H3'         0.2460    1.6460   -0.0530 hc        1 CEW      0.070700
     30 H3'A       -1.4440    0.9750   -0.0280 hc        1 CEW      0.070700
     31 H3'B       -0.8240    1.8880    1.3980 hc        1 CEW      0.070700
     32 HN5        -0.7530   -2.4260    3.3570 hn        1 CEW      0.415800
     33 H6          1.0710   -3.6250    2.4150 h2        1 CEW      0.115700
     34 H7          0.1100   -4.7090    0.4760 h1        1 CEW      0.091700
     35 H8         -1.3820   -5.8550    1.8940 h4        1 CEW      0.051200
     36 HN10       -2.6990   -2.2420    3.1390 ho        1 CEW      0.480000
     37 H18        -3.2010   -3.7300   -5.0430 h1        1 CEW      0.069367
     38 H18A       -1.9840   -2.3540   -4.9080 h1        1 CEW      0.069367
     39 H18B       -3.7140   -2.0040   -5.4510 h1        1 CEW      0.069367
     40 H15        -4.9610   -0.7940   -2.5860 h4        1 CEW      0.221000
     41 H17        -6.9110   -1.7040    1.3100 hx        1 CEW      0.131700
     42 HN18       -5.0610   -0.6820    2.6900 hn        1 CEW      0.462133
     43 HN1A       -6.3040    0.3420    2.2240 hn        1 CEW      0.462133
     44 HN19       -4.9680   -3.0730    0.9260 hn        1 CEW      0.492800
     45 H102       -0.8610   -2.6890   -0.5920 hn        1 CEW      0.352500
     46 H183       -4.8040    0.4230    1.4850 hn        1 CEW      0.462133
@<TRIPOS>BOND
     1    1    2 1   
     2    1   10 1   
     3    2    3 1   
     4    2   27 1   
     5    2   28 1   
     6    3    4 1   
     7    3    5 2   
     8    4   29 1   
     9    4   30 1   
    10    4   31 1   
    11    5    6 1   
    12    5    9 1   
    13    6    7 1   
    14    6    8 2   
    15    7   36 1   
    16    9   10 1   
    17    9   32 1   
    18   10   11 1   
    19   10   33 1   
    20   11   12 1   
    21   11   14 1   
    22   11   34 1   
    23   12   13 2   
    24   12   35 1   
    25   14   15 1   
    26   14   45 1   
    27   15   16 2   
    28   15   17 1   
    29   17   18 2   
    30   17   21 1   
    31   18   19 1   
    32   19   20 1   
    33   20   37 1   
    34   20   38 1   
    35   20   39 1   
    36   21   22 2   
    37   21   26 1   
    38   22   23 1   
    39   22   40 1   
    40   23   24 1   
    41   24   25 1   
    42   24   26 1   
    43   24   41 1   
    44   25   42 1   
    45   25   43 1   
    46   25   46 1   
    47   26   44 1   
@<TRIPOS>SUBSTRUCTURE
     1 CEW         1 TEMP              0 ****  ****    0 ROOT
