@<TRIPOS>MOLECULE
CEW
   46    47     1     0     0
SMALL
bcc


@<TRIPOS>ATOM
      1 S1          1.4720   -2.1080    0.5590 ss        1 CEW     -0.288200
      2 C2          1.2440   -0.3930    0.9650 c3        1 CEW      0.021900
      3 C3         -0.1720   -0.0740    1.2600 c2        1 CEW     -0.008400
      4 C3'        -0.7270    1.1720    0.6980 c3        1 CEW     -0.075900
      5 C4         -0.8980   -0.9420    2.0350 ce        1 CEW     -0.063200
      6 C4'        -2.3300   -0.6890    2.2850 c         1 CEW      0.664300
      7 O4A        -3.2090   -1.6940    2.5890 oh        1 CEW     -0.654100
      8 O4B        -2.9280    0.3950    2.1960 o         1 CEW     -0.570000
      9 N5         -0.2610   -2.0470    2.6400 nh        1 CEW     -0.709000
     10 C6          0.4420   -2.9580    1.7750 c3        1 CEW      0.259600
     11 C7         -0.4010   -4.0030    0.9810 c3        1 CEW     -0.056300
     12 C8         -1.2050   -4.8890    1.9420 c         1 CEW      0.601900
     13 O9         -1.6690   -4.4690    3.0000 o         1 CEW     -0.534100
     14 N10        -1.2090   -3.4100   -0.0610 n         1 CEW     -0.525900
     15 C11        -2.5760   -3.4060   -0.0520 c         1 CEW      0.596800
     16 O12        -3.2180   -3.9100    0.9000 o         1 CEW     -0.645100
     17 C13        -3.3050   -2.7450   -1.2040 ce        1 CEW      0.354600
     18 N16        -2.9060   -3.0410   -2.4180 n2        1 CEW     -0.346200
     19 O17        -3.5380   -2.4960   -3.4180 os        1 CEW     -0.169300
     20 C18        -3.1280   -2.9860   -4.7300 c3        1 CEW      0.126700
     21 C14        -4.4020   -1.8380   -0.8300 ce        1 CEW      0.014400
     22 C15        -4.7360   -0.7020   -1.5140 c2        1 CEW     -0.147400
     23 S16        -6.0220    0.1400   -0.8080 ss        1 CEW     -0.069700
     24 C17        -6.0670   -1.0000    0.6240 c3        1 CEW      0.465800
     25 N18        -5.6250   -0.2080    1.8760 n4        1 CEW     -0.910600
     26 N19        -5.2440   -2.1110    0.2700 nh        1 CEW     -0.729000
     27 H2          1.8760   -0.1320    1.8550 h1        1 CEW      0.110700
     28 H2A         1.6330    0.1760    0.0830 h1        1 CEW      0.110700
     29 H3'        -1.6990    0.9810    0.1760 hc        1 CEW      0.068367
     30 H3'A       -0.0200    1.6490   -0.0240 hc        1 CEW      0.068367
     31 H3'B       -0.9340    1.8970    1.5300 hc        1 CEW      0.068367
     32 HN5        -0.8120   -2.5130    3.3380 hn        1 CEW      0.428800
     33 H6          1.1330   -3.5530    2.4430 h2        1 CEW      0.117700
     34 H7          0.3550   -4.6790    0.4670 h1        1 CEW      0.099700
     35 H8         -1.3150   -5.9440    1.6130 h4        1 CEW      0.044200
     36 HN10       -0.6980   -2.9820   -0.8040 hn        1 CEW      0.356500
     37 H18        -3.7840   -2.3810   -5.4040 h1        1 CEW      0.070367
     38 H18A       -2.0480   -2.7690   -4.9060 h1        1 CEW      0.070367
     39 H18B       -3.3440   -4.0760   -4.8190 h1        1 CEW      0.070367
     40 H15        -4.2620   -0.3610   -2.4380 h4        1 CEW      0.215000
     41 H17        -7.1150   -1.3470    0.8590 hx        1 CEW      0.141700
     42 HN18       -4.9440    0.5220    1.6120 hn        1 CEW      0.457800
     43 HN1A       -6.4340    0.2330    2.3130 hn        1 CEW      0.457800
     44 HN19       -4.9810   -2.8020    0.9460 hn        1 CEW      0.492800
     45 H102       -2.7990   -2.5770    2.6290 ho        1 CEW      0.488000
     46 H183       -5.1590   -0.8140    2.5660 hn        1 CEW      0.457800
@<TRIPOS>BOND
     1    1    2 1   
     2    1   10 1   
     3    2    3 1   
     4    2   27 1   
     5    2   28 1   
     6    3    4 1   
     7    3    5 2   
     8    4   29 1   
     9    4   30 1   
    10    4   31 1   
    11    5    6 1   
    12    5    9 1   
    13    6    7 1   
    14    6    8 2   
    15    7   45 1   
    16    9   10 1   
    17    9   32 1   
    18   10   11 1   
    19   10   33 1   
    20   11   12 1   
    21   11   14 1   
    22   11   34 1   
    23   12   13 2   
    24   12   35 1   
    25   14   15 1   
    26   14   36 1   
    27   15   16 2   
    28   15   17 1   
    29   17   18 2   
    30   17   21 1   
    31   18   19 1   
    32   19   20 1   
    33   20   37 1   
    34   20   38 1   
    35   20   39 1   
    36   21   22 2   
    37   21   26 1   
    38   22   23 1   
    39   22   40 1   
    40   23   24 1   
    41   24   25 1   
    42   24   26 1   
    43   24   41 1   
    44   25   42 1   
    45   25   43 1   
    46   25   46 1   
    47   26   44 1   
@<TRIPOS>SUBSTRUCTURE
     1 CEW         1 TEMP              0 ****  ****    0 ROOT
