@<TRIPOS>MOLECULE
CEW
   44    42     1     0     0
SMALL
bcc


@<TRIPOS>ATOM
      1 S1          1.7120   -3.4210   -1.1140 ss        1 CEW     -0.020000
      2 C2          1.8380   -3.8950   -0.9140 c3        1 CEW     -0.193000
      3 C3          2.5730   -3.6020    0.5490 c2        1 CEW     -0.147000
      4 C3'         4.1010   -3.8190    0.7130 c3        1 CEW     -0.169000
      5 C4          1.7290   -2.2740    1.4730 c1        1 CEW     -0.064000
      6 C4'         2.2950   -1.7840    2.7700 c1        1 CEW      0.362000
      7 O4A         3.0750   -0.7960    2.7840 o         1 CEW     -0.573500
      8 O4B         1.9310   -2.3170    3.8570 o         1 CEW     -0.573500
      9 N5          1.2870   -2.3250    1.4270 n3        1 CEW     -0.254000
     10 C6          0.7560   -2.3820   -0.0470 c3        1 CEW     -0.087000
     11 C7          0.7490   -1.0290   -0.5950 c3        1 CEW     -0.070000
     12 C8          0.9330   -1.0940   -2.1140 c2        1 CEW      0.193000
     13 O9          0.1120   -1.7220   -2.8160 o         1 CEW     -0.303000
     14 N10        -0.5340   -0.3770   -0.2840 n         1 CEW     -0.347000
     15 C11        -1.1070    0.5960   -1.2310 c2        1 CEW      0.325000
     16 O12        -0.8370    0.5250   -2.4070 o         1 CEW     -0.385000
     17 C13        -1.9760    1.7220   -0.7240 c2        1 CEW     -0.033000
     18 N16        -3.2440    1.5560   -0.6160 n1        1 CEW     -0.005000
     19 O17        -3.8160    0.3500   -0.9610 o         1 CEW     -0.211000
     20 C18        -5.2350    0.5150   -1.1370 c3        1 CEW     -0.054000
     21 C14        -1.3360    3.0820   -0.3340 c2        1 CEW     -0.020000
     22 C15        -0.9650    4.0240   -1.3610 c1        1 CEW     -0.317000
     23 S16        -0.7240    5.4680   -0.7870 s         1 CEW     -0.029000
     24 C17        -0.9870    5.2490    0.8470 c3        1 CEW      0.072000
     25 N18         0.1320    5.2660    1.4910 n3        1 CEW     -0.375000
     26 N19        -1.7060    3.7350    0.9430 n3        1 CEW     -0.232000
     27 H2          2.2870   -4.5150   -1.5110 h1        1 CEW      0.102500
     28 H2A         1.0160   -4.3770   -0.7490 h1        1 CEW      0.102500
     29 H3'         4.5690   -3.0010    0.4950 hc        1 CEW      0.083667
     30 H3'A        4.3970   -4.5350    0.1090 hc        1 CEW      0.083667
     31 H3'B        4.3000   -4.0740    1.6480 hc        1 CEW      0.083667
     32 HN5         0.7120   -2.0850    2.1240 hn        1 CEW      0.204000
     33 H6         -0.1500   -2.7130   -0.0310 h2        1 CEW      0.147000
     34 H7          1.4770   -0.5170   -0.2030 h1        1 CEW      0.123000
     35 H8          1.7410   -0.7090   -2.5270 h4        1 CEW      0.119000
     36 HN10       -1.0400   -0.6620    0.4670 hn        1 CEW      0.282000
     37 H18        -5.6200   -0.3210   -1.4360 h1        1 CEW      0.082000
     38 H18A       -5.6300    0.7690   -0.3120 h1        1 CEW      0.082000
     39 H18B       -5.4040    1.2180   -1.8130 h1        1 CEW      0.082000
     40 H15        -0.4550    3.7150   -2.1540 ha        1 CEW      0.171000
     41 H17        -1.5770    5.9220    1.1850 h3        1 CEW      0.119000
     42 HN18        0.6300    5.9780    1.2140 hn        1 CEW      0.206000
     43 HN1A       -0.0320    5.3390    2.3820 hn        1 CEW      0.206000
     44 HN19       -1.9750    3.3170    1.7020 hn        1 CEW      0.229000
@<TRIPOS>BOND
     1    1    2 1   
     2    1   10 1   
     3    2    3 1   
     4    2   27 1   
     5    2   28 1   
     6    3    4 1   
     7    3    5 1   
     8    4   29 1   
     9    4   30 1   
    10    4   31 1   
    11    5    9 1   
    12    6    7 1   
    13    6    8 1   
    14    9   10 1   
    15    9   32 1   
    16   10   11 1   
    17   10   33 1   
    18   11   12 1   
    19   11   14 1   
    20   11   34 1   
    21   12   13 1   
    22   12   35 1   
    23   14   15 1   
    24   14   36 1   
    25   15   16 1   
    26   15   17 1   
    27   17   18 1   
    28   17   21 1   
    29   19   20 1   
    30   20   37 1   
    31   20   38 1   
    32   20   39 1   
    33   21   22 1   
    34   21   26 1   
    35   22   40 1   
    36   23   24 1   
    37   24   25 1   
    38   24   26 1   
    39   24   41 1   
    40   25   42 1   
    41   25   43 1   
    42   26   44 1   
@<TRIPOS>SUBSTRUCTURE
     1 CEW         1 TEMP              0 ****  ****    0 ROOT
