@<TRIPOS>MOLECULE
CEW
   46    47     1     0     0
SMALL
bcc


@<TRIPOS>ATOM
      1 S1          1.2890   -2.4660    0.5550 ss        1 CEW     -0.325200
      2 C2          1.4820   -0.7160    0.8950 c3        1 CEW      0.044900
      3 C3          0.1680   -0.1160    1.2300 c2        1 CEW     -0.073400
      4 C3'        -0.1550    1.1720    0.5850 c3        1 CEW     -0.077900
      5 C4         -0.6590   -0.7870    2.0770 ce        1 CEW     -0.066200
      6 C4'        -2.1260   -0.4920    2.2430 c         1 CEW      0.905800
      7 O4A        -2.8810   -1.5430    2.2800 o         1 CEW     -0.850800
      8 O4B        -2.6610    0.6410    2.2500 o         1 CEW     -0.850800
      9 N5         -0.1760   -1.9410    2.7660 nu        1 CEW     -0.680000
     10 C6          0.2400   -3.0280    1.9170 c3        1 CEW      0.256600
     11 C7         -0.9030   -3.8750    1.2680 c3        1 CEW     -0.038500
     12 C8         -1.8310   -4.4000    2.3640 c         1 CEW      0.583900
     13 O9         -3.0530   -4.3320    2.2780 o         1 CEW     -0.489100
     14 N10        -1.6230   -3.0670    0.2370 ny        1 CEW     -0.685800
     15 C11        -2.6340   -3.8120   -0.5710 c         1 CEW      0.486800
     16 O12        -2.6930   -5.0270   -0.5030 o         1 CEW     -0.380100
     17 C13        -3.4780   -2.9140   -1.4330 ce        1 CEW      0.341600
     18 N16        -3.1940   -3.0120   -2.7140 n2        1 CEW     -0.335200
     19 O17        -3.8870   -2.3150   -3.5590 os        1 CEW     -0.158300
     20 C18        -3.5500   -2.5530   -4.9630 c3        1 CEW      0.126700
     21 C14        -4.5030   -2.0990   -0.7770 ce        1 CEW     -0.041600
     22 C15        -5.1690   -1.0790   -1.4010 c2        1 CEW     -0.110400
     23 S16        -6.3300   -0.3420   -0.4320 ss        1 CEW     -0.073700
     24 C17        -5.8350   -1.3370    1.0300 c3        1 CEW      0.453800
     25 N18        -5.2670   -0.4040    2.0870 nz        1 CEW     -0.897600
     26 N19        -4.9700   -2.3880    0.5340 nu        1 CEW     -0.698000
     27 H2          1.9270   -0.2800   -0.0330 h1        1 CEW      0.111700
     28 H2A         2.2060   -0.5810    1.7390 h1        1 CEW      0.111700
     29 H3'         0.5820    1.9450    0.9250 hc        1 CEW      0.069033
     30 H3'A       -1.1800    1.5310    0.8560 hc        1 CEW      0.069033
     31 H3'B       -0.0790    1.0850   -0.5280 hc        1 CEW      0.069033
     32 HN5        -0.8280   -2.2420    3.4720 hn        1 CEW      0.413800
     33 H6          0.8420   -3.7430    2.5480 h2        1 CEW      0.128700
     34 H7         -0.4430   -4.7730    0.7530 hx        1 CEW      0.138700
     35 H8         -1.2920   -4.8580    3.2190 h4        1 CEW      0.059200
     36 HN10       -2.1330   -2.3000    0.7400 hn        1 CEW      0.494300
     37 H18        -3.7440   -3.6180   -5.2300 h1        1 CEW      0.076033
     38 H18A       -4.2670   -1.8630   -5.4740 h1        1 CEW      0.076033
     39 H18B       -2.4900   -2.2670   -5.1590 h1        1 CEW      0.076033
     40 H15        -5.0120   -0.7520   -2.4340 h4        1 CEW      0.215000
     41 H17        -6.7390   -1.8250    1.5040 hx        1 CEW      0.142700
     42 HN18       -6.0200    0.1100    2.5400 hn        1 CEW      0.472467
     43 HN1A       -4.7210   -0.9400    2.7930 hn        1 CEW      0.472467
     44 HN19       -4.3280   -2.7980    1.1910 hn        1 CEW      0.469800
     45 H102       -0.9000   -2.6470   -0.3830 hn        1 CEW      0.494300
     46 H183       -4.5830    0.2660    1.6810 hn        1 CEW      0.472467
@<TRIPOS>BOND
     1    1    2 1   
     2    1   10 1   
     3    2    3 1   
     4    2   27 1   
     5    2   28 1   
     6    3    4 1   
     7    3    5 2   
     8    4   29 1   
     9    4   30 1   
    10    4   31 1   
    11    5    6 1   
    12    5    9 1   
    13    6    7 1   
    14    6    8 1   
    15    9   10 1   
    16    9   32 1   
    17   10   11 1   
    18   10   33 1   
    19   11   12 1   
    20   11   14 1   
    21   11   34 1   
    22   12   13 2   
    23   12   35 1   
    24   14   15 1   
    25   14   36 1   
    26   14   45 1   
    27   15   16 2   
    28   15   17 1   
    29   17   18 2   
    30   17   21 1   
    31   18   19 1   
    32   19   20 1   
    33   20   37 1   
    34   20   38 1   
    35   20   39 1   
    36   21   22 2   
    37   21   26 1   
    38   22   23 1   
    39   22   40 1   
    40   23   24 1   
    41   24   25 1   
    42   24   26 1   
    43   24   41 1   
    44   25   42 1   
    45   25   43 1   
    46   25   46 1   
    47   26   44 1   
@<TRIPOS>SUBSTRUCTURE
     1 CEW         1 TEMP              0 ****  ****    0 ROOT
