@<TRIPOS>MOLECULE
CEW
   44    45     1     0     0
SMALL
bcc


@<TRIPOS>ATOM
      1 S1         -2.3750   -1.8400   -0.6860 ss        1 CEW     -0.394200
      2 C2         -4.1500   -1.9800   -0.6240 c3        1 CEW      0.082900
      3 C3         -4.8240   -0.7500   -0.1570 c2        1 CEW     -0.194400
      4 C3'        -6.0080   -0.9660    0.7020 c3        1 CEW     -0.038900
      5 C4         -4.3720    0.4810   -0.5070 ce        1 CEW     -0.004200
      6 C4'        -4.9960    1.7980    0.0090 c         1 CEW      0.912800
      7 O4A        -6.2340    1.9730   -0.0690 o         1 CEW     -0.813300
      8 O4B        -4.1630    2.6310    0.4780 o         1 CEW     -0.813300
      9 N5         -3.2670    0.6560   -1.3760 nh        1 CEW     -0.694000
     10 C6         -2.0750   -0.1170   -1.1290 c3        1 CEW      0.288600
     11 C7         -1.0750    0.5010   -0.0950 c3        1 CEW     -0.055300
     12 C8         -1.7570    0.7250    1.2560 c         1 CEW      0.550900
     13 O9         -1.3180    0.2650    2.3110 o         1 CEW     -0.552100
     14 N10         0.1390   -0.2780    0.0010 n         1 CEW     -0.514900
     15 C11         1.2960    0.0750   -0.6290 c         1 CEW      0.596800
     16 O12         1.4020    1.0940   -1.3470 o         1 CEW     -0.639100
     17 C13         2.5160   -0.8060   -0.3940 ce        1 CEW      0.389600
     18 N16         2.3800   -2.0990   -0.5140 n2        1 CEW     -0.396200
     19 O17         3.4520   -2.8410   -0.3340 os        1 CEW     -0.173300
     20 C18         3.2220   -4.2530   -0.5530 c3        1 CEW      0.129700
     21 C14         3.7380   -0.0540   -0.0520 ce        1 CEW     -0.026600
     22 C15         4.4510   -0.2430    1.0930 c2        1 CEW     -0.127400
     23 S16         5.7370    0.8400    1.2640 ss        1 CEW     -0.241700
     24 C17         5.2850    1.7400   -0.3130 c3        1 CEW      0.519800
     25 N18         5.0480    3.1300   -0.0270 n3        1 CEW     -0.933800
     26 N19         4.2400    0.9180   -0.9470 nh        1 CEW     -0.728000
     27 H2         -4.5090   -2.2450   -1.6500 h1        1 CEW      0.060700
     28 H2A        -4.3520   -2.8420    0.0580 h1        1 CEW      0.060700
     29 H3'        -5.6970   -1.3990    1.6860 hc        1 CEW      0.039700
     30 H3'A       -6.5550   -0.0050    0.8850 hc        1 CEW      0.039700
     31 H3'B       -6.7110   -1.6850    0.2120 hc        1 CEW      0.039700
     32 HN5        -3.0410    1.6370   -1.4490 hn        1 CEW      0.405800
     33 H6         -1.5260   -0.1640   -2.1160 h2        1 CEW      0.079700
     34 H7         -0.7970    1.5340   -0.4800 h1        1 CEW      0.103700
     35 H8         -2.6690    1.3750    1.2020 h4        1 CEW      0.105200
     36 HN10        0.0850   -1.1090    0.5470 hn        1 CEW      0.344500
     37 H18         2.4560   -4.6450    0.1560 h1        1 CEW      0.049367
     38 H18A        2.9170   -4.4430   -1.6090 h1        1 CEW      0.049367
     39 H18B        4.2300   -4.6880   -0.3410 h1        1 CEW      0.049367
     40 H15         4.2370   -1.0010    1.8450 h4        1 CEW      0.177000
     41 H17         6.1930    1.6750   -0.9800 h3        1 CEW      0.098700
     42 HN18        4.8770    3.6640   -0.8550 hn        1 CEW      0.368300
     43 HN1A        4.3090    3.2700    0.6330 hn        1 CEW      0.368300
     44 HN19        3.5270    1.4190   -1.4470 hn        1 CEW      0.429800
@<TRIPOS>BOND
     1    1    2 1   
     2    1   10 1   
     3    2    3 1   
     4    2   27 1   
     5    2   28 1   
     6    3    4 1   
     7    3    5 2   
     8    4   29 1   
     9    4   30 1   
    10    4   31 1   
    11    5    6 1   
    12    5    9 1   
    13    6    7 1   
    14    6    8 1   
    15    9   10 1   
    16    9   32 1   
    17   10   11 1   
    18   10   33 1   
    19   11   12 1   
    20   11   14 1   
    21   11   34 1   
    22   12   13 2   
    23   12   35 1   
    24   14   15 1   
    25   14   36 1   
    26   15   16 2   
    27   15   17 1   
    28   17   18 2   
    29   17   21 1   
    30   18   19 1   
    31   19   20 1   
    32   20   37 1   
    33   20   38 1   
    34   20   39 1   
    35   21   22 2   
    36   21   26 1   
    37   22   23 1   
    38   22   40 1   
    39   23   24 1   
    40   24   25 1   
    41   24   26 1   
    42   24   41 1   
    43   25   42 1   
    44   25   43 1   
    45   26   44 1   
@<TRIPOS>SUBSTRUCTURE
     1 CEW         1 TEMP              0 ****  ****    0 ROOT
