@<TRIPOS>MOLECULE
CEZ
   45    43     1     0     0
SMALL
bcc


@<TRIPOS>ATOM
      1 O1         -0.2010   -0.5340   -0.5740 os        1 CEZ     -0.329000
      2 C1         -0.7890   -1.6010    0.2100 c3        1 CEZ      0.285000
      3 C2         -2.2220   -1.5550    0.0170 c2        1 CEZ     -0.623000
      4 O2         -2.9890   -0.9190    0.9590 oh        1 CEZ     -0.244000
      5 O5         -0.1040   -2.7610   -0.2560 os        1 CEZ     -0.358000
      6 C5         -0.6320   -3.4570   -1.3810 c3        1 CEZ      0.023000
      7 C4         -1.8210   -2.7650   -2.0510 c3        1 CEZ     -0.009000
      8 O4         -2.3480   -3.6620   -3.0230 oh        1 CEZ     -0.356000
      9 C3         -2.8760   -2.3890   -0.9900 c3        1 CEZ      0.139000
     10 O3         -3.9680   -1.7530   -1.6550 oh        1 CEZ     -0.392000
     11 C6          0.5150   -3.6230   -2.3840 c3        1 CEZ     -0.032000
     12 O6          1.6460   -4.2370   -1.7940 oh        1 CEZ     -0.347000
     13 C11         0.8390    3.0620   -2.2950 c2        1 CEZ      0.356000
     14 O11        -0.2190    3.8560   -2.6430 oh        1 CEZ     -0.301000
     15 C21         0.5800    1.8230   -1.5880 c2        1 CEZ     -0.383000
     16 O21        -2.5930    1.0950   -1.1660 oh        1 CEZ     -0.438500
     17 C31         1.5250    0.9210   -1.2400 c2        1 CEZ      0.155000
     18 O31         2.8650    1.0430   -1.4740 oh        1 CEZ     -0.279000
     19 C41         1.2070   -0.3840   -0.5290 c3        1 CEZ      0.113000
     20 C51         1.7910   -0.3430    0.8490 c2        1 CEZ     -0.244000
     21 O51         4.7520    0.6740    1.1000 oh        1 CEZ     -0.438500
     22 C61         2.1040   -1.4720    1.5050 c2        1 CEZ     -0.036000
     23 O61         2.7320   -1.3730    2.7320 oh        1 CEZ     -0.283000
     24 H1         -2.1440    0.2570   -1.3640 ho        1 CEZ      0.215750
     25 H2         -0.4540   -1.4860    1.2820 h2        1 CEZ      0.076000
     26 H3         -3.1630   -1.5640    1.6680 ho        1 CEZ      0.110000
     27 H4         -3.3310   -3.3360   -0.5710 h1        1 CEZ      0.049000
     28 H5         -0.9480   -4.4690   -0.9980 h1        1 CEZ      0.093000
     29 H6         -1.4760   -1.8300   -2.5750 h1        1 CEZ      0.093000
     30 H7         -3.2680   -3.3990   -3.1530 ho        1 CEZ      0.215000
     31 H8         -3.9430   -0.8170   -1.4190 ho        1 CEZ      0.221000
     32 H9          0.8090   -2.6230   -2.8010 h1        1 CEZ      0.087500
     33 H10         0.1970   -4.3080   -3.2130 h1        1 CEZ      0.087500
     34 H11         1.8120   -3.7710   -0.9640 ho        1 CEZ      0.203000
     35 H13        -0.4760    1.6030   -1.3270 ha        1 CEZ      0.210000
     36 H14        -1.0470    3.4320   -2.3640 ho        1 CEZ      0.244000
     37 H15        -2.8360    0.9750   -0.2420 ho        1 CEZ      0.215750
     38 H16         3.0390    1.8820   -1.9400 ho        1 CEZ      0.256000
     39 H17         1.9700    0.6480    1.2890 ha        1 CEZ      0.142000
     40 H18         1.6780   -1.2300   -1.1150 h1        1 CEZ      0.096000
     41 H19         4.2060    0.7390    0.3070 ho        1 CEZ      0.215750
     42 H20         4.2290    0.1130    1.6830 ho        1 CEZ      0.215750
     43 H21         1.8960   -2.4840    1.1220 h4        1 CEZ      0.150000
     44 H22         2.6740   -2.2430    3.1490 ho        1 CEZ      0.212000
     45 O12         1.9340    3.5300   -2.6480 o         1 CEZ     -0.388000
@<TRIPOS>BOND
     1    1    2 1   
     2    1   19 1   
     3    2    3 1   
     4    2    5 1   
     5    2   25 1   
     6    3    4 1   
     7    3    9 1   
     8    4   26 1   
     9    5    6 1   
    10    6    7 1   
    11    6   11 1   
    12    6   28 1   
    13    7    8 1   
    14    7    9 1   
    15    7   29 1   
    16    8   30 1   
    17    9   10 1   
    18    9   27 1   
    19   10   31 1   
    20   11   12 1   
    21   11   32 1   
    22   11   33 1   
    23   12   34 1   
    24   13   14 1   
    25   13   15 1   
    26   13   45 1   
    27   14   36 1   
    28   15   17 1   
    29   15   35 1   
    30   16   24 1   
    31   16   37 1   
    32   17   18 1   
    33   17   19 1   
    34   18   38 1   
    35   19   20 1   
    36   19   40 1   
    37   20   22 1   
    38   20   39 1   
    39   21   41 1   
    40   21   42 1   
    41   22   23 1   
    42   22   43 1   
    43   23   44 1   
@<TRIPOS>SUBSTRUCTURE
     1 CEZ         1 TEMP              0 ****  ****    0 ROOT
