@<TRIPOS>MOLECULE
CF1
   34    35     1     0     0
SMALL
bcc


@<TRIPOS>ATOM
      1 O23         0.4060   -1.1410   -0.0070 o         1 CF1     -0.481000
      2 C23         1.2160   -0.2350   -0.2050 c         1 CF1      0.646700
      3 O24         1.2220    0.7220    0.7650 oh        1 CF1     -0.565100
      4 C21         2.0960   -0.0950   -1.3890 ca        1 CF1     -0.125600
      5 C5          1.4920   -0.1080   -2.6430 ca        1 CF1     -0.104000
      6 C4          2.2810    0.0320   -3.8000 ca        1 CF1      0.127100
      7 O1          1.5770    0.0250   -4.9850 os        1 CF1     -0.316900
      8 C2          2.3510    0.0950   -6.1790 c3        1 CF1      0.110700
      9 C3          3.6700    0.1690   -3.6970 ca        1 CF1     -0.175000
     10 C8          4.2690    0.1590   -2.4420 ca        1 CF1     -0.118000
     11 C7          3.5010    0.0280   -1.2690 ca        1 CF1      0.072600
     12 N1          4.1040    0.0850    0.0210 nh        1 CF1     -0.607000
     13 C9          4.5090   -1.1230    0.6290 ca        1 CF1      0.132600
     14 C10         5.5390   -1.1270    1.6050 ca        1 CF1     -0.012600
     15 CL1         6.3870    0.3020    1.9790 cl        1 CF1     -0.086400
     16 C11         5.8810   -2.2980    2.2840 ca        1 CF1     -0.098000
     17 C12         5.2260   -3.4910    2.0000 ca        1 CF1     -0.106000
     18 C15         3.8540   -2.3450    0.3560 ca        1 CF1     -0.111000
     19 C13         4.2190   -3.5040    1.0320 ca        1 CF1     -0.131300
     20 C14         3.5290   -4.8250    0.7020 c3        1 CF1      0.687200
     21 F1          4.2440   -5.6200   -0.1640 f         1 CF1     -0.232633
     22 F3          3.3090   -5.6340    1.7900 f         1 CF1     -0.232633
     23 F2          2.2980   -4.7060    0.1090 f         1 CF1     -0.232633
     24 H5          0.4010   -0.2330   -2.7380 ha        1 CF1      0.176000
     25 H2          2.9080    1.0620   -6.2290 h1        1 CF1      0.050033
     26 H2A         1.5790    0.0410   -6.9880 h1        1 CF1      0.050033
     27 H2B         3.0550   -0.7690   -6.2450 h1        1 CF1      0.050033
     28 H3          4.2960    0.2760   -4.5950 ha        1 CF1      0.148000
     29 H8          5.3650    0.2570   -2.3750 ha        1 CF1      0.144000
     30 HN1         1.9170    1.3720    0.5940 ho        1 CF1      0.438000
     31 H11         6.6750   -2.2770    3.0480 ha        1 CF1      0.158000
     32 H12         5.4920   -4.4170    2.5330 ha        1 CF1      0.158000
     33 H15         3.0330   -2.3800   -0.3830 ha        1 CF1      0.173000
     34 H121        4.8190    0.7910    0.0580 hn        1 CF1      0.412800
@<TRIPOS>BOND
     1    1    2 2   
     2    2    3 1   
     3    2    4 1   
     4    3   30 1   
     5    4    5 ar  
     6    4   11 ar  
     7    5    6 ar  
     8    5   24 1   
     9    6    7 1   
    10    6    9 ar  
    11    7    8 1   
    12    8   25 1   
    13    8   26 1   
    14    8   27 1   
    15    9   10 ar  
    16    9   28 1   
    17   10   11 ar  
    18   10   29 1   
    19   11   12 1   
    20   12   13 1   
    21   12   34 1   
    22   13   14 ar  
    23   13   18 ar  
    24   14   15 1   
    25   14   16 ar  
    26   16   17 ar  
    27   16   31 1   
    28   17   19 ar  
    29   17   32 1   
    30   18   19 ar  
    31   18   33 1   
    32   19   20 1   
    33   20   21 1   
    34   20   22 1   
    35   20   23 1   
@<TRIPOS>SUBSTRUCTURE
     1 CF1         1 TEMP              0 ****  ****    0 ROOT
