@<TRIPOS>MOLECULE
CF1
   33    34     1     0     0
SMALL
bcc


@<TRIPOS>ATOM
      1 O23        -2.6790    2.1740    2.8950 o         1 CF1     -0.817800
      2 C23        -2.0240    2.2990    1.8270 c         1 CF1      0.911200
      3 O24        -1.1790    3.2210    1.6210 o         1 CF1     -0.817800
      4 C21        -2.2900    1.2860    0.7160 ca        1 CF1     -0.118600
      5 C5         -3.5570    0.7090    0.6720 ca        1 CF1     -0.111000
      6 C4         -3.8840   -0.2170   -0.3310 ca        1 CF1      0.082100
      7 O1         -5.1790   -0.7160   -0.2740 os        1 CF1     -0.331900
      8 C2         -5.4970   -1.7170   -1.2280 c3        1 CF1      0.119700
      9 C3         -2.9450   -0.5760   -1.3000 ca        1 CF1     -0.207000
     10 C8         -1.6750   -0.0060   -1.2620 ca        1 CF1     -0.143000
     11 C7         -1.3240    0.9210   -0.2600 ca        1 CF1      0.102600
     12 N1         -0.0570    1.5520   -0.2900 nh        1 CF1     -0.606000
     13 C9          1.1250    0.8350   -0.2700 ca        1 CF1      0.213600
     14 C10         2.3780    1.5210   -0.2870 ca        1 CF1     -0.041600
     15 CL1         2.4360    3.2200   -0.2090 cl        1 CF1     -0.084400
     16 C11         3.5830    0.8260   -0.3620 ca        1 CF1     -0.094000
     17 C12         3.6010   -0.5630   -0.4280 ca        1 CF1     -0.162000
     18 C15         1.1750   -0.5850   -0.3060 ca        1 CF1     -0.164000
     19 C13         2.3870   -1.2530   -0.3960 ca        1 CF1     -0.124300
     20 C14         2.4010   -2.7750   -0.4720 c3        1 CF1      0.685200
     21 F1          2.3640   -3.2780   -1.7530 f         1 CF1     -0.246633
     22 F3          3.5150   -3.3710    0.0730 f         1 CF1     -0.246633
     23 F2          1.3540   -3.4060    0.1550 f         1 CF1     -0.246633
     24 H5         -4.2930    0.9780    1.4470 ha        1 CF1      0.172000
     25 H2         -5.4430   -1.3070   -2.2660 h1        1 CF1      0.031033
     26 H2A        -4.8160   -2.5980   -1.1260 h1        1 CF1      0.031033
     27 H2B        -6.5490   -2.0030   -0.9740 h1        1 CF1      0.031033
     28 H3         -3.1870   -1.2950   -2.0940 ha        1 CF1      0.119000
     29 H8         -0.9460   -0.2840   -2.0380 ha        1 CF1      0.125000
     30 HN1        -0.0470    2.4490    0.1910 hn        1 CF1      0.497800
     31 H11         4.5340    1.3820   -0.3710 ha        1 CF1      0.138000
     32 H12         4.5510   -1.1110   -0.4920 ha        1 CF1      0.138000
     33 H15         0.2380   -1.1650   -0.2400 ha        1 CF1      0.166000
@<TRIPOS>BOND
     1    1    2 1   
     2    2    3 1   
     3    2    4 1   
     4    4    5 ar  
     5    4   11 ar  
     6    5    6 ar  
     7    5   24 1   
     8    6    7 1   
     9    6    9 ar  
    10    7    8 1   
    11    8   25 1   
    12    8   26 1   
    13    8   27 1   
    14    9   10 ar  
    15    9   28 1   
    16   10   11 ar  
    17   10   29 1   
    18   11   12 1   
    19   12   13 1   
    20   12   30 1   
    21   13   14 ar  
    22   13   18 ar  
    23   14   15 1   
    24   14   16 ar  
    25   16   17 ar  
    26   16   31 1   
    27   17   19 ar  
    28   17   32 1   
    29   18   19 ar  
    30   18   33 1   
    31   19   20 1   
    32   20   21 1   
    33   20   22 1   
    34   20   23 1   
@<TRIPOS>SUBSTRUCTURE
     1 CF1         1 TEMP              0 ****  ****    0 ROOT
