@<TRIPOS>MOLECULE
CF1
   33    34     1     0     0
SMALL
bcc


@<TRIPOS>ATOM
      1 O23        -0.1210    1.3050   -0.3280 o         1 CF1     -0.817800
      2 C23         1.1280    1.2530   -0.1850 c         1 CF1      0.911200
      3 O24         1.7420    1.7040    0.8280 o         1 CF1     -0.817800
      4 C21         1.9400    0.6270   -1.3170 ca        1 CF1     -0.118600
      5 C5          1.4060    0.7050   -2.6000 ca        1 CF1     -0.111000
      6 C4          2.1020    0.1680   -3.6950 ca        1 CF1      0.082100
      7 O1          1.4710    0.3140   -4.9240 os        1 CF1     -0.331900
      8 C2          2.1200   -0.2970   -6.0270 c3        1 CF1      0.119700
      9 C3          3.3400   -0.4520   -3.5160 ca        1 CF1     -0.207000
     10 C8          3.8790   -0.5360   -2.2350 ca        1 CF1     -0.143000
     11 C7          3.1940   -0.0100   -1.1210 ca        1 CF1      0.102600
     12 N1          3.8010   -0.0310    0.1580 nu        1 CF1     -0.606000
     13 C9          4.2140   -1.2050    0.7600 ca        1 CF1      0.213600
     14 C10         4.8070   -1.1720    2.0590 ca        1 CF1     -0.041600
     15 Cl1         4.9030    0.2860    2.9310 cl        1 CF1     -0.084400
     16 C11         5.3190   -2.3250    2.6510 ca        1 CF1     -0.094000
     17 C12         5.2690   -3.5470    1.9890 ca        1 CF1     -0.162000
     18 C15         4.1490   -2.4730    0.1200 ca        1 CF1     -0.164000
     19 C13         4.6780   -3.6030    0.7250 ca        1 CF1     -0.124300
     20 C14         4.6260   -4.9380   -0.0070 c3        1 CF1      0.685200
     21 F1          5.7290   -5.2000   -0.7890 f         1 CF1     -0.246633
     22 F3          4.5460   -6.0430    0.8100 f         1 CF1     -0.246633
     23 F2          3.5710   -5.0960   -0.8720 f         1 CF1     -0.246633
     24 H5          0.4200    1.1780   -2.7400 ha        1 CF1      0.172000
     25 H2          1.4290   -0.0990   -6.8860 h1        1 CF1      0.031033
     26 H2A         3.1160    0.1740   -6.2120 h1        1 CF1      0.031033
     27 H2B         2.2370   -1.3960   -5.8640 h1        1 CF1      0.031033
     28 H3          3.8980   -0.8720   -4.3630 ha        1 CF1      0.119000
     29 H8          4.8620   -1.0140   -2.1050 ha        1 CF1      0.125000
     30 HN1         3.4440    0.6920    0.7790 hn        1 CF1      0.497800
     31 H11         5.7680   -2.2700    3.6550 ha        1 CF1      0.138000
     32 H12         5.6760   -4.4550    2.4540 ha        1 CF1      0.138000
     33 H15         3.6520   -2.5630   -0.8610 ha        1 CF1      0.166000
@<TRIPOS>BOND
     1    1    2 1   
     2    2    3 1   
     3    2    4 1   
     4    4    5 ar  
     5    4   11 ar  
     6    5    6 ar  
     7    5   24 1   
     8    6    7 1   
     9    6    9 ar  
    10    7    8 1   
    11    8   25 1   
    12    8   26 1   
    13    8   27 1   
    14    9   10 ar  
    15    9   28 1   
    16   10   11 ar  
    17   10   29 1   
    18   11   12 1   
    19   12   13 1   
    20   12   30 1   
    21   13   14 ar  
    22   13   18 ar  
    23   14   15 1   
    24   14   16 ar  
    25   16   17 ar  
    26   16   31 1   
    27   17   19 ar  
    28   17   32 1   
    29   18   19 ar  
    30   18   33 1   
    31   19   20 1   
    32   20   21 1   
    33   20   22 1   
    34   20   23 1   
@<TRIPOS>SUBSTRUCTURE
     1 CF1         1 TEMP              0 ****  ****    0 ROOT
