@<TRIPOS>MOLECULE
CF1
   33    30     1     0     0
SMALL
bcc


@<TRIPOS>ATOM
      1 O23        -3.7060    1.5820    1.6200 o         1 CF1     -0.558500
      2 C23        -2.4470    1.6130    1.6200 c2        1 CF1      0.362000
      3 O24        -1.8180    1.6210    2.7110 o         1 CF1     -0.558500
      4 C21        -1.6900    1.6360    0.3100 c2        1 CF1     -0.098000
      5 C5         -1.7110    2.7750   -0.4820 c2        1 CF1     -0.156000
      6 C4         -1.0730    2.7750   -1.7140 c1        1 CF1      0.031000
      7 O1         -1.1600    3.9020   -2.5500 o         1 CF1     -0.230000
      8 C2         -0.0180    4.7310   -2.5150 c3        1 CF1     -0.071000
      9 C3         -0.4140    1.6360   -2.1520 c2        1 CF1     -0.160000
     10 C8         -0.3930    0.4980   -1.3610 c1        1 CF1     -0.139000
     11 C7         -1.0310    0.4980   -0.1300 c1        1 CF1      0.038000
     12 N1         -1.0660   -0.6870    0.6510 n3        1 CF1     -0.258000
     13 C9          0.1250   -1.4300    0.8670 c2        1 CF1      0.136000
     14 C10         1.2770   -0.7860    1.2880 c2        1 CF1     -0.122000
     15 CL1         1.2670    0.9400    1.5410 cl        1 CF1      0.002000
     16 C11         2.4260   -1.5170    1.5480 c1        1 CF1     -0.098000
     17 C12         2.4220   -2.8940    1.3860 c1        1 CF1     -0.157000
     18 C15         0.1220   -2.8080    0.7050 c1        1 CF1     -0.143000
     19 C13         1.2700   -3.5390    0.9650 c1        1 CF1     -0.126000
     20 C14         1.2510   -5.0480    0.8360 c3        1 CF1      0.465000
     21 F1          2.0640   -5.5840    1.7560 f         1 CF1     -0.174667
     22 F3          0.0040   -5.4970    1.0260 f         1 CF1     -0.174667
     23 F2          1.6700   -5.3970   -0.3870 f         1 CF1     -0.174667
     24 H5         -2.1470    3.5850   -0.1600 ha        1 CF1      0.163000
     25 H2          0.2600    4.8640   -1.5830 h1        1 CF1      0.075667
     26 H2A        -0.2300    5.5990   -2.9210 h1        1 CF1      0.075667
     27 H2B         0.7110    4.3050   -3.0160 h1        1 CF1      0.075667
     28 H3          0.0350    1.6360   -3.0190 ha        1 CF1      0.127000
     29 H8          0.0710   -0.3030   -1.6700 ha        1 CF1      0.123000
     30 HN1        -1.8530   -0.9740    1.0090 hn        1 CF1      0.292000
     31 H11         3.2400   -1.0620    1.8380 ha        1 CF1      0.138000
     32 H12         3.2330   -3.4080    1.5630 ha        1 CF1      0.138000
     33 H15        -0.6930   -3.2630    0.4200 ha        1 CF1      0.159000
@<TRIPOS>BOND
     1    1    2 1   
     2    2    3 1   
     3    2    4 1   
     4    4    5 1   
     5    4   11 1   
     6    5    6 1   
     7    5   24 1   
     8    6    9 1   
     9    7    8 1   
    10    8   25 1   
    11    8   26 1   
    12    8   27 1   
    13    9   10 1   
    14    9   28 1   
    15   10   29 1   
    16   11   12 1   
    17   12   13 1   
    18   12   30 1   
    19   13   14 1   
    20   13   18 1   
    21   14   15 1   
    22   14   16 1   
    23   16   31 1   
    24   17   19 1   
    25   17   32 1   
    26   18   33 1   
    27   19   20 1   
    28   20   21 1   
    29   20   22 1   
    30   20   23 1   
@<TRIPOS>SUBSTRUCTURE
     1 CF1         1 TEMP              0 ****  ****    0 ROOT
