@<TRIPOS>MOLECULE
CF1
   33    34     1     0     0
SMALL
bcc


@<TRIPOS>ATOM
      1 O23        -0.1230    1.3060   -0.3330 o         1 CF1     -0.817800
      2 C23         1.1270    1.2510   -0.1840 c         1 CF1      0.911200
      3 O24         1.7360    1.6970    0.8340 o         1 CF1     -0.817800
      4 C21         1.9420    0.6290   -1.3150 ca        1 CF1     -0.118600
      5 C5          1.4140    0.7130   -2.6000 ca        1 CF1     -0.111000
      6 C4          2.1150    0.1810   -3.6950 ca        1 CF1      0.082100
      7 O1          1.4890    0.3330   -4.9260 os        1 CF1     -0.331900
      8 C2          2.1430   -0.2720   -6.0290 c3        1 CF1      0.119700
      9 C3          3.3510   -0.4420   -3.5130 ca        1 CF1     -0.207000
     10 C8          3.8850   -0.5320   -2.2300 ca        1 CF1     -0.143000
     11 C7          3.1950   -0.0100   -1.1170 ca        1 CF1      0.102600
     12 N1          3.7960   -0.0370    0.1650 nh        1 CF1     -0.606000
     13 C9          4.2060   -1.2140    0.7640 ca        1 CF1      0.213600
     14 C10         4.7930   -1.1880    2.0660 ca        1 CF1     -0.041600
     15 CL1         4.8870    0.2660    2.9440 cl        1 CF1     -0.084400
     16 C11         5.3010   -2.3440    2.6550 ca        1 CF1     -0.094000
     17 C12         5.2540   -3.5630    1.9860 ca        1 CF1     -0.162000
     18 C15         4.1420   -2.4790    0.1180 ca        1 CF1     -0.164000
     19 C13         4.6680   -3.6130    0.7200 ca        1 CF1     -0.124300
     20 C14         4.6170   -4.9450   -0.0180 c3        1 CF1      0.685200
     21 F1          5.7240   -5.2050   -0.7950 f         1 CF1     -0.246633
     22 F3          4.5310   -6.0530    0.7940 f         1 CF1     -0.246633
     23 F2          3.5660   -5.0970   -0.8890 f         1 CF1     -0.246633
     24 H5          0.4300    1.1890   -2.7430 ha        1 CF1      0.172000
     25 H2          1.4580   -0.0700   -6.8900 h1        1 CF1      0.031033
     26 H2A         3.1410    0.1990   -6.2060 h1        1 CF1      0.031033
     27 H2B         2.2600   -1.3730   -5.8710 h1        1 CF1      0.031033
     28 H3          3.9120   -0.8580   -4.3590 ha        1 CF1      0.119000
     29 H8          4.8660   -1.0120   -2.0970 ha        1 CF1      0.125000
     30 HN1         3.4370    0.6830    0.7880 hn        1 CF1      0.497800
     31 H11         5.7460   -2.2930    3.6600 ha        1 CF1      0.138000
     32 H12         5.6580   -4.4730    2.4490 ha        1 CF1      0.138000
     33 H15         3.6490   -2.5640   -0.8650 ha        1 CF1      0.166000
@<TRIPOS>BOND
     1    1    2 1   
     2    2    3 1   
     3    2    4 1   
     4    4    5 ar  
     5    4   11 ar  
     6    5    6 ar  
     7    5   24 1   
     8    6    7 1   
     9    6    9 ar  
    10    7    8 1   
    11    8   25 1   
    12    8   26 1   
    13    8   27 1   
    14    9   10 ar  
    15    9   28 1   
    16   10   11 ar  
    17   10   29 1   
    18   11   12 1   
    19   12   13 1   
    20   12   30 1   
    21   13   14 ar  
    22   13   18 ar  
    23   14   15 1   
    24   14   16 ar  
    25   16   17 ar  
    26   16   31 1   
    27   17   19 ar  
    28   17   32 1   
    29   18   19 ar  
    30   18   33 1   
    31   19   20 1   
    32   20   21 1   
    33   20   22 1   
    34   20   23 1   
@<TRIPOS>SUBSTRUCTURE
     1 CF1         1 TEMP              0 ****  ****    0 ROOT
