@<TRIPOS>MOLECULE
CF2
   68    65     1     0     0
SMALL
bcc


@<TRIPOS>ATOM
      1 O6A         4.7080   -8.9970    3.2980 o         1 CF2     -0.326000
      2 C6A         4.8250   -7.8010    3.4300 c1        1 CF2      0.398000
      3 N1A         6.0950   -7.2440    3.6650 n2        1 CF2     -0.348000
      4 C2A         6.2650   -5.8380    3.6540 c2        1 CF2      0.230000
      5 N2A         7.5470   -5.2700    3.9540 n3        1 CF2     -0.327000
      6 N3A         5.1300   -4.9720    3.4020 n1        1 CF2     -0.241000
      7 C5AA        3.6450   -6.8980    3.1670 c2        1 CF2     -0.244000
      8 C4AA        3.8100   -5.5470    3.1600 c1        1 CF2      0.073000
      9 N7A         2.3490   -7.1620    2.8700 n2        1 CF2     -0.059000
     10 C8A         1.7110   -5.9750    2.6790 c1        1 CF2     -0.094000
     11 N9A         2.6140   -4.9790    2.8590 n2        1 CF2     -0.179000
     12 C1'A        2.5050   -3.7040    3.0180 c2        1 CF2      0.158000
     13 C2'A        2.9160   -2.9720    1.7390 c3        1 CF2     -0.226000
     14 C3'A        1.7920   -2.5260    1.2240 c3        1 CF2      0.004000
     15 O3'A        2.0160   -1.2580    0.5660 oh        1 CF2     -0.333000
     16 O4'A        0.9960   -3.3080    3.2710 os        1 CF2     -0.265000
     17 C4'A        0.7730   -2.3330    2.4660 c3        1 CF2     -0.010000
     18 C5'A       -0.6520   -2.3780    1.9790 c3        1 CF2     -0.024000
     19 O1'        -1.3110   -1.1260    2.2990 os        1 CF2     -0.274000
     20 C5'        -2.1400   -0.6340    1.2640 c2        1 CF2      0.384000
     21 O2'        -2.6240   -1.4040    0.4540 o         1 CF2     -0.384000
     22 N1'        -2.3740    0.8050    1.1350 n         1 CF2     -0.319000
     23 C4'        -2.8380    1.3580   -0.1390 c3        1 CF2     -0.053000
     24 C1'        -2.3040    2.8160   -0.3020 c3        1 CF2     -0.071000
     25 N10        -2.1220    3.1080   -1.7130 n3        1 CF2     -0.171000
     26 C9A        -2.7890    4.2750   -2.3150 c2        1 CF2      0.083000
     27 C5A        -2.5120    4.6330   -3.6460 c2        1 CF2     -0.103000
     28 C6         -3.1520    5.7520   -4.2220 c1        1 CF2     -0.033000
     29 C7         -4.0640    6.5060   -3.4650 c1        1 CF2     -0.099000
     30 C7M        -4.4600    7.6650   -4.4020 c3        1 CF2     -0.180000
     31 C8         -4.3410    6.1480   -2.1330 c1        1 CF2      0.005000
     32 C8M        -5.3570    6.9860   -1.3590 c2        1 CF2     -0.193000
     33 C9         -3.7060    5.0350   -1.5570 c2        1 CF2     -0.182000
     34 N5         -1.5630    3.8490   -4.4350 n2        1 CF2      0.015000
     35 C4A        -0.9100    2.7100   -3.8540 c1        1 CF2     -0.116000
     36 C4          0.1850    2.0120   -4.6050 c1        1 CF2      0.368500
     37 O4          0.3990    2.2950   -5.7690 o         1 CF2     -0.312000
     38 N3          0.9070    0.9570   -3.9860 n3        1 CF2     -0.389000
     39 C10        -1.1900    2.3390   -2.4850 c2        1 CF2      0.180000
     40 N1         -0.4000    1.3140   -1.8450 n1        1 CF2     -0.285000
     41 C2          0.5830    0.5530   -2.6210 c1        1 CF2      0.368500
     42 O2          1.0690   -0.4670   -2.1550 o         1 CF2     -0.312000
     43 HA'         6.8100   -7.7880    3.8190 hn        1 CF2      0.247000
     44 HA'1        7.7000   -4.3760    3.8030 hn        1 CF2      0.213000
     45 HA'2        8.2220   -5.8040    4.2720 hn        1 CF2      0.213000
     46 HAA         0.7710   -5.8610    2.4240 DU        1 CF2      0.212000
     47 HAB         3.0550   -3.4120    3.7600 h4        1 CF2      0.157000
     48 HAA1        3.3550   -3.5930    1.1150 hc        1 CF2      0.122500
     49 HAA2        3.5090   -2.2280    1.9510 hc        1 CF2      0.122500
     50 HAC         1.4270   -3.1830    0.5850 h1        1 CF2      0.117000
     51 HAD         2.6200   -1.3620   -0.0800 ho        1 CF2      0.237000
     52 HAE         0.9460   -1.4880    2.9100 h1        1 CF2      0.141000
     53 HAB1       -0.6620   -2.5140    1.0070 h1        1 CF2      0.123500
     54 HAB2       -1.1210   -3.1140    2.4150 h1        1 CF2      0.123500
     55 H1'        -2.3090    1.3490    1.8750 hn        1 CF2      0.227000
     56 H4'1       -3.8150    1.3650   -0.1540 h1        1 CF2      0.121000
     57 H4'2       -2.5050    0.8080   -0.8720 h1        1 CF2      0.121000
     58 H1'1       -2.9450    3.4410    0.0800 h1        1 CF2      0.123500
     59 H1'2       -1.4480    2.9030    0.1630 h1        1 CF2      0.123500
     60 H9         -3.9010    4.7860   -0.6280 ha        1 CF2      0.147000
     61 H6         -2.9270    6.0280   -5.1340 ha        1 CF2      0.166000
     62 H7M1       -4.1140    8.5190   -4.0360 hc        1 CF2      0.091333
     63 H7M2       -4.0740    7.5100   -5.3010 hc        1 CF2      0.091333
     64 H7M3       -5.4240    7.7110   -4.4690 hc        1 CF2      0.091333
     65 H8M1       -6.2130    6.9890   -1.8400 ha        1 CF2      0.096667
     66 H8M2       -5.4850    6.6040   -0.4690 ha        1 CF2      0.096667
     67 H8M3       -5.0250    7.9080   -1.2750 ha        1 CF2      0.096667
     68 H3          1.5230    0.4790   -4.4690 hn        1 CF2      0.266000
@<TRIPOS>BOND
     1    1    2 1   
     2    2    7 1   
     3    3    4 1   
     4    3   43 1   
     5    4    5 1   
     6    4    6 1   
     7    5   44 1   
     8    5   45 1   
     9    7    8 1   
    10    7    9 1   
    11    8   11 1   
    12    9   10 1   
    13   10   11 1   
    14   12   13 1   
    15   12   16 1   
    16   12   47 1   
    17   13   14 1   
    18   13   48 1   
    19   13   49 1   
    20   14   15 1   
    21   14   17 1   
    22   14   50 1   
    23   15   51 1   
    24   16   17 1   
    25   17   18 1   
    26   17   52 1   
    27   18   19 1   
    28   18   53 1   
    29   18   54 1   
    30   19   20 1   
    31   20   21 1   
    32   20   22 1   
    33   22   23 1   
    34   22   55 1   
    35   23   24 1   
    36   23   56 1   
    37   23   57 1   
    38   24   25 1   
    39   24   58 1   
    40   24   59 1   
    41   25   26 1   
    42   25   39 1   
    43   26   27 1   
    44   26   33 1   
    45   27   28 1   
    46   27   34 1   
    47   28   61 1   
    48   29   30 1   
    49   29   31 1   
    50   30   62 1   
    51   30   63 1   
    52   30   64 1   
    53   31   33 1   
    54   32   65 1   
    55   32   66 1   
    56   32   67 1   
    57   33   60 1   
    58   34   35 1   
    59   35   39 1   
    60   36   37 1   
    61   36   38 1   
    62   38   41 1   
    63   38   68 1   
    64   39   40 1   
    65   41   42 1   
@<TRIPOS>SUBSTRUCTURE
     1 CF2         1 TEMP              0 ****  ****    0 ROOT
