@<TRIPOS>MOLECULE
CF2
   70    75     1     0     0
SMALL
bcc


@<TRIPOS>ATOM
      1 O6A         1.5380   -1.4110    0.0960 o         1 CF2     -0.491500
      2 C6A         2.6690   -1.2230   -0.3420 c         1 CF2      0.646000
      3 N1A         3.7390   -1.1500    0.6180 n         1 CF2     -0.500400
      4 C2A         5.0550   -0.9380    0.2080 cc        1 CF2      0.519800
      5 N2A         6.1040   -0.8810    1.2800 n4        1 CF2     -0.798600
      6 N3A         5.5050   -0.7750   -1.0390 nd        1 CF2     -0.536100
      7 C5AA        3.1140   -1.0560   -1.7180 cc        1 CF2      0.281800
      8 C4AA        4.5120   -0.8350   -2.0060 cd        1 CF2      0.032800
      9 N7A         2.3770   -1.0760   -2.8930 nc        1 CF2     -0.563000
     10 C8A         3.2880   -0.8750   -3.8760 cd        1 CF2      0.446400
     11 N9A         4.6080   -0.7360   -3.4020 na        1 CF2     -0.186900
     12 C1'A        5.8000   -0.4180   -4.1760 c3        1 CF2      0.247800
     13 C2'A        5.9540   -1.2700   -5.4540 c3        1 CF2     -0.158400
     14 C3'A        5.6300   -0.3240   -6.6150 c3        1 CF2      0.126100
     15 O3'A        6.6630   -0.3050   -7.5840 oh        1 CF2     -0.601800
     16 O4'A        5.7720    0.9560   -4.5790 os        1 CF2     -0.394600
     17 C4'A        5.5660    1.0880   -5.9940 c3        1 CF2      0.101100
     18 C5'A        4.2300    1.7860   -6.2510 c3        1 CF2      0.124400
     19 O1'         4.4220    3.2070   -6.2840 os        1 CF2     -0.409900
     20 C5'         4.5950    3.7860   -7.5190 c         1 CF2      0.723100
     21 O2'         4.5190    3.0920   -8.5480 o         1 CF2     -0.599000
     22 N1'         4.9300    5.1340   -7.4530 n         1 CF2     -0.540900
     23 C4'         4.6510    5.9850   -8.5800 c3        1 CF2      0.067000
     24 C1'         5.8280    6.1130   -9.5770 c3        1 CF2     -0.026700
     25 N10         5.9970    4.9660  -10.4670 na        1 CF2     -0.031100
     26 C9A         5.3470    4.9560  -11.7220 ca        1 CF2     -0.034600
     27 C5A         5.5900    3.8580  -12.6220 ca        1 CF2      0.322600
     28 C6          5.0000    3.8800  -13.9180 ca        1 CF2     -0.095300
     29 C7          4.1730    4.9180  -14.3070 ca        1 CF2     -0.061300
     30 C7M         3.5750    4.9320  -15.6620 c3        1 CF2     -0.073800
     31 C8          3.8900    5.9700  -13.3960 ca        1 CF2      0.037700
     32 C8M         2.9750    7.0610  -13.8000 c3        1 CF2     -0.085800
     33 C9          4.4620    5.9790  -12.1280 ca        1 CF2     -0.177000
     34 N5          6.3570    2.7740  -12.2560 nb        1 CF2     -0.458000
     35 C4A         6.8980    2.7550  -11.0560 ca        1 CF2      0.308800
     36 C4          7.6650    1.5350  -10.6250 c         1 CF2      0.624000
     37 O4          7.8050    0.5300  -11.3240 o         1 CF2     -0.495500
     38 N3          8.2330    1.5640   -9.3440 n         1 CF2     -0.565500
     39 C10         6.7520    3.8760  -10.0960 ca        1 CF2      0.173000
     40 N1          7.4020    3.8030   -8.8900 n         1 CF2     -0.448100
     41 C2          8.0930    2.6220   -8.4570 c         1 CF2      0.829500
     42 O2          8.5310    2.6200   -7.2950 o         1 CF2     -0.566500
     43 HA'         3.4950   -1.2610    1.5800 hn        1 CF2      0.355500
     44 HA'1        5.8890   -0.1160    1.9320 hn        1 CF2      0.485800
     45 HA'2        7.0300   -0.7130    0.8560 hn        1 CF2      0.485800
     46 HAA         3.0510   -0.8390   -4.9480 h5        1 CF2      0.084100
     47 HAB         6.6900   -0.5100   -3.4860 h2        1 CF2      0.120700
     48 HAA1        7.0170   -1.6180   -5.5240 hc        1 CF2      0.095700
     49 HAA2        5.2940   -2.1700   -5.4620 hc        1 CF2      0.095700
     50 HAC         4.6570   -0.6050   -7.1040 h1        1 CF2      0.063700
     51 HAD         6.6620   -1.1710   -8.0140 ho        1 CF2      0.428000
     52 HAE         6.4240    1.7240   -6.3590 h1        1 CF2      0.113700
     53 HAB1        3.5310    1.6490   -5.3800 h1        1 CF2      0.093700
     54 HAB2        3.7610    1.4270   -7.2050 h1        1 CF2      0.093700
     55 H1'         7.3420    4.5290   -8.2000 hn        1 CF2      0.376500
     56 H4'1        4.4530    7.0290   -8.1970 h1        1 CF2      0.092200
     57 H4'2        3.7350    5.6310   -9.1380 h1        1 CF2      0.092200
     58 H1'1        5.6440    7.0300  -10.2100 h1        1 CF2      0.102700
     59 H1'2        6.7940    6.3170   -9.0310 h1        1 CF2      0.102700
     60 H9          4.1880    6.8030  -11.4480 ha        1 CF2      0.156000
     61 H6          5.2110    3.0450  -14.6130 ha        1 CF2      0.190000
     62 H7M1        2.4570    4.9340  -15.5910 hc        1 CF2      0.073033
     63 H7M2        3.8900    5.8550  -16.2130 hc        1 CF2      0.073033
     64 H7M3        3.8900    4.0400  -16.2590 hc        1 CF2      0.073033
     65 H8M1        1.9710    6.6400  -14.0670 hc        1 CF2      0.077033
     66 H8M2        3.3800    7.5820  -14.7060 hc        1 CF2      0.077033
     67 H8M3        2.8390    7.8160  -12.9880 hc        1 CF2      0.077033
     68 H3          8.6640    0.7300   -8.9880 hn        1 CF2      0.386500
     69 H2A3        6.1250   -1.7760    1.7860 hn        1 CF2      0.485800
     70 H1'3        4.8490    5.5550   -6.5490 hn        1 CF2      0.341500
@<TRIPOS>BOND
     1    1    2 2   
     2    2    3 1   
     3    2    7 1   
     4    3    4 1   
     5    3   43 1   
     6    4    5 1   
     7    4    6 2   
     8    5   44 1   
     9    5   45 1   
    10    5   69 1   
    11    6    8 1   
    12    7    8 2   
    13    7    9 1   
    14    8   11 1   
    15    9   10 2   
    16   10   11 1   
    17   10   46 1   
    18   11   12 1   
    19   12   13 1   
    20   12   16 1   
    21   12   47 1   
    22   13   14 1   
    23   13   48 1   
    24   13   49 1   
    25   14   15 1   
    26   14   17 1   
    27   14   50 1   
    28   15   51 1   
    29   16   17 1   
    30   17   18 1   
    31   17   52 1   
    32   18   19 1   
    33   18   53 1   
    34   18   54 1   
    35   19   20 1   
    36   20   21 2   
    37   20   22 1   
    38   22   23 1   
    39   22   70 1   
    40   23   24 1   
    41   23   56 1   
    42   23   57 1   
    43   24   25 1   
    44   24   58 1   
    45   24   59 1   
    46   25   26 1   
    47   25   39 2   
    48   26   27 ar  
    49   26   33 ar  
    50   27   28 ar  
    51   27   34 ar  
    52   28   29 ar  
    53   28   61 1   
    54   29   30 1   
    55   29   31 ar  
    56   30   62 1   
    57   30   63 1   
    58   30   64 1   
    59   31   32 1   
    60   31   33 ar  
    61   32   65 1   
    62   32   66 1   
    63   32   67 1   
    64   33   60 1   
    65   34   35 ar  
    66   35   36 1   
    67   35   39 ar  
    68   36   37 2   
    69   36   38 1   
    70   38   41 1   
    71   38   68 1   
    72   39   40 1   
    73   40   41 1   
    74   40   55 1   
    75   41   42 2   
@<TRIPOS>SUBSTRUCTURE
     1 CF2         1 TEMP              0 ****  ****    0 ROOT
