@<TRIPOS>MOLECULE
CF2
   70    75     1     0     0
SMALL
bcc


@<TRIPOS>ATOM
      1 O6A         0.2550   -0.6770   -0.9530 o         1 CF2     -0.494500
      2 C6A         1.4810   -0.7220   -0.9960 c         1 CF2      0.646000
      3 N1A         2.1550   -1.3000    0.1350 ns        1 CF2     -0.500400
      4 C2A         3.5470   -1.3930    0.1700 cc        1 CF2      0.513800
      5 N2A         4.1590   -1.9990    1.4000 nz        1 CF2     -0.797600
      6 N3A         4.4140   -1.0020   -0.7670 nd        1 CF2     -0.535100
      7 C5AA        2.3880   -0.2690   -2.0430 cc        1 CF2      0.288800
      8 C4AA        3.8150   -0.4340   -1.8810 cd        1 CF2      0.012800
      9 N7A         2.1070    0.3450   -3.2510 nc        1 CF2     -0.573000
     10 C8A         3.3200    0.5530   -3.8250 cd        1 CF2      0.467400
     11 N9A         4.3940    0.0900   -3.0460 na        1 CF2     -0.181900
     12 C1'A        5.8200    0.2020   -3.3240 c3        1 CF2      0.255800
     13 C2'A        6.4330   -1.0300   -4.0240 c3        1 CF2     -0.159400
     14 C3'A        6.8420   -0.5510   -5.4210 c3        1 CF2      0.124100
     15 O3'A        8.1980   -0.8310   -5.7020 oh        1 CF2     -0.578800
     16 O4'A        6.0350    1.3440   -4.1620 os        1 CF2     -0.401600
     17 C4'A        6.7130    0.9860   -5.3770 c3        1 CF2      0.123100
     18 C5'A        5.9400    1.5250   -6.5750 c3        1 CF2      0.141400
     19 O1'         6.2400    2.9330   -6.6310 os        1 CF2     -0.418900
     20 C5'         6.0300    3.5450   -7.8420 c         1 CF2      0.725100
     21 O2'         5.5980    2.8850   -8.8030 o         1 CF2     -0.591000
     22 N1'         6.4280    4.8790   -7.8600 ns        1 CF2     -0.538900
     23 C4'         5.7560    5.7940   -8.7480 c3        1 CF2      0.066000
     24 C1'         6.4670    5.9840  -10.1070 c3        1 CF2     -0.024700
     25 N10         6.2730    4.8940  -11.0610 na        1 CF2     -0.033100
     26 C9A         5.1520    4.9230  -11.9200 ca        1 CF2     -0.035600
     27 C5A         5.0400    3.9230  -12.9510 ca        1 CF2      0.322600
     28 C6          3.9410    3.9810  -13.8550 ca        1 CF2     -0.094300
     29 C7          2.9770    4.9650  -13.7420 ca        1 CF2     -0.062300
     30 C7M         1.8460    5.0180  -14.6980 c3        1 CF2     -0.073800
     31 C8          3.0700    5.9250  -12.7010 ca        1 CF2      0.035700
     32 C8M         2.0230    6.9630  -12.5660 c3        1 CF2     -0.084800
     33 C9          4.1350    5.8960  -11.8070 ca        1 CF2     -0.177000
     34 N5          5.9650    2.9100  -13.0840 nb        1 CF2     -0.458000
     35 C4A         6.9670    2.8490  -12.2330 ca        1 CF2      0.305800
     36 C4          7.9650    1.7320  -12.3700 c         1 CF2      0.620000
     37 O4          7.9050    0.8620  -13.2390 o         1 CF2     -0.485500
     38 N3          9.0120    1.7040  -11.4390 ns        1 CF2     -0.577500
     39 C10         7.1550    3.8390  -11.1450 ca        1 CF2      0.170000
     40 N1          8.2090    3.6880  -10.2850 ns        1 CF2     -0.445100
     41 C2          9.1560    2.6140  -10.3990 c         1 CF2      0.823500
     42 O2         10.0560    2.5610   -9.5480 o         1 CF2     -0.547500
     43 HA'         1.5840   -1.6210    0.8890 hn        1 CF2      0.354500
     44 HA'1        3.9050   -1.4360    2.2210 hn        1 CF2      0.485133
     45 HA'2        3.8160   -2.9610    1.5150 hn        1 CF2      0.485133
     46 HAA         3.4820    1.0520   -4.7910 h5        1 CF2      0.091100
     47 HAB         6.3340    0.4310   -2.3420 h2        1 CF2      0.110700
     48 HAA1        7.3390   -1.3580   -3.4510 hc        1 CF2      0.090700
     49 HAA2        5.7270   -1.8920   -4.0840 hc        1 CF2      0.090700
     50 HAC         6.1790   -0.9990   -6.2100 h1        1 CF2      0.062700
     51 HAD         8.2760   -1.7860   -5.8250 ho        1 CF2      0.426000
     52 HAE         7.7300    1.4720   -5.3190 h1        1 CF2      0.121700
     53 HAB1        6.2780    1.0200   -7.5180 h1        1 CF2      0.074200
     54 HAB2        4.8320    1.4200   -6.4530 h1        1 CF2      0.074200
     55 H1'         8.3580    4.2970   -9.5000 hn        1 CF2      0.379500
     56 H4'1        5.7370    6.8140   -8.2620 h1        1 CF2      0.089200
     57 H4'2        4.6910    5.4690   -8.9340 h1        1 CF2      0.089200
     58 H1'1        7.5700    6.1670   -9.9560 h1        1 CF2      0.103200
     59 H1'2        6.0640    6.9310  -10.5760 h1        1 CF2      0.103200
     60 H9          4.1520    6.6460  -10.9990 ha        1 CF2      0.154000
     61 H6          3.8700    3.2180  -14.6550 ha        1 CF2      0.191000
     62 H7M1        0.8730    4.9130  -14.1520 hc        1 CF2      0.072367
     63 H7M2        1.9130    4.2010  -15.4590 hc        1 CF2      0.072367
     64 H7M3        1.8390    6.0010  -15.2340 hc        1 CF2      0.072367
     65 H8M1        2.2160    7.6430  -11.7010 hc        1 CF2      0.076033
     66 H8M2        1.9780    7.5820  -13.5010 hc        1 CF2      0.076033
     67 H8M3        1.0210    6.4810  -12.4250 hc        1 CF2      0.076033
     68 H3          9.7080    0.9830  -11.5150 hn        1 CF2      0.389500
     69 H2A3        5.1860   -2.0160    1.3080 hn        1 CF2      0.485133
     70 H1'3        6.7050    5.2540   -6.9740 hn        1 CF2      0.339500
@<TRIPOS>BOND
     1    1    2 2   
     2    2    3 1   
     3    2    7 1   
     4    3    4 1   
     5    3   43 1   
     6    4    5 1   
     7    4    6 2   
     8    5   44 1   
     9    5   45 1   
    10    5   69 1   
    11    6    8 1   
    12    7    8 2   
    13    7    9 1   
    14    8   11 1   
    15    9   10 2   
    16   10   11 1   
    17   10   46 1   
    18   11   12 1   
    19   12   13 1   
    20   12   16 1   
    21   12   47 1   
    22   13   14 1   
    23   13   48 1   
    24   13   49 1   
    25   14   15 1   
    26   14   17 1   
    27   14   50 1   
    28   15   51 1   
    29   16   17 1   
    30   17   18 1   
    31   17   52 1   
    32   18   19 1   
    33   18   53 1   
    34   18   54 1   
    35   19   20 1   
    36   20   21 2   
    37   20   22 1   
    38   22   23 1   
    39   22   70 1   
    40   23   24 1   
    41   23   56 1   
    42   23   57 1   
    43   24   25 1   
    44   24   58 1   
    45   24   59 1   
    46   25   26 1   
    47   25   39 2   
    48   26   27 ar  
    49   26   33 ar  
    50   27   28 ar  
    51   27   34 ar  
    52   28   29 ar  
    53   28   61 1   
    54   29   30 1   
    55   29   31 ar  
    56   30   62 1   
    57   30   63 1   
    58   30   64 1   
    59   31   32 1   
    60   31   33 ar  
    61   32   65 1   
    62   32   66 1   
    63   32   67 1   
    64   33   60 1   
    65   34   35 ar  
    66   35   36 1   
    67   35   39 ar  
    68   36   37 2   
    69   36   38 1   
    70   38   41 1   
    71   38   68 1   
    72   39   40 1   
    73   40   41 1   
    74   40   55 1   
    75   41   42 2   
@<TRIPOS>SUBSTRUCTURE
     1 CF2         1 TEMP              0 ****  ****    0 ROOT
