@<TRIPOS>MOLECULE
CF2
   70    75     1     0     0
SMALL
bcc


@<TRIPOS>ATOM
      1 O6A         1.6370   -1.3170    0.1930 o         1 CF2     -0.491500
      2 C6A         2.7610   -1.1580   -0.2730 c         1 CF2      0.646000
      3 N1A         3.8560   -1.1100    0.6590 n         1 CF2     -0.500400
      4 C2A         5.1660   -0.9300    0.2150 cc        1 CF2      0.519800
      5 N2A         6.2430   -0.8970    1.2610 n4        1 CF2     -0.798600
      6 N3A         5.5880   -0.7810   -1.0420 nd        1 CF2     -0.536100
      7 C5AA        3.1750   -1.0050   -1.6610 cc        1 CF2      0.281800
      8 C4AA        4.5710   -0.8190   -1.9840 cd        1 CF2      0.032800
      9 N7A         2.4090   -1.0100   -2.8170 nc        1 CF2     -0.563000
     10 C8A         3.2990   -0.8340   -3.8220 cd        1 CF2      0.446400
     11 N9A         4.6330   -0.7260   -3.3830 na        1 CF2     -0.186900
     12 C1'A        5.8130   -0.4390   -4.1870 c3        1 CF2      0.247800
     13 C2'A        5.9130   -1.2960   -5.4670 c3        1 CF2     -0.158400
     14 C3'A        5.5830   -0.3440   -6.6220 c3        1 CF2      0.126100
     15 O3'A        6.5920   -0.3510   -7.6160 oh        1 CF2     -0.601800
     16 O4'A        5.8100    0.9350   -4.5920 os        1 CF2     -0.394600
     17 C4'A        5.5700    1.0710   -6.0010 c3        1 CF2      0.101100
     18 C5'A        4.2460    1.8000   -6.2260 c3        1 CF2      0.124400
     19 O1'         4.4720    3.2170   -6.2650 os        1 CF2     -0.409900
     20 C5'         4.6280    3.7900   -7.5050 c         1 CF2      0.723100
     21 O2'         4.5080    3.0970   -8.5310 o         1 CF2     -0.599000
     22 N1'         4.9980    5.1290   -7.4500 n         1 CF2     -0.540900
     23 C4'         4.7110    5.9860   -8.5710 c3        1 CF2      0.067000
     24 C1'         5.8650    6.0830   -9.5980 c3        1 CF2     -0.026700
     25 N10         5.9830    4.9310  -10.4900 na        1 CF2     -0.031100
     26 C9A         5.3010    4.9370  -11.7280 ca        1 CF2     -0.034600
     27 C5A         5.4940    3.8320  -12.6330 ca        1 CF2      0.322600
     28 C6          4.8710    3.8680  -13.9130 ca        1 CF2     -0.095300
     29 C7          4.0610    4.9260  -14.2820 ca        1 CF2     -0.061300
     30 C7M         3.4280    4.9540  -15.6210 c3        1 CF2     -0.073800
     31 C8          3.8270    5.9850  -13.3650 ca        1 CF2      0.037700
     32 C8M         2.9290    7.0980  -13.7470 c3        1 CF2     -0.085800
     33 C9          4.4320    5.9810  -12.1130 ca        1 CF2     -0.177000
     34 N5          6.2420    2.7300  -12.2840 nb        1 CF2     -0.458000
     35 C4A         6.8130    2.6990  -11.0990 ca        1 CF2      0.308800
     36 C4          7.5610    1.4600  -10.6860 c         1 CF2      0.624000
     37 O4          7.6580    0.4520  -11.3870 o         1 CF2     -0.495500
     38 N3          8.1610    1.4760   -9.4200 n         1 CF2     -0.565500
     39 C10         6.7200    3.8230  -10.1370 ca        1 CF2      0.173000
     40 N1          7.3980    3.7350   -8.9480 n         1 CF2     -0.448100
     41 C2          8.0700    2.5380   -8.5310 c         1 CF2      0.829500
     42 O2          8.5380    2.5260   -7.3810 o         1 CF2     -0.566500
     43 HA'         3.6340   -1.2120    1.6270 hn        1 CF2      0.355500
     44 HA'1        7.1610   -0.7510    0.8130 hn        1 CF2      0.485800
     45 HA'2        6.0630   -0.1260    1.9160 hn        1 CF2      0.485800
     46 HAA         3.0360   -0.7940   -4.8890 h5        1 CF2      0.084100
     47 HAB         6.7180   -0.5520   -3.5190 h2        1 CF2      0.120700
     48 HAA1        6.9650   -1.6700   -5.5630 hc        1 CF2      0.095700
     49 HAA2        5.2310   -2.1790   -5.4570 hc        1 CF2      0.095700
     50 HAC         4.5920   -0.6010   -7.0850 h1        1 CF2      0.063700
     51 HAD         6.5590   -1.2170   -8.0440 ho        1 CF2      0.428000
     52 HAE         6.4340    1.6850   -6.3890 h1        1 CF2      0.113700
     53 HAB1        3.5660    1.6820   -5.3370 h1        1 CF2      0.093700
     54 HAB2        3.7440    1.4520   -7.1660 h1        1 CF2      0.093700
     55 H1'         7.3740    4.4630   -8.2580 hn        1 CF2      0.376500
     56 H4'1        3.7720    5.6550   -9.1050 h1        1 CF2      0.091700
     57 H4'2        4.5490    7.0350   -8.1840 h1        1 CF2      0.091700
     58 H1'1        5.6880    7.0050  -10.2270 h1        1 CF2      0.102700
     59 H1'2        6.8500    6.2640   -9.0770 h1        1 CF2      0.102700
     60 H9          4.1960    6.8120  -11.4280 ha        1 CF2      0.156000
     61 H6          5.0430    3.0270  -14.6110 ha        1 CF2      0.190000
     62 H7M1        3.7050    4.0540  -16.2250 hc        1 CF2      0.073033
     63 H7M2        2.3130    4.9830  -15.5220 hc        1 CF2      0.073033
     64 H7M3        3.7520    5.8690  -16.1820 hc        1 CF2      0.073033
     65 H8M1        1.9090    6.7020  -13.9890 hc        1 CF2      0.077033
     66 H8M2        3.3240    7.6090  -14.6650 hc        1 CF2      0.077033
     67 H8M3        2.8330    7.8570  -12.9330 hc        1 CF2      0.077033
     68 H3          8.5810    0.6320   -9.0740 hn        1 CF2      0.386500
     69 H2A3        6.2550   -1.7910    1.7680 hn        1 CF2      0.485800
     70 H1'3        4.9510    5.5530   -6.5450 hn        1 CF2      0.341500
@<TRIPOS>BOND
     1    1    2 2   
     2    2    3 1   
     3    2    7 1   
     4    3    4 1   
     5    3   43 1   
     6    4    5 1   
     7    4    6 2   
     8    5   44 1   
     9    5   45 1   
    10    5   69 1   
    11    6    8 1   
    12    7    8 2   
    13    7    9 1   
    14    8   11 1   
    15    9   10 2   
    16   10   11 1   
    17   10   46 1   
    18   11   12 1   
    19   12   13 1   
    20   12   16 1   
    21   12   47 1   
    22   13   14 1   
    23   13   48 1   
    24   13   49 1   
    25   14   15 1   
    26   14   17 1   
    27   14   50 1   
    28   15   51 1   
    29   16   17 1   
    30   17   18 1   
    31   17   52 1   
    32   18   19 1   
    33   18   53 1   
    34   18   54 1   
    35   19   20 1   
    36   20   21 2   
    37   20   22 1   
    38   22   23 1   
    39   22   70 1   
    40   23   24 1   
    41   23   56 1   
    42   23   57 1   
    43   24   25 1   
    44   24   58 1   
    45   24   59 1   
    46   25   26 1   
    47   25   39 2   
    48   26   27 ar  
    49   26   33 ar  
    50   27   28 ar  
    51   27   34 ar  
    52   28   29 ar  
    53   28   61 1   
    54   29   30 1   
    55   29   31 ar  
    56   30   62 1   
    57   30   63 1   
    58   30   64 1   
    59   31   32 1   
    60   31   33 ar  
    61   32   65 1   
    62   32   66 1   
    63   32   67 1   
    64   33   60 1   
    65   34   35 ar  
    66   35   36 1   
    67   35   39 ar  
    68   36   37 2   
    69   36   38 1   
    70   38   41 1   
    71   38   68 1   
    72   39   40 1   
    73   40   41 1   
    74   40   55 1   
    75   41   42 2   
@<TRIPOS>SUBSTRUCTURE
     1 CF2         1 TEMP              0 ****  ****    0 ROOT
