@<TRIPOS>MOLECULE
CF2
   68    73     1     0     0
SMALL
bcc


@<TRIPOS>ATOM
      1 O6A         6.7830   -4.2660   -0.7460 o         1 CF2     -0.595500
      2 C6A         6.8960   -3.0470   -0.5550 c         1 CF2      0.651000
      3 N1A         8.0820   -2.4150   -1.0230 n         1 CF2     -0.509400
      4 C2A         8.3130   -1.0320   -0.8920 cc        1 CF2      0.682800
      5 N2A         9.4730   -0.5090   -1.5090 nh        1 CF2     -0.892800
      6 N3A         7.4750   -0.1690   -0.2670 nd        1 CF2     -0.680100
      7 C5AA        5.9720   -2.1460    0.1030 cc        1 CF2      0.180800
      8 C4AA        6.3100   -0.7480    0.2030 cd        1 CF2      0.105800
      9 N7A         4.7320   -2.3910    0.6960 nc        1 CF2     -0.587000
     10 C8A         4.3190   -1.1930    1.1450 cd        1 CF2      0.408400
     11 N9A         5.2360   -0.1480    0.8690 na        1 CF2     -0.232900
     12 C1'A        5.1490    1.2490    1.2470 c3        1 CF2      0.264800
     13 C2'A        5.1350    2.2320    0.0540 c3        1 CF2     -0.150400
     14 C3'A        3.7030    2.7740   -0.0130 c3        1 CF2      0.121100
     15 O3'A        3.6720    4.1830    0.1400 oh        1 CF2     -0.585800
     16 O4'A        3.9500    1.4810    2.0000 os        1 CF2     -0.404600
     17 C4'A        2.9760    2.1750    1.2080 c3        1 CF2      0.130100
     18 C5'A        1.8860    1.1770    0.8170 c3        1 CF2      0.126400
     19 O1'         0.8090    1.9650    0.2840 os        1 CF2     -0.436900
     20 C5'        -0.3100    1.2420   -0.0790 c         1 CF2      0.732100
     21 O2'        -0.3280    0.0170    0.1410 o         1 CF2     -0.597000
     22 N1'        -1.2720    2.0110   -0.7020 n         1 CF2     -0.523900
     23 C4'        -2.5640    1.4400   -0.9660 c3        1 CF2      0.071000
     24 C1'        -3.3940    1.1520    0.3130 c3        1 CF2     -0.005700
     25 N10        -4.5770    0.3530    0.0620 na        1 CF2     -0.106100
     26 C9A        -4.4940   -1.0480    0.0560 ca        1 CF2     -0.012600
     27 C5A        -5.6950   -1.8230   -0.0550 ca        1 CF2      0.287600
     28 C6         -5.6130   -3.2370   -0.0020 ca        1 CF2     -0.105300
     29 C7         -4.3930   -3.8770    0.1330 ca        1 CF2     -0.107300
     30 C7M        -4.3280   -5.3570    0.1900 c3        1 CF2     -0.053800
     31 C8         -3.2050   -3.1130    0.2070 ca        1 CF2     -0.000300
     32 C8M        -1.8930   -3.7930    0.3240 c3        1 CF2     -0.070800
     33 C9         -3.2560   -1.7260    0.1660 ca        1 CF2     -0.183000
     34 N5         -6.9430   -1.2240   -0.2230 nc        1 CF2     -0.511000
     35 C4A        -6.9930    0.0760   -0.3300 cd        1 CF2      0.298800
     36 C4         -8.3190    0.7630   -0.5350 c         1 CF2      0.611000
     37 O4         -9.4050    0.1670   -0.5190 o         1 CF2     -0.569500
     38 N3         -8.2790    2.1360   -0.7540 n         1 CF2     -0.615500
     39 C10        -5.7910    0.9750   -0.2660 cd        1 CF2      0.084400
     40 N1         -5.8350    2.2790   -0.4900 nc        1 CF2     -0.427400
     41 C2         -7.0820    2.8960   -0.7520 c         1 CF2      0.850900
     42 O2         -7.1650    4.1150   -0.9850 o         1 CF2     -0.586500
     43 HA'         8.7250   -2.9830   -1.5310 hn        1 CF2      0.335500
     44 HA'1       10.2720   -1.1020   -1.4960 hn        1 CF2      0.420800
     45 HA'2        9.6700    0.4440   -1.2870 hn        1 CF2      0.420800
     46 HAA         3.3850   -0.9920    1.6850 h5        1 CF2      0.076100
     47 HAB         5.9960    1.4680    1.9640 h2        1 CF2      0.103700
     48 HAA1        5.8560    3.0610    0.2640 hc        1 CF2      0.084700
     49 HAA2        5.4320    1.7440   -0.9050 hc        1 CF2      0.084700
     50 HAC         3.1900    2.4800   -0.9680 h1        1 CF2      0.063700
     51 HAD         4.0350    4.5590   -0.6710 ho        1 CF2      0.409000
     52 HAE         2.5610    2.9830    1.8710 h1        1 CF2      0.114700
     53 HAB1        2.2350    0.4510    0.0370 h1        1 CF2      0.069200
     54 HAB2        1.5270    0.6130    1.7170 h1        1 CF2      0.069200
     55 H1'        -1.2000    2.9990   -0.6160 hn        1 CF2      0.333500
     56 H4'1       -3.1300    2.1610   -1.6210 h1        1 CF2      0.083700
     57 H4'2       -2.4090    0.4750   -1.5300 h1        1 CF2      0.083700
     58 H1'1       -2.7530    0.6050    1.0660 h1        1 CF2      0.085700
     59 H1'2       -3.7010    2.1300    0.7830 h1        1 CF2      0.085700
     60 H9         -2.3030   -1.1660    0.2010 ha        1 CF2      0.179000
     61 H6         -6.5440   -3.8260   -0.0750 ha        1 CF2      0.162000
     62 H7M1       -3.7280   -5.7500   -0.6700 hc        1 CF2      0.050700
     63 H7M2       -3.8310   -5.6850    1.1380 hc        1 CF2      0.050700
     64 H7M3       -5.3470   -5.8120    0.1480 hc        1 CF2      0.050700
     65 H8M1       -1.7450   -4.4930   -0.5370 hc        1 CF2      0.060367
     66 H8M2       -1.0490   -3.0600    0.3360 hc        1 CF2      0.060367
     67 H8M3       -1.8570   -4.3940    1.2690 hc        1 CF2      0.060367
     68 H3         -9.1390    2.6180   -0.9110 hn        1 CF2      0.348500
@<TRIPOS>BOND
     1    1    2 2   
     2    2    3 1   
     3    2    7 1   
     4    3    4 1   
     5    3   43 1   
     6    4    5 1   
     7    4    6 2   
     8    5   44 1   
     9    5   45 1   
    10    6    8 1   
    11    7    8 2   
    12    7    9 1   
    13    8   11 1   
    14    9   10 2   
    15   10   11 1   
    16   10   46 1   
    17   11   12 1   
    18   12   13 1   
    19   12   16 1   
    20   12   47 1   
    21   13   14 1   
    22   13   48 1   
    23   13   49 1   
    24   14   15 1   
    25   14   17 1   
    26   14   50 1   
    27   15   51 1   
    28   16   17 1   
    29   17   18 1   
    30   17   52 1   
    31   18   19 1   
    32   18   53 1   
    33   18   54 1   
    34   19   20 1   
    35   20   21 2   
    36   20   22 1   
    37   22   23 1   
    38   22   55 1   
    39   23   24 1   
    40   23   56 1   
    41   23   57 1   
    42   24   25 1   
    43   24   58 1   
    44   24   59 1   
    45   25   26 1   
    46   25   39 1   
    47   26   27 ar  
    48   26   33 ar  
    49   27   28 ar  
    50   27   34 1   
    51   28   29 ar  
    52   28   61 1   
    53   29   30 1   
    54   29   31 ar  
    55   30   62 1   
    56   30   63 1   
    57   30   64 1   
    58   31   32 1   
    59   31   33 ar  
    60   32   65 1   
    61   32   66 1   
    62   32   67 1   
    63   33   60 1   
    64   34   35 2   
    65   35   36 1   
    66   35   39 1   
    67   36   37 2   
    68   36   38 1   
    69   38   41 1   
    70   38   68 1   
    71   39   40 2   
    72   40   41 1   
    73   41   42 2   
@<TRIPOS>SUBSTRUCTURE
     1 CF2         1 TEMP              0 ****  ****    0 ROOT
