@<TRIPOS>MOLECULE
CF3
   40    40     1     0     0
SMALL
bcc


@<TRIPOS>ATOM
      1 C4          0.2200    0.5100    0.2250 ca        1 CF3     -0.104000
      2 C2          0.7200    1.4610    1.1130 ca        1 CF3     -0.100500
      3 C1          0.1580    1.6110    2.3810 ca        1 CF3     -0.068000
      4 C3         -0.9140    0.8070    2.7720 ca        1 CF3     -0.100500
      5 C5         -1.4330   -0.1500    1.9030 ca        1 CF3     -0.104000
      6 C14        -0.8610   -0.2950    0.6260 ca        1 CF3     -0.064400
      7 N1         -1.3830   -1.3090   -0.2950 n4        1 CF3     -0.555200
      8 C12        -2.3160   -0.6930   -1.3400 c         1 CF3      0.556100
      9 O1         -1.8320   -0.6020   -2.4540 o         1 CF3     -0.401100
     10 C10        -3.6790   -0.3170   -0.8480 c3        1 CF3     -0.147400
     11 C8         -4.3950    0.5470   -1.8710 c3        1 CF3     -0.082400
     12 C6         -5.7920    0.8770   -1.3870 c3        1 CF3     -0.080400
     13 C7         -6.5210    1.7380   -2.3990 c3        1 CF3     -0.078400
     14 C9         -7.9110    2.0770   -1.9060 c3        1 CF3     -0.076400
     15 C11        -8.6490    2.9320   -2.9130 c3        1 CF3     -0.179400
     16 C13       -10.0160    3.3000   -2.4400 c         1 CF3      0.543100
     17 O2        -10.5340    2.9860   -1.3780 o         1 CF3     -0.442100
     18 C15       -10.8110    4.1850   -3.4650 c3        1 CF3      0.527900
     19 F3        -12.0650    4.5320   -3.0500 f         1 CF3     -0.222633
     20 F1        -10.9830    3.5700   -4.6780 f         1 CF3     -0.222633
     21 F2        -10.1780    5.3680   -3.7490 f         1 CF3     -0.222633
     22 H4          0.6770    0.4030   -0.7730 ha        1 CF3      0.158000
     23 H2          1.5700    2.0950    0.8040 ha        1 CF3      0.174000
     24 H1          0.5630    2.3650    3.0780 ha        1 CF3      0.174000
     25 H3         -1.3550    0.9230    3.7770 ha        1 CF3      0.174000
     26 H5         -2.2740   -0.7810    2.2320 ha        1 CF3      0.158000
     27 HN1        -1.8950   -2.0190    0.2390 hn        1 CF3      0.461800
     28 H101       -3.5950    0.2330    0.1300 hc        1 CF3      0.102700
     29 H102       -4.2650   -1.2620   -0.6690 hc        1 CF3      0.102700
     30 H81        -3.8150    1.4930   -2.0390 hc        1 CF3      0.072200
     31 H82        -4.4470    0.0080   -2.8540 hc        1 CF3      0.072200
     32 H61        -6.3690   -0.0700   -1.2170 hc        1 CF3      0.051700
     33 H62        -5.7370    1.4180   -0.4050 hc        1 CF3      0.051700
     34 H71        -5.9420    2.6830   -2.5780 hc        1 CF3      0.051700
     35 H72        -6.5870    1.1960   -3.3790 hc        1 CF3      0.051700
     36 H91        -7.8500    2.6240   -0.9280 hc        1 CF3      0.060200
     37 H92        -8.4930    1.1350   -1.7190 hc        1 CF3      0.060200
     38 H111       -8.0820    3.8820   -3.1170 hc        1 CF3      0.092200
     39 H112       -8.7520    2.3880   -3.8930 hc        1 CF3      0.092200
     40 H12        -0.5890   -1.7570   -0.7740 hn        1 CF3      0.461800
@<TRIPOS>BOND
     1    1    2 ar  
     2    1    6 ar  
     3    1   22 1   
     4    2    3 ar  
     5    2   23 1   
     6    3    4 ar  
     7    3   24 1   
     8    4    5 ar  
     9    4   25 1   
    10    5    6 ar  
    11    5   26 1   
    12    6    7 1   
    13    7    8 1   
    14    7   27 1   
    15    7   40 1   
    16    8    9 2   
    17    8   10 1   
    18   10   11 1   
    19   10   28 1   
    20   10   29 1   
    21   11   12 1   
    22   11   30 1   
    23   11   31 1   
    24   12   13 1   
    25   12   32 1   
    26   12   33 1   
    27   13   14 1   
    28   13   34 1   
    29   13   35 1   
    30   14   15 1   
    31   14   36 1   
    32   14   37 1   
    33   15   16 1   
    34   15   38 1   
    35   15   39 1   
    36   16   17 2   
    37   16   18 1   
    38   18   19 1   
    39   18   20 1   
    40   18   21 1   
@<TRIPOS>SUBSTRUCTURE
     1 CF3         1 TEMP              0 ****  ****    0 ROOT
