@<TRIPOS>MOLECULE
CF3
   39    39     1     0     0
SMALL
bcc


@<TRIPOS>ATOM
      1 C4          0.3760    0.5770    0.1790 ca        1 CF3     -0.171000
      2 C2          1.7390    0.4330    0.4260 ca        1 CF3     -0.103500
      3 C1          2.1970   -0.1880    1.5850 ca        1 CF3     -0.158000
      4 C3          1.2750   -0.6720    2.5120 ca        1 CF3     -0.103500
      5 C5         -0.0900   -0.5400    2.2880 ca        1 CF3     -0.171000
      6 C14        -0.5660    0.0900    1.1100 ca        1 CF3      0.069600
      7 N1         -1.9540    0.1980    0.9310 ns        1 CF3     -0.475100
      8 C12        -2.6350    0.7750   -0.1330 c         1 CF3      0.665100
      9 O1         -2.0610    1.2920   -1.1080 o         1 CF3     -0.587100
     10 C10        -4.1540    0.7340   -0.0320 c3        1 CF3     -0.153400
     11 C8         -4.7900    1.3910   -1.2380 c3        1 CF3     -0.074400
     12 C6         -6.3000    1.3510   -1.1400 c3        1 CF3     -0.079400
     13 C7         -6.9360    2.0090   -2.3460 c3        1 CF3     -0.078400
     14 C9         -8.4460    1.9690   -2.2510 c3        1 CF3     -0.075400
     15 C11        -9.0790    2.6280   -3.4570 c3        1 CF3     -0.177400
     16 C13       -10.5680    2.6080   -3.3990 c         1 CF3      0.549100
     17 O2        -11.2730    2.1370   -2.5190 o         1 CF3     -0.447100
     18 C15       -11.2460    3.2890   -4.6430 c3        1 CF3      0.518900
     19 F3        -12.6130    3.2830   -4.6120 f         1 CF3     -0.227967
     20 F1        -10.9110    2.6940   -5.8320 f         1 CF3     -0.227967
     21 F2        -10.8960    4.6070   -4.7930 f         1 CF3     -0.227967
     22 H4          0.0470    1.0730   -0.7490 ha        1 CF3      0.149500
     23 H2          2.4590    0.8180   -0.3120 ha        1 CF3      0.132500
     24 H1          3.2750   -0.2960    1.7690 ha        1 CF3      0.133000
     25 H3          1.6260   -1.1640    3.4310 ha        1 CF3      0.132500
     26 H5         -0.7960   -0.9310    3.0360 ha        1 CF3      0.149500
     27 HN1        -2.5080   -0.1880    1.6630 hn        1 CF3      0.313500
     28 H101       -4.4760    1.2630    0.9040 hc        1 CF3      0.064700
     29 H102       -4.4910   -0.3340    0.0420 hc        1 CF3      0.064700
     30 H81        -4.4350    2.4530   -1.3140 hc        1 CF3      0.061700
     31 H82        -4.4490    0.8680   -2.1700 hc        1 CF3      0.061700
     32 H61        -6.6330    1.8750   -0.2060 hc        1 CF3      0.041700
     33 H62        -6.6470    0.2860   -1.0660 hc        1 CF3      0.041700
     34 H71        -6.5890    3.0730   -2.4210 hc        1 CF3      0.046700
     35 H72        -6.6020    1.4850   -3.2810 hc        1 CF3      0.046700
     36 H91        -8.7980    0.9060   -2.1770 hc        1 CF3      0.056700
     37 H92        -8.7850    2.4920   -1.3180 hc        1 CF3      0.056700
     38 H111       -8.7460    3.6990   -3.5390 hc        1 CF3      0.090700
     39 H112       -8.7590    2.1060   -4.4020 hc        1 CF3      0.090700
@<TRIPOS>BOND
     1    1    2 ar  
     2    1    6 ar  
     3    1   22 1   
     4    2    3 ar  
     5    2   23 1   
     6    3    4 ar  
     7    3   24 1   
     8    4    5 ar  
     9    4   25 1   
    10    5    6 ar  
    11    5   26 1   
    12    6    7 1   
    13    7    8 1   
    14    7   27 1   
    15    8    9 2   
    16    8   10 1   
    17   10   11 1   
    18   10   28 1   
    19   10   29 1   
    20   11   12 1   
    21   11   30 1   
    22   11   31 1   
    23   12   13 1   
    24   12   32 1   
    25   12   33 1   
    26   13   14 1   
    27   13   34 1   
    28   13   35 1   
    29   14   15 1   
    30   14   36 1   
    31   14   37 1   
    32   15   16 1   
    33   15   38 1   
    34   15   39 1   
    35   16   17 2   
    36   16   18 1   
    37   18   19 1   
    38   18   20 1   
    39   18   21 1   
@<TRIPOS>SUBSTRUCTURE
     1 CF3         1 TEMP              0 ****  ****    0 ROOT
