@<TRIPOS>MOLECULE
CF3
   39    39     1     0     0
SMALL
bcc


@<TRIPOS>ATOM
      1 C4         -6.1580   -1.1890   -0.1200 ca        1 CF3     -0.171000
      2 C2         -7.4840   -1.6130   -0.1520 ca        1 CF3     -0.103500
      3 C1         -8.5320   -0.6970   -0.0850 ca        1 CF3     -0.158000
      4 C3         -8.2460    0.6630    0.0160 ca        1 CF3     -0.103500
      5 C5         -6.9310    1.1100    0.0500 ca        1 CF3     -0.171000
      6 C14        -5.8580    0.1850   -0.0180 ca        1 CF3      0.069600
      7 N1         -4.5470    0.6880    0.0200 n         1 CF3     -0.475100
      8 C12        -3.3570   -0.0270   -0.0320 c         1 CF3      0.665100
      9 O1         -3.3120   -1.2660   -0.1240 o         1 CF3     -0.587100
     10 C10        -2.0900    0.8160    0.0310 c3        1 CF3     -0.153400
     11 C8         -0.8590   -0.0620   -0.0340 c3        1 CF3     -0.074400
     12 C6          0.4020    0.7720    0.0290 c3        1 CF3     -0.079400
     13 C7          1.6340   -0.1060   -0.0350 c3        1 CF3     -0.078400
     14 C9          2.8960    0.7270    0.0270 c3        1 CF3     -0.075400
     15 C11         4.1250   -0.1530   -0.0370 c3        1 CF3     -0.177400
     16 C13         5.3900    0.6320    0.0210 c         1 CF3      0.549100
     17 O2          5.5100    1.8460    0.1110 o         1 CF3     -0.447100
     18 C15         6.6800   -0.2630   -0.0440 c3        1 CF3      0.518900
     19 F3          6.7590   -1.0120   -1.1900 f         1 CF3     -0.227967
     20 F1          6.7580   -1.1720    0.9810 f         1 CF3     -0.227967
     21 F2          7.8540    0.4360    0.0080 f         1 CF3     -0.227967
     22 H4         -5.3520   -1.9400   -0.1760 ha        1 CF3      0.149500
     23 H2         -7.7000   -2.6890   -0.2330 ha        1 CF3      0.132500
     24 H1         -9.5750   -1.0430   -0.1110 ha        1 CF3      0.133000
     25 H3         -9.0660    1.3950    0.0700 ha        1 CF3      0.132500
     26 H5         -6.7340    2.1900    0.1310 ha        1 CF3      0.149500
     27 HN1        -4.4740    1.6790    0.0940 hn        1 CF3      0.313500
     28 H101       -2.0870    1.4070    0.9850 hc        1 CF3      0.064700
     29 H102       -2.0860    1.5410   -0.8250 hc        1 CF3      0.064700
     30 H81        -0.8790   -0.6630   -0.9810 hc        1 CF3      0.061700
     31 H82        -0.8800   -0.7960    0.8150 hc        1 CF3      0.061700
     32 H61         0.4150    1.3690    0.9790 hc        1 CF3      0.041700
     33 H62         0.4160    1.5020   -0.8230 hc        1 CF3      0.041700
     34 H71         1.6210   -0.7030   -0.9850 hc        1 CF3      0.046700
     35 H72         1.6200   -0.8370    0.8160 hc        1 CF3      0.046700
     36 H91         2.9140    1.3260    0.9760 hc        1 CF3      0.056700
     37 H92         2.9150    1.4590   -0.8230 hc        1 CF3      0.056700
     38 H111        4.1290   -0.7520   -0.9900 hc        1 CF3      0.090700
     39 H112        4.1280   -0.8860    0.8170 hc        1 CF3      0.090700
@<TRIPOS>BOND
     1    1    2 ar  
     2    1    6 ar  
     3    1   22 1   
     4    2    3 ar  
     5    2   23 1   
     6    3    4 ar  
     7    3   24 1   
     8    4    5 ar  
     9    4   25 1   
    10    5    6 ar  
    11    5   26 1   
    12    6    7 1   
    13    7    8 1   
    14    7   27 1   
    15    8    9 2   
    16    8   10 1   
    17   10   11 1   
    18   10   28 1   
    19   10   29 1   
    20   11   12 1   
    21   11   30 1   
    22   11   31 1   
    23   12   13 1   
    24   12   32 1   
    25   12   33 1   
    26   13   14 1   
    27   13   34 1   
    28   13   35 1   
    29   14   15 1   
    30   14   36 1   
    31   14   37 1   
    32   15   16 1   
    33   15   38 1   
    34   15   39 1   
    35   16   17 2   
    36   16   18 1   
    37   18   19 1   
    38   18   20 1   
    39   18   21 1   
@<TRIPOS>SUBSTRUCTURE
     1 CF3         1 TEMP              0 ****  ****    0 ROOT
