@<TRIPOS>MOLECULE
CF3
   39    36     1     0     0
SMALL
bcc


@<TRIPOS>ATOM
      1 C4          3.7700    3.1300    2.0590 c1        1 CF3     -0.097500
      2 C2          4.4760    3.9180    2.9560 c1        1 CF3     -0.080000
      3 C1          3.8090    4.5650    3.9850 c1        1 CF3     -0.080000
      4 C3          2.4360    4.4240    4.1170 c1        1 CF3     -0.080000
      5 C5          1.7300    3.6360    3.2200 c1        1 CF3     -0.080000
      6 C14         2.3970    2.9890    2.1910 c1        1 CF3      0.082200
      7 N1          1.6620    2.2580    1.2180 n         1 CF3     -0.485700
      8 C12         1.9630    0.8890    0.9820 c         1 CF3      0.665100
      9 O1          2.8480    0.3450    1.6120 o         1 CF3     -0.586100
     10 C10         1.2540    0.1390   -0.1290 c3        1 CF3     -0.159400
     11 C8          0.4930   -1.0320    0.4570 c3        1 CF3     -0.077400
     12 C6          0.0630   -1.9620   -0.6570 c3        1 CF3     -0.080400
     13 C7         -1.4480   -1.9790   -0.7460 c3        1 CF3     -0.080400
     14 C9         -1.8700   -2.6190   -2.0510 c3        1 CF3     -0.076400
     15 C11        -3.3780   -2.7460   -2.0870 c3        1 CF3     -0.177400
     16 C13        -3.8800   -2.4110   -3.4750 c         1 CF3      0.549100
     17 O2         -3.4420   -1.4430   -4.0620 o         1 CF3     -0.444100
     18 C15        -4.9330   -3.2790   -4.1280 c3        1 CF3      0.519900
     19 F3         -4.4650   -4.5270   -4.2590 f         1 CF3     -0.227633
     20 F1         -5.2320   -2.7850   -5.3360 f         1 CF3     -0.227633
     21 F2         -6.0350   -3.2930   -3.3670 f         1 CF3     -0.227633
     22 H4          4.2400    2.6760    1.3350 ha        1 CF3      0.115500
     23 H2          5.4420    4.0170    2.8630 ha        1 CF3      0.073750
     24 H1          4.3050    5.1190    4.6160 ha        1 CF3      0.073750
     25 H3          1.9660    4.8790    4.8410 ha        1 CF3      0.073750
     26 H5          0.7640    3.5370    3.3130 ha        1 CF3      0.073750
     27 HN1         0.9680    2.6530    0.7800 hn        1 CF3      0.314500
     28 H101        1.9140   -0.1900   -0.7730 hc        1 CF3      0.074200
     29 H102        0.6300    0.7410   -0.5820 hc        1 CF3      0.074200
     30 H81         1.0690   -1.5150    1.0810 hc        1 CF3      0.049200
     31 H82        -0.2970   -0.7030    0.9300 hc        1 CF3      0.049200
     32 H61         0.3880   -2.8660   -0.4710 hc        1 CF3      0.050200
     33 H62         0.4360   -1.6500   -1.5050 hc        1 CF3      0.050200
     34 H71        -1.7870   -1.0620   -0.7080 hc        1 CF3      0.041700
     35 H72        -1.8130   -2.4930    0.0020 hc        1 CF3      0.041700
     36 H91        -1.4660   -3.5070   -2.1240 hc        1 CF3      0.059700
     37 H92        -1.5720   -2.0630   -2.7990 hc        1 CF3      0.059700
     38 H111       -3.6330   -3.6630   -1.8600 hc        1 CF3      0.089200
     39 H112       -3.7720   -2.1280   -1.4400 hc        1 CF3      0.089200
@<TRIPOS>BOND
     1    1    6 3   
     2    1   22 1   
     3    2    3 3   
     4    2   23 1   
     5    3   24 1   
     6    4    5 3   
     7    4   25 1   
     8    5   26 1   
     9    6    7 1   
    10    7    8 1   
    11    7   27 1   
    12    8    9 2   
    13    8   10 1   
    14   10   11 1   
    15   10   28 1   
    16   10   29 1   
    17   11   12 1   
    18   11   30 1   
    19   11   31 1   
    20   12   13 1   
    21   12   32 1   
    22   12   33 1   
    23   13   14 1   
    24   13   34 1   
    25   13   35 1   
    26   14   15 1   
    27   14   36 1   
    28   14   37 1   
    29   15   16 1   
    30   15   38 1   
    31   15   39 1   
    32   16   17 2   
    33   16   18 1   
    34   18   19 1   
    35   18   20 1   
    36   18   21 1   
@<TRIPOS>SUBSTRUCTURE
     1 CF3         1 TEMP              0 ****  ****    0 ROOT
