@<TRIPOS>MOLECULE
CF3
   39    39     1     0     0
SMALL
bcc


@<TRIPOS>ATOM
      1 C4          0.3690    0.3940    0.0870 ca        1 CF3     -0.171000
      2 C2          1.7290    0.1850    0.3020 ca        1 CF3     -0.103500
      3 C1          2.1950   -0.3200    1.5130 ca        1 CF3     -0.158000
      4 C3          1.2840   -0.6200    2.5250 ca        1 CF3     -0.103500
      5 C5         -0.0780   -0.4200    2.3340 ca        1 CF3     -0.171000
      6 C14        -0.5610    0.0940    1.1040 ca        1 CF3      0.069600
      7 N1         -1.9470    0.2780    0.9620 n         1 CF3     -0.475100
      8 C12        -2.6340    0.7580   -0.1450 c         1 CF3      0.665100
      9 O1         -2.0710    1.1030   -1.1980 o         1 CF3     -0.587100
     10 C10        -4.1460    0.8400    0.0150 c3        1 CF3     -0.153400
     11 C8         -4.7910    1.3710   -1.2470 c3        1 CF3     -0.074400
     12 C6         -6.2940    1.4540   -1.0910 c3        1 CF3     -0.079400
     13 C7         -6.9400    1.9840   -2.3530 c3        1 CF3     -0.078400
     14 C9         -8.4430    2.0690   -2.1990 c3        1 CF3     -0.075400
     15 C11        -9.0850    2.5990   -3.4620 c3        1 CF3     -0.177400
     16 C13       -10.5670    2.6970   -3.3480 c         1 CF3      0.549100
     17 O2        -11.2610    2.4070   -2.3840 o         1 CF3     -0.447100
     18 C15       -11.2550    3.2450   -4.6510 c3        1 CF3      0.518900
     19 F3        -11.0180    2.4650   -5.7540 f         1 CF3     -0.227967
     20 F1        -10.8230    4.4980   -5.0020 f         1 CF3     -0.227967
     21 F2        -12.6170    3.3450   -4.5690 f         1 CF3     -0.227967
     22 H4          0.0330    0.7950   -0.8840 ha        1 CF3      0.149500
     23 H2          2.4400    0.4250   -0.5030 ha        1 CF3      0.132500
     24 H1          3.2700   -0.4800    1.6710 ha        1 CF3      0.133000
     25 H3          1.6420   -1.0190    3.4860 ha        1 CF3      0.132500
     26 H5         -0.7740   -0.6650    3.1500 ha        1 CF3      0.149500
     27 HN1        -2.4920    0.0280    1.7570 hn        1 CF3      0.313500
     28 H101       -4.3910    1.5130    0.8790 hc        1 CF3      0.064700
     29 H102       -4.5490   -0.1810    0.2480 hc        1 CF3      0.064700
     30 H81        -4.5290    0.7020   -2.1090 hc        1 CF3      0.061700
     31 H82        -4.3700    2.3840   -1.4830 hc        1 CF3      0.061700
     32 H61        -6.5490    2.1250   -0.2280 hc        1 CF3      0.041700
     33 H62        -6.7080    0.4390   -0.8550 hc        1 CF3      0.041700
     34 H71        -6.6850    1.3130   -3.2160 hc        1 CF3      0.046700
     35 H72        -6.5260    3.0000   -2.5900 hc        1 CF3      0.046700
     36 H91        -8.7030    2.7400   -1.3370 hc        1 CF3      0.056700
     37 H92        -8.8620    1.0550   -1.9620 hc        1 CF3      0.056700
     38 H111       -8.6840    3.6210   -3.7070 hc        1 CF3      0.090700
     39 H112       -8.8450    1.9290   -4.3340 hc        1 CF3      0.090700
@<TRIPOS>BOND
     1    1    2 ar  
     2    1    6 ar  
     3    1   22 1   
     4    2    3 ar  
     5    2   23 1   
     6    3    4 ar  
     7    3   24 1   
     8    4    5 ar  
     9    4   25 1   
    10    5    6 ar  
    11    5   26 1   
    12    6    7 1   
    13    7    8 1   
    14    7   27 1   
    15    8    9 2   
    16    8   10 1   
    17   10   11 1   
    18   10   28 1   
    19   10   29 1   
    20   11   12 1   
    21   11   30 1   
    22   11   31 1   
    23   12   13 1   
    24   12   32 1   
    25   12   33 1   
    26   13   14 1   
    27   13   34 1   
    28   13   35 1   
    29   14   15 1   
    30   14   36 1   
    31   14   37 1   
    32   15   16 1   
    33   15   38 1   
    34   15   39 1   
    35   16   17 2   
    36   16   18 1   
    37   18   19 1   
    38   18   20 1   
    39   18   21 1   
@<TRIPOS>SUBSTRUCTURE
     1 CF3         1 TEMP              0 ****  ****    0 ROOT
