@<TRIPOS>MOLECULE
CF4
   45    46     1     0     0
SMALL
bcc


@<TRIPOS>ATOM
      1 O4         -0.0640   -0.1280    0.1330 o         1 CF4     -0.571500
      2 C4          1.1630    0.0180    0.0360 c         1 CF4      0.610000
      3 N3          1.9350    0.2130    1.1750 n         1 CF4     -0.615500
      4 C2          3.3460    0.3600    1.1490 c         1 CF4      0.849900
      5 O2          3.9300    0.5500    2.2320 o         1 CF4     -0.584500
      6 N1          4.0590    0.2870   -0.0710 nc        1 CF4     -0.416400
      7 C4A         1.8980    0.0020   -1.2810 cd        1 CF4      0.301800
      8 C10         3.3960    0.0970   -1.2010 cd        1 CF4      0.083400
      9 N5          1.2270   -0.0880   -2.3960 nc        1 CF4     -0.516000
     10 C5A         1.9390   -0.0840   -3.5940 ca        1 CF4      0.286600
     11 C6          1.2220   -0.1280   -4.8160 ca        1 CF4     -0.101300
     12 C7          1.8810   -0.1030   -6.0330 ca        1 CF4     -0.110300
     13 C7M         1.1150   -0.1560   -7.3000 c3        1 CF4     -0.052800
     14 C8          3.2930   -0.0180   -6.0610 ca        1 CF4     -0.006300
     15 C8M         4.0010    0.0330   -7.3630 c3        1 CF4     -0.066800
     16 C9          4.0190    0.0230   -4.8790 ca        1 CF4     -0.181000
     17 C9A         3.3720   -0.0290   -3.6210 ca        1 CF4     -0.004600
     18 N10         4.0860   -0.0420   -2.4150 na        1 CF4     -0.106100
     19 C1'         5.5410   -0.0910   -2.4260 c3        1 CF4      0.028300
     20 C2'         6.2230    1.2720   -2.5450 c3        1 CF4     -0.100400
     21 C3'         7.7200    1.0780   -2.6390 c3        1 CF4     -0.087400
     22 C4'         8.4180    2.4360   -2.7100 c3        1 CF4      0.157800
     23 N1'         9.8400    2.3230   -2.9420 n3        1 CF4     -0.935800
     24 C5'        10.6000    1.1580   -5.3280 c1        1 CF4      0.906000
     25 O1'        11.5620    1.8580   -5.3270 o         1 CF4     -0.455500
     26 O2'         9.6520    0.4380   -5.3700 o         1 CF4     -0.455500
     27 H3          1.4780    0.2440    2.0610 hn        1 CF4      0.348500
     28 H6          0.1200   -0.1820   -4.7840 ha        1 CF4      0.163000
     29 H7M1        0.0160   -0.2190   -7.1090 hc        1 CF4      0.050033
     30 H7M2        1.3160    0.7600   -7.9130 hc        1 CF4      0.050033
     31 H7M3        1.4230   -1.0500   -7.9000 hc        1 CF4      0.050033
     32 H8M1        5.1080    0.0990   -7.2290 hc        1 CF4      0.055700
     33 H8M2        3.6600    0.9240   -7.9490 hc        1 CF4      0.055700
     34 H8M3        3.7690   -0.8850   -7.9600 hc        1 CF4      0.055700
     35 H9          5.1160    0.1120   -4.9400 ha        1 CF4      0.153000
     36 H1'1        5.8610   -0.7540   -3.2820 h1        1 CF4      0.078200
     37 H1'2        5.8940   -0.5930   -1.4780 h1        1 CF4      0.078200
     38 H2'1        5.8530    1.8140   -3.4550 hc        1 CF4      0.058700
     39 H2'2        5.9720    1.8990   -1.6500 hc        1 CF4      0.058700
     40 H3'1        7.9730    0.4730   -3.5510 hc        1 CF4      0.055700
     41 H3'2        8.0850    0.5090   -1.7440 hc        1 CF4      0.055700
     42 H4'1        7.9820    3.0240   -3.5680 h1        1 CF4      0.030700
     43 H4'2        8.1780    3.0050   -1.7630 h1        1 CF4      0.030700
     44 H1'        10.2750    1.7650   -2.2340 hn        1 CF4      0.355800
     45 H1'3       10.2660    3.2290   -2.9530 hn        1 CF4      0.355800
@<TRIPOS>BOND
     1    1    2 2   
     2    2    3 1   
     3    2    7 1   
     4    3    4 1   
     5    3   27 1   
     6    4    5 2   
     7    4    6 1   
     8    6    8 2   
     9    7    8 1   
    10    7    9 2   
    11    8   18 1   
    12    9   10 1   
    13   10   11 ar  
    14   10   17 ar  
    15   11   12 ar  
    16   11   28 1   
    17   12   13 1   
    18   12   14 ar  
    19   13   29 1   
    20   13   30 1   
    21   13   31 1   
    22   14   15 1   
    23   14   16 ar  
    24   15   32 1   
    25   15   33 1   
    26   15   34 1   
    27   16   17 ar  
    28   16   35 1   
    29   17   18 1   
    30   18   19 1   
    31   19   20 1   
    32   19   36 1   
    33   19   37 1   
    34   20   21 1   
    35   20   38 1   
    36   20   39 1   
    37   21   22 1   
    38   21   40 1   
    39   21   41 1   
    40   22   23 1   
    41   22   42 1   
    42   22   43 1   
    43   23   44 1   
    44   23   45 1   
    45   24   25 2   
    46   24   26 2   
@<TRIPOS>SUBSTRUCTURE
     1 CF4         1 TEMP              0 ****  ****    0 ROOT
