@<TRIPOS>MOLECULE
CF4
   44    42     1     0     0
SMALL
bcc


@<TRIPOS>ATOM
      1 O4         -4.4460   -0.5260    2.7100 o         1 CF4     -0.316000
      2 C4         -3.2320   -0.5000    2.6890 c1        1 CF4      0.358000
      3 N3         -2.5000   -0.6020    3.8990 n2        1 CF4     -0.398000
      4 C2         -1.0410   -0.6460    3.8690 c2        1 CF4      0.370000
      5 O2         -0.4150   -0.7200    4.9070 o         1 CF4     -0.319000
      6 N1         -0.3320   -0.5850    2.5930 n2        1 CF4     -0.278000
      7 C4A        -2.5100   -0.4390    1.3870 c2        1 CF4     -0.125000
      8 C10        -1.0720   -0.4820    1.3600 c2        1 CF4      0.179000
      9 N5         -3.2400   -0.3340    0.1710 n1        1 CF4      0.005000
     10 C5A        -2.5340   -0.3180   -1.1040 c1        1 CF4     -0.114000
     11 C6         -3.2530   -0.2220   -2.3000 c2        1 CF4     -0.043000
     12 C7         -2.5770   -0.1910   -3.5180 c1        1 CF4     -0.108000
     13 C7M        -3.5960   -0.4530   -4.6040 c2        1 CF4     -0.174000
     14 C8         -1.1760   -0.2560   -3.5460 c2        1 CF4      0.002000
     15 C8M        -0.7230    0.0810   -4.9480 c3        1 CF4     -0.192000
     16 C9         -0.4580   -0.3510   -2.3560 c1        1 CF4     -0.172000
     17 C9A        -1.1340   -0.3820   -1.1320 c1        1 CF4      0.090000
     18 N10        -0.3830   -0.4660    0.1140 n3        1 CF4     -0.160000
     19 C1'         1.0360   -0.6190    0.0820 c3        1 CF4     -0.043000
     20 C2'         1.6870    0.5830    0.7280 c3        1 CF4     -0.181000
     21 C3'         3.0710    0.2080    1.2110 c3        1 CF4     -0.172000
     22 C4'         3.5810    1.2730    2.1590 c3        1 CF4     -0.026000
     23 N1'         4.8700    0.9040    2.6380 n         1 CF4     -0.408000
     24 C5'         5.2460    1.2070    3.9760 c2        1 CF4      0.391000
     25 O1'         6.4640    1.3370    4.2760 o         1 CF4     -0.573000
     26 O2'         4.3610    1.3370    4.8650 o         1 CF4     -0.573000
     27 H3         -2.9410   -0.6670    4.6930 hn        1 CF4      0.255000
     28 H6         -4.2280   -0.2020   -2.2830 ha        1 CF4      0.155000
     29 H7M1       -4.1180   -1.2520   -4.3760 ha        1 CF4      0.085333
     30 H7M2       -4.1960    0.3180   -4.6810 ha        1 CF4      0.085333
     31 H7M3       -3.1360   -0.5960   -5.4570 ha        1 CF4      0.085333
     32 H8M1       -1.0490    0.9730   -5.1920 hc        1 CF4      0.096333
     33 H8M2        0.2560    0.0690   -4.9870 hc        1 CF4      0.096333
     34 H8M3       -1.0840   -0.5810   -5.5760 hc        1 CF4      0.096333
     35 H9          0.5140   -0.3960   -2.3760 ha        1 CF4      0.170000
     36 H1'1        1.2880   -1.4300    0.5720 h1        1 CF4      0.119500
     37 H1'2        1.3350   -0.6920   -0.8460 h1        1 CF4      0.119500
     38 H2'1        1.7540    1.3070    0.0760 hc        1 CF4      0.096500
     39 H2'2        1.1460    0.8780    1.4880 hc        1 CF4      0.096500
     40 H3'1        3.0330   -0.6520    1.6760 hc        1 CF4      0.074500
     41 H3'2        3.6760    0.1370    0.4450 hc        1 CF4      0.074500
     42 H4'1        2.9650    1.3590    2.9150 h1        1 CF4      0.063500
     43 H4'2        3.6410    2.1300    1.6870 h1        1 CF4      0.063500
     44 H1'         5.4510    0.4610    2.0910 hn        1 CF4      0.150000
@<TRIPOS>BOND
     1    1    2 1   
     2    2    7 1   
     3    3    4 1   
     4    3   27 1   
     5    4    5 1   
     6    4    6 1   
     7    6    8 1   
     8    7    8 1   
     9    7    9 1   
    10    8   18 1   
    11   10   11 1   
    12   10   17 1   
    13   11   12 1   
    14   11   28 1   
    15   12   14 1   
    16   13   29 1   
    17   13   30 1   
    18   13   31 1   
    19   14   15 1   
    20   14   16 1   
    21   15   32 1   
    22   15   33 1   
    23   15   34 1   
    24   16   35 1   
    25   17   18 1   
    26   18   19 1   
    27   19   20 1   
    28   19   36 1   
    29   19   37 1   
    30   20   21 1   
    31   20   38 1   
    32   20   39 1   
    33   21   22 1   
    34   21   40 1   
    35   21   41 1   
    36   22   23 1   
    37   22   42 1   
    38   22   43 1   
    39   23   24 1   
    40   23   44 1   
    41   24   25 1   
    42   24   26 1   
@<TRIPOS>SUBSTRUCTURE
     1 CF4         1 TEMP              0 ****  ****    0 ROOT
