@<TRIPOS>MOLECULE
CF4
   45    46     1     0     0
SMALL
bcc


@<TRIPOS>ATOM
      1 O4         -0.0530   -0.1260    0.1480 o         1 CF4     -0.571500
      2 C4          1.1740    0.0190    0.0470 c         1 CF4      0.610000
      3 N3          1.9490    0.2120    1.1830 ns        1 CF4     -0.615500
      4 C2          3.3610    0.3570    1.1540 c         1 CF4      0.849900
      5 O2          3.9470    0.5460    2.2350 o         1 CF4     -0.584500
      6 N1          4.0690    0.2840   -0.0690 nc        1 CF4     -0.416400
      7 C4A         1.9040    0.0030   -1.2720 cd        1 CF4      0.301800
      8 C10         3.4020    0.0960   -1.1970 cd        1 CF4      0.083400
      9 N5          1.2290   -0.0850   -2.3850 nc        1 CF4     -0.516000
     10 C5A         1.9380   -0.0810   -3.5860 ca        1 CF4      0.286600
     11 C6          1.2180   -0.1230   -4.8050 ca        1 CF4     -0.101300
     12 C7          1.8730   -0.0970   -6.0240 ca        1 CF4     -0.110300
     13 C7M         1.1030   -0.1490   -7.2900 c3        1 CF4     -0.052800
     14 C8          3.2850   -0.0140   -6.0570 ca        1 CF4     -0.006300
     15 C8M         3.9880    0.0370   -7.3610 c3        1 CF4     -0.066800
     16 C9          4.0150    0.0250   -4.8770 ca        1 CF4     -0.181000
     17 C9A         3.3710   -0.0280   -3.6170 ca        1 CF4     -0.004600
     18 N10         4.0890   -0.0420   -2.4130 na        1 CF4     -0.106100
     19 C1'         5.5440   -0.0930   -2.4290 c3        1 CF4      0.028300
     20 C2'         6.2260    1.2690   -2.5480 c3        1 CF4     -0.100400
     21 C3'         7.7240    1.0730   -2.6480 c3        1 CF4     -0.087400
     22 C4'         8.4230    2.4300   -2.7180 c3        1 CF4      0.157800
     23 N1'         9.8440    2.3170   -2.9570 n8        1 CF4     -0.935800
     24 C5'        10.5900    1.1590   -5.3510 c1        1 CF4      0.906000
     25 O1'        11.5530    1.8580   -5.3520 o         1 CF4     -0.455500
     26 O2'         9.6420    0.4400   -5.3910 o         1 CF4     -0.455500
     27 H3          1.4940    0.2430    2.0710 hn        1 CF4      0.348500
     28 H6          0.1150   -0.1760   -4.7700 ha        1 CF4      0.163000
     29 H7M1        1.3050    0.7660   -7.9030 hc        1 CF4      0.050033
     30 H7M2        1.4050   -1.0440   -7.8900 hc        1 CF4      0.050033
     31 H7M3        0.0040   -0.2080   -7.0950 hc        1 CF4      0.050033
     32 H8M1        3.6480    0.9300   -7.9440 hc        1 CF4      0.055700
     33 H8M2        5.0960    0.0990   -7.2300 hc        1 CF4      0.055700
     34 H8M3        3.7520   -0.8790   -7.9590 hc        1 CF4      0.055700
     35 H9          5.1120    0.1130   -4.9410 ha        1 CF4      0.153000
     36 H1'1        5.8990   -0.5960   -1.4820 h1        1 CF4      0.078200
     37 H1'2        5.8600   -0.7550   -3.2860 h1        1 CF4      0.078200
     38 H2'1        5.8540    1.8130   -3.4560 hc        1 CF4      0.058700
     39 H2'2        5.9800    1.8950   -1.6510 hc        1 CF4      0.058700
     40 H3'1        8.0910    0.5010   -1.7560 hc        1 CF4      0.055700
     41 H3'2        7.9720    0.4700   -3.5630 hc        1 CF4      0.055700
     42 H4'1        8.1880    2.9970   -1.7680 h1        1 CF4      0.030700
     43 H4'2        7.9840    3.0220   -3.5720 h1        1 CF4      0.030700
     44 H1'        10.2710    3.2220   -2.9660 hn        1 CF4      0.356300
     45 H1'3       10.2810    1.7550   -2.2530 hn        1 CF4      0.356300
@<TRIPOS>BOND
     1    1    2 2   
     2    2    3 1   
     3    2    7 1   
     4    3    4 1   
     5    3   27 1   
     6    4    5 2   
     7    4    6 1   
     8    6    8 2   
     9    7    8 1   
    10    7    9 2   
    11    8   18 1   
    12    9   10 1   
    13   10   11 ar  
    14   10   17 ar  
    15   11   12 ar  
    16   11   28 1   
    17   12   13 1   
    18   12   14 ar  
    19   13   29 1   
    20   13   30 1   
    21   13   31 1   
    22   14   15 1   
    23   14   16 ar  
    24   15   32 1   
    25   15   33 1   
    26   15   34 1   
    27   16   17 ar  
    28   16   35 1   
    29   17   18 1   
    30   18   19 1   
    31   19   20 1   
    32   19   36 1   
    33   19   37 1   
    34   20   21 1   
    35   20   38 1   
    36   20   39 1   
    37   21   22 1   
    38   21   40 1   
    39   21   41 1   
    40   22   23 1   
    41   22   42 1   
    42   22   43 1   
    43   23   44 1   
    44   23   45 1   
    45   24   25 2   
    46   24   26 2   
@<TRIPOS>SUBSTRUCTURE
     1 CF4         1 TEMP              0 ****  ****    0 ROOT
