@<TRIPOS>MOLECULE
CF4
   44    46     1     0     0
SMALL
bcc


@<TRIPOS>ATOM
      1 O4         -0.7420   19.1950   -3.3370 o         1 CF4     -0.608500
      2 C4         -0.3600   20.3610   -3.1330 c         1 CF4      0.613000
      3 N3         -0.7610   21.3750   -3.9910 n         1 CF4     -0.620500
      4 C2         -0.3810   22.7360   -3.8220 c         1 CF4      0.851900
      5 O2         -0.8020   23.5440   -4.6760 o         1 CF4     -0.623500
      6 N1          0.4270   23.1340   -2.7450 nc        1 CF4     -0.435400
      7 C4A         0.5310   20.7600   -1.9900 cd        1 CF4      0.270800
      8 C10         0.8450   22.2210   -1.8670 cd        1 CF4      0.089400
      9 N5          0.9850   19.8380   -1.1780 nc        1 CF4     -0.519000
     10 C5A         1.8140   20.2330   -0.1400 ca        1 CF4      0.270600
     11 C6          2.3500   19.2460    0.7310 ca        1 CF4     -0.127300
     12 C7          3.1960   19.5900    1.7660 ca        1 CF4     -0.119300
     13 C7M         3.7500   18.5500    2.6650 c3        1 CF4     -0.044800
     14 C8          3.5420   20.9510    1.9670 ca        1 CF4      0.010700
     15 C8M         4.4560   21.3550    3.0620 c3        1 CF4     -0.083800
     16 C9          3.0290   21.9340    1.1370 ca        1 CF4     -0.155000
     17 C9A         2.1490   21.6140    0.0740 ca        1 CF4     -0.006600
     18 N10         1.6030   22.6010   -0.7570 na        1 CF4     -0.073100
     19 C1'         1.9040   24.0130   -0.5130 c3        1 CF4      0.004300
     20 C2'         3.2170   24.4890   -1.1370 c3        1 CF4     -0.097400
     21 C3'         3.3140   26.0020   -1.1340 c3        1 CF4     -0.109400
     22 C4'         4.1910   26.5530    0.0010 c3        1 CF4      0.073000
     23 N1'         3.6710   26.4610    1.3320 n         1 CF4     -0.567900
     24 C5'         3.8030   25.1880    2.0090 c         1 CF4      0.965600
     25 O1'         2.8330   24.8180    2.7420 o         1 CF4     -0.853800
     26 O2'         4.8490   24.4850    1.8370 o         1 CF4     -0.853800
     27 H3         -1.3470   21.1430   -4.7620 hn        1 CF4      0.333500
     28 H6          2.0780   18.1910    0.5630 ha        1 CF4      0.144000
     29 H7M1        3.3240   17.5430    2.4360 hc        1 CF4      0.040033
     30 H7M2        4.8620   18.5000    2.5540 hc        1 CF4      0.040033
     31 H7M3        3.5200   18.8010    3.7310 hc        1 CF4      0.040033
     32 H8M1        5.4100   20.7750    3.0040 hc        1 CF4      0.068700
     33 H8M2        4.6890   22.4570    2.9980 hc        1 CF4      0.068700
     34 H8M3        3.9770   21.1480    4.0510 hc        1 CF4      0.068700
     35 H9          3.3380   22.9840    1.3420 ha        1 CF4      0.235000
     36 H1'1        1.0500   24.6300   -0.9140 h1        1 CF4      0.100700
     37 H1'2        1.9390   24.1820    0.6090 h1        1 CF4      0.100700
     38 H2'1        4.0780   24.0560   -0.5560 hc        1 CF4      0.061200
     39 H2'2        3.2880   24.1210   -2.1940 hc        1 CF4      0.061200
     40 H3'1        3.7730   26.3310   -2.1030 hc        1 CF4      0.031200
     41 H3'2        2.2920   26.4620   -1.0850 hc        1 CF4      0.031200
     42 H4'1        5.1840   26.0200   -0.0200 h1        1 CF4      0.040200
     43 H4'2        4.3710   27.6450   -0.2250 h1        1 CF4      0.040200
     44 H1'         2.7450   26.8260    1.4150 hn        1 CF4      0.243500
@<TRIPOS>BOND
     1    1    2 2   
     2    2    3 1   
     3    2    7 1   
     4    3    4 1   
     5    3   27 1   
     6    4    5 2   
     7    4    6 1   
     8    6    8 2   
     9    7    8 1   
    10    7    9 2   
    11    8   18 1   
    12    9   10 1   
    13   10   11 ar  
    14   10   17 ar  
    15   11   12 ar  
    16   11   28 1   
    17   12   13 1   
    18   12   14 ar  
    19   13   29 1   
    20   13   30 1   
    21   13   31 1   
    22   14   15 1   
    23   14   16 ar  
    24   15   32 1   
    25   15   33 1   
    26   15   34 1   
    27   16   17 ar  
    28   16   35 1   
    29   17   18 1   
    30   18   19 1   
    31   19   20 1   
    32   19   36 1   
    33   19   37 1   
    34   20   21 1   
    35   20   38 1   
    36   20   39 1   
    37   21   22 1   
    38   21   40 1   
    39   21   41 1   
    40   22   23 1   
    41   22   42 1   
    42   22   43 1   
    43   23   24 1   
    44   23   44 1   
    45   24   25 1   
    46   24   26 1   
@<TRIPOS>SUBSTRUCTURE
     1 CF4         1 TEMP              0 ****  ****    0 ROOT
