@<TRIPOS>MOLECULE
CF4
   45    46     1     0     0
SMALL
bcc


@<TRIPOS>ATOM
      1 O4         -0.0440   -0.1480    0.1560 o         1 CF4     -0.571500
      2 C4          1.1820    0.0030    0.0540 c         1 CF4      0.610000
      3 N3          1.9580    0.1990    1.1890 n         1 CF4     -0.615500
      4 C2          3.3690    0.3500    1.1570 c         1 CF4      0.849900
      5 O2          3.9560    0.5410    2.2370 o         1 CF4     -0.584500
      6 N1          4.0760    0.2800   -0.0670 nc        1 CF4     -0.416400
      7 C4A         1.9100   -0.0110   -1.2670 cd        1 CF4      0.301800
      8 C10         3.4080    0.0890   -1.1940 cd        1 CF4      0.083400
      9 N5          1.2340   -0.1020   -2.3790 nc        1 CF4     -0.516000
     10 C5A         1.9410   -0.0940   -3.5810 ca        1 CF4      0.286600
     11 C6          1.2190   -0.1390   -4.7990 ca        1 CF4     -0.101300
     12 C7          1.8730   -0.1100   -6.0190 ca        1 CF4     -0.110300
     13 C7M         1.1010   -0.1650   -7.2830 c3        1 CF4     -0.052800
     14 C8          3.2840   -0.0210   -6.0540 ca        1 CF4     -0.006300
     15 C8M         3.9850    0.0340   -7.3580 c3        1 CF4     -0.066800
     16 C9          4.0160    0.0210   -4.8750 ca        1 CF4     -0.181000
     17 C9A         3.3730   -0.0340   -3.6140 ca        1 CF4     -0.004600
     18 N10         4.0940   -0.0450   -2.4110 na        1 CF4     -0.106100
     19 C1'         5.5490   -0.0900   -2.4290 c3        1 CF4      0.028300
     20 C2'         6.2250    1.2750   -2.5500 c3        1 CF4     -0.100400
     21 C3'         7.7230    1.0860   -2.6530 c3        1 CF4     -0.087400
     22 C4'         8.4160    2.4470   -2.7250 c3        1 CF4      0.157800
     23 N1'         9.8360    2.3390   -2.9680 n3        1 CF4     -0.935800
     24 C5'        10.5800    1.1880   -5.3660 c1        1 CF4      0.906000
     25 O1'        11.5380    1.8930   -5.3700 o         1 CF4     -0.455500
     26 O2'         9.6350    0.4640   -5.4030 o         1 CF4     -0.455500
     27 H3          1.5040    0.2280    2.0770 hn        1 CF4      0.348500
     28 H6          0.1170   -0.1970   -4.7620 ha        1 CF4      0.163000
     29 H7M1        1.2980    0.7510   -7.8970 hc        1 CF4      0.050033
     30 H7M2        1.4070   -1.0580   -7.8840 hc        1 CF4      0.050033
     31 H7M3        0.0030   -0.2300   -7.0870 hc        1 CF4      0.050033
     32 H8M1        3.6410    0.9250   -7.9410 hc        1 CF4      0.055700
     33 H8M2        5.0930    0.1010   -7.2290 hc        1 CF4      0.055700
     34 H8M3        3.7520   -0.8830   -7.9570 hc        1 CF4      0.055700
     35 H9          5.1120    0.1140   -4.9400 ha        1 CF4      0.153000
     36 H1'1        5.9070   -0.5910   -1.4830 h1        1 CF4      0.078200
     37 H1'2        5.8660   -0.7510   -3.2870 h1        1 CF4      0.078200
     38 H2'1        5.8480    1.8180   -3.4560 hc        1 CF4      0.058700
     39 H2'2        5.9780    1.9000   -1.6510 hc        1 CF4      0.058700
     40 H3'1        8.0950    0.5160   -1.7620 hc        1 CF4      0.055700
     41 H3'2        7.9720    0.4850   -3.5690 hc        1 CF4      0.055700
     42 H4'1        8.1810    3.0120   -1.7740 h1        1 CF4      0.030700
     43 H4'2        7.9720    3.0370   -3.5770 h1        1 CF4      0.030700
     44 H1'        10.2590    3.2460   -2.9780 hn        1 CF4      0.355800
     45 H1'3       10.2780    1.7790   -2.2660 hn        1 CF4      0.355800
@<TRIPOS>BOND
     1    1    2 2   
     2    2    3 1   
     3    2    7 1   
     4    3    4 1   
     5    3   27 1   
     6    4    5 2   
     7    4    6 1   
     8    6    8 2   
     9    7    8 1   
    10    7    9 2   
    11    8   18 1   
    12    9   10 1   
    13   10   11 ar  
    14   10   17 ar  
    15   11   12 ar  
    16   11   28 1   
    17   12   13 1   
    18   12   14 ar  
    19   13   29 1   
    20   13   30 1   
    21   13   31 1   
    22   14   15 1   
    23   14   16 ar  
    24   15   32 1   
    25   15   33 1   
    26   15   34 1   
    27   16   17 ar  
    28   16   35 1   
    29   17   18 1   
    30   18   19 1   
    31   19   20 1   
    32   19   36 1   
    33   19   37 1   
    34   20   21 1   
    35   20   38 1   
    36   20   39 1   
    37   21   22 1   
    38   21   40 1   
    39   21   41 1   
    40   22   23 1   
    41   22   42 1   
    42   22   43 1   
    43   23   44 1   
    44   23   45 1   
    45   24   25 2   
    46   24   26 2   
@<TRIPOS>SUBSTRUCTURE
     1 CF4         1 TEMP              0 ****  ****    0 ROOT
