@<TRIPOS>MOLECULE
CF5
   39    41     1     0     0
SMALL
bcc


@<TRIPOS>ATOM
      1 O1P        -3.9400   -1.0210    1.4770 o         1 CF5     -0.929833
      2 P          -4.5130    0.3170    1.0470 p5        1 CF5      1.334900
      3 O3P        -3.9740    1.4850    1.8190 o         1 CF5     -0.929833
      4 O2P        -5.9490    0.3350    0.6290 o         1 CF5     -0.929833
      5 O5S        -3.6420    0.4690   -0.4590 os        1 CF5     -0.554200
      6 C5S        -2.2850    0.5040   -0.3070 c3        1 CF5      0.228400
      7 C4S        -1.6640   -0.8690   -0.6650 c3        1 CF5      0.051100
      8 C3S        -1.4170   -1.7740    0.5560 c3        1 CF5      0.129100
      9 O3S        -2.2430   -2.9130    0.5160 oh        1 CF5     -0.684800
     10 O4S        -0.4000   -0.6820   -1.3520 os        1 CF5     -0.434600
     11 C1S         0.6690   -1.2930   -0.6490 c3        1 CF5      0.212800
     12 C2S         0.0570   -2.2250    0.4510 c3        1 CF5      0.104100
     13 O2S         0.2450   -3.5640    0.0460 oh        1 CF5     -0.616800
     14 N3          1.5510   -0.2590   -0.1130 na        1 CF5     -0.171900
     15 C2          1.1660    0.9490    0.4640 cc        1 CF5      0.452400
     16 C10         2.9660   -0.2630   -0.1350 cc        1 CF5     -0.010200
     17 N4          3.7160   -1.3310   -0.6160 ne        1 CF5     -0.569100
     18 C5          4.9940   -1.2970   -0.8110 c2        1 CF5      0.565100
     19 N6          5.9790   -0.2880   -0.7690 nh        1 CF5     -0.824200
     20 C7          5.5910    1.0820   -0.5820 c3        1 CF5      0.137800
     21 C8          4.7600    1.3920    0.6920 c3        1 CF5      0.110800
     22 C9          3.3550    0.9760    0.4740 cd        1 CF5      0.224600
     23 N1          2.2280    1.7080    0.8320 nd        1 CF5     -0.701000
     24 O8          4.9490    2.7610    1.0090 oh        1 CF5     -0.610800
     25 H5S1       -2.0040    0.7870    0.7490 h1        1 CF5     -0.002300
     26 H5S2       -1.8380    1.2600   -1.0190 h1        1 CF5     -0.002300
     27 H4S        -2.3260   -1.3880   -1.4100 h1        1 CF5      0.079700
     28 H3S        -1.5940   -1.2120    1.5160 h1        1 CF5      0.114700
     29 H1         -3.1300   -2.6000    0.8260 ho        1 CF5      0.516000
     30 H1S         1.2560   -1.8930   -1.4030 h2        1 CF5      0.090700
     31 H2S         0.5910   -2.1310    1.4330 h1        1 CF5      0.067700
     32 H3         -0.5860   -3.8740   -0.3410 ho        1 CF5      0.429000
     33 H2          0.1000    1.2200    0.5820 h5        1 CF5      0.113100
     34 H5          5.4280   -2.2690   -1.1490 h5        1 CF5      0.023800
     35 HN6         6.7510   -0.5560   -0.1910 hn        1 CF5      0.379800
     36 H71         4.9940    1.4030   -1.4810 h1        1 CF5      0.060200
     37 H72         6.5270    1.7090   -0.5430 h1        1 CF5      0.060200
     38 H8          5.1890    0.8400    1.5800 h1        1 CF5      0.058700
     39 HO8         4.2050    3.2640    0.6560 ho        1 CF5      0.427000
@<TRIPOS>BOND
     1    1    2 1   
     2    2    3 1   
     3    2    4 1   
     4    2    5 1   
     5    5    6 1   
     6    6    7 1   
     7    6   25 1   
     8    6   26 1   
     9    7    8 1   
    10    7   10 1   
    11    7   27 1   
    12    8    9 1   
    13    8   12 1   
    14    8   28 1   
    15    9   29 1   
    16   10   11 1   
    17   11   12 1   
    18   11   14 1   
    19   11   30 1   
    20   12   13 1   
    21   12   31 1   
    22   13   32 1   
    23   14   15 1   
    24   14   16 1   
    25   15   23 2   
    26   15   33 1   
    27   16   17 1   
    28   16   22 2   
    29   17   18 2   
    30   18   19 1   
    31   18   34 1   
    32   19   20 1   
    33   19   35 1   
    34   20   21 1   
    35   20   36 1   
    36   20   37 1   
    37   21   22 1   
    38   21   24 1   
    39   21   38 1   
    40   22   23 1   
    41   24   39 1   
@<TRIPOS>SUBSTRUCTURE
     1 CF5         1 TEMP              0 ****  ****    0 ROOT
