@<TRIPOS>MOLECULE
CF5
   39    41     1     0     0
SMALL
bcc


@<TRIPOS>ATOM
      1 O1P         0.1740   -2.3480    0.8690 o         1 CF5     -0.929833
      2 P           0.9530   -1.0520    1.0000 p5        1 CF5      1.334900
      3 O3P         1.9240   -1.0410    2.1440 o         1 CF5     -0.929833
      4 O2P         0.2270    0.2110    0.6610 o         1 CF5     -0.929833
      5 O5S         2.0260   -1.2890   -0.3580 os        1 CF5     -0.554200
      6 C5S         2.8210   -2.3940   -0.2430 c3        1 CF5      0.228400
      7 C4S         2.2730   -3.5500   -1.1160 c3        1 CF5      0.051100
      8 C3S         1.3910   -4.5470   -0.3410 c3        1 CF5      0.129100
      9 O3S         0.0580   -4.4960   -0.7900 oh        1 CF5     -0.684800
     10 O4S         3.3690   -4.2870   -1.7150 os        1 CF5     -0.434600
     11 C1S         3.3500   -5.6510   -1.3300 c3        1 CF5      0.212800
     12 C2S         1.9680   -5.9460   -0.6530 c3        1 CF5      0.104100
     13 O2S         1.2000   -6.7240   -1.5440 oh        1 CF5     -0.616800
     14 N3          4.4940   -5.9280   -0.4650 na        1 CF5     -0.171900
     15 C2          4.9970   -5.1060    0.5410 cc        1 CF5      0.452400
     16 C10         5.3460   -7.0560   -0.5280 cc        1 CF5     -0.010200
     17 N4          5.1380   -8.1170   -1.4020 ne        1 CF5     -0.569100
     18 C5          5.9870   -9.0730   -1.6060 c2        1 CF5      0.565100
     19 N6          7.3170   -9.3210   -1.2100 nh        1 CF5     -0.824200
     20 C7          8.0530   -8.3100   -0.5010 c3        1 CF5      0.137800
     21 C8          7.4160   -7.7960    0.8170 c3        1 CF5      0.110800
     22 C9          6.3260   -6.8440    0.4970 cd        1 CF5      0.224600
     23 N1          6.0930   -5.6340    1.1400 nd        1 CF5     -0.701000
     24 O8          8.4590   -7.2800    1.6280 oh        1 CF5     -0.610800
     25 H5S1        3.8600   -2.1610   -0.6250 h1        1 CF5     -0.002300
     26 H5S2        2.8940   -2.7290    0.8330 h1        1 CF5     -0.002300
     27 H4S         1.7050   -3.1170   -1.9840 h1        1 CF5      0.079700
     28 H3S         1.4260   -4.3390    0.7650 h1        1 CF5      0.114700
     29 H1         -0.3300   -3.6950   -0.3590 ho        1 CF5      0.516000
     30 H1S         3.4730   -6.2600   -2.2730 h2        1 CF5      0.090700
     31 H2S         2.0740   -6.5670    0.2740 h1        1 CF5      0.067700
     32 H3          0.5830   -6.1320   -1.9970 ho        1 CF5      0.429000
     33 H2          4.5260   -4.1340    0.7840 h5        1 CF5      0.113100
     34 H5          5.6190   -9.8640   -2.3030 h5        1 CF5      0.023800
     35 HN6         7.4130  -10.2290   -0.8000 hn        1 CF5      0.379800
     36 H71         9.0690   -8.7270   -0.2540 h1        1 CF5      0.060200
     37 H72         8.1950   -7.4330   -1.1920 h1        1 CF5      0.060200
     38 H8          7.0030   -8.6630    1.4130 h1        1 CF5      0.058700
     39 HO8         8.4900   -6.3230    1.5160 ho        1 CF5      0.427000
@<TRIPOS>BOND
     1    1    2 1   
     2    2    3 1   
     3    2    4 1   
     4    2    5 1   
     5    5    6 1   
     6    6    7 1   
     7    6   25 1   
     8    6   26 1   
     9    7    8 1   
    10    7   10 1   
    11    7   27 1   
    12    8    9 1   
    13    8   12 1   
    14    8   28 1   
    15    9   29 1   
    16   10   11 1   
    17   11   12 1   
    18   11   14 1   
    19   11   30 1   
    20   12   13 1   
    21   12   31 1   
    22   13   32 1   
    23   14   15 1   
    24   14   16 1   
    25   15   23 2   
    26   15   33 1   
    27   16   17 1   
    28   16   22 2   
    29   17   18 2   
    30   18   19 1   
    31   18   34 1   
    32   19   20 1   
    33   19   35 1   
    34   20   21 1   
    35   20   36 1   
    36   20   37 1   
    37   21   22 1   
    38   21   24 1   
    39   21   38 1   
    40   22   23 1   
    41   24   39 1   
@<TRIPOS>SUBSTRUCTURE
     1 CF5         1 TEMP              0 ****  ****    0 ROOT
