@<TRIPOS>MOLECULE
CF5
   39    37     1     0     0
SMALL
bcc


@<TRIPOS>ATOM
      1 O1P        -0.8490    7.2040    0.0010 o         1 CF5     -1.004500
      2 P          -1.2000    5.8000    0.3700 p3        1 CF5      2.546000
      3 O3P        -2.5910    5.4690   -0.1570 os        1 CF5     -1.151000
      4 O2P        -1.1840    5.6540    1.8720 o         1 CF5     -1.004500
      5 O5S        -0.1470    4.8080   -0.2680 os        1 CF5     -0.760000
      6 C5S        -0.3580    3.4590   -0.1400 c3        1 CF5      0.020000
      7 C4S         0.9730    2.7330   -0.1890 c3        1 CF5     -0.075000
      8 C3S         1.2290    2.3450   -1.4000 c3        1 CF5      0.164000
      9 O3S         2.6690    2.3340   -1.6290 oh        1 CF5     -0.710000
     10 O4S         0.9070    1.3970    0.6650 os        1 CF5     -0.298000
     11 C1S         0.8650    0.2440   -0.3750 c3        1 CF5      0.140000
     12 C2S         0.6350    0.8310   -1.5290 c3        1 CF5     -0.075000
     13 O2S         1.3140    0.1230   -2.5880 oh        1 CF5     -0.368000
     14 N3         -0.1910   -0.6620   -0.0630 n3        1 CF5     -0.119000
     15 C2         -1.5040   -0.3240    0.1230 c1        1 CF5     -0.040000
     16 C10        -0.0470   -1.9970    0.2550 c1        1 CF5     -0.067000
     17 N4          0.7420   -3.0330   -0.3420 n1        1 CF5     -0.113000
     18 C5          1.3050   -4.0510    0.4710 c1        1 CF5     -0.030000
     19 N6          0.5660   -5.2090    0.7610 n2        1 CF5     -0.296000
     20 C7         -0.8120   -4.9500    0.7240 c3        1 CF5     -0.077000
     21 C8         -1.1370   -3.7250    1.5410 c3        1 CF5      0.086000
     22 C9         -1.2810   -2.4770    0.6380 c2        1 CF5     -0.217000
     23 N1         -2.1780   -1.4470    0.5570 n2        1 CF5     -0.186000
     24 O8         -0.1100   -3.5070    2.4690 oh        1 CF5     -0.366000
     25 H5S1       -0.7880    3.2800    0.6930 h1        1 CF5      0.073000
     26 H5S2       -0.9140    3.1550   -0.8590 h1        1 CF5      0.073000
     27 H4S         1.7100    3.3300    0.1490 h1        1 CF5      0.109000
     28 H3S         0.7840    2.9440   -2.0510 h1        1 CF5     -0.025000
     29 H1          2.8670    2.8550   -2.3630 ho        1 CF5      0.235000
     30 H1S         1.7340   -0.2330   -0.3980 h2        1 CF5      0.117000
     31 H2S        -0.3530    0.8610   -1.7120 h1        1 CF5      0.073000
     32 H3          0.8330    0.1830   -3.3450 ho        1 CF5      0.233000
     33 H2         -1.8870    0.5750    0.0300 DU        1 CF5      0.290000
     34 H5          2.1880   -3.9200    0.8750 ha        1 CF5      0.153000
     35 HN6         0.9280   -6.0000    0.9840 hn        1 CF5      0.173000
     36 H71        -1.2710   -5.7060    1.1240 h1        1 CF5      0.093000
     37 H72        -1.0620   -4.7730   -0.2050 h1        1 CF5      0.093000
     38 H8         -1.9780   -3.8740    2.0210 h1        1 CF5      0.089000
     39 HO8        -0.4060   -3.6950    3.2890 ho        1 CF5      0.221000
@<TRIPOS>BOND
     1    1    2 1   
     2    2    4 1   
     3    2    5 1   
     4    5    6 1   
     5    6    7 1   
     6    6   25 1   
     7    6   26 1   
     8    7    8 1   
     9    7   10 1   
    10    7   27 1   
    11    8    9 1   
    12    8   12 1   
    13    8   28 1   
    14    9   29 1   
    15   10   11 1   
    16   11   12 1   
    17   11   14 1   
    18   11   30 1   
    19   12   13 1   
    20   12   31 1   
    21   13   32 1   
    22   14   15 1   
    23   14   16 1   
    24   15   23 1   
    25   16   22 1   
    26   17   18 1   
    27   18   34 1   
    28   19   20 1   
    29   19   35 1   
    30   20   21 1   
    31   20   36 1   
    32   20   37 1   
    33   21   22 1   
    34   21   24 1   
    35   21   38 1   
    36   22   23 1   
    37   24   39 1   
@<TRIPOS>SUBSTRUCTURE
     1 CF5         1 TEMP              0 ****  ****    0 ROOT
