@<TRIPOS>MOLECULE
CF5
   39    41     1     0     0
SMALL
bcc


@<TRIPOS>ATOM
      1 O1P         0.1720   -2.3160    0.7950 o         1 CF5     -0.929833
      2 P           0.9590   -1.0310    0.9770 p5        1 CF5      1.334900
      3 O3P         1.8980   -1.0540    2.1470 o         1 CF5     -0.929833
      4 O2P         0.2540    0.2460    0.6470 o         1 CF5     -0.929833
      5 O5S         2.0670   -1.2470   -0.3560 os        1 CF5     -0.554200
      6 C5S         2.8490   -2.3620   -0.2440 c3        1 CF5      0.228400
      7 C4S         2.3160   -3.4920   -1.1580 c3        1 CF5      0.051100
      8 C3S         1.4040   -4.4980   -0.4300 c3        1 CF5      0.129100
      9 O3S         0.0840   -4.4260   -0.9150 oh        1 CF5     -0.684800
     10 O4S         3.4220   -4.2260   -1.7430 os        1 CF5     -0.434600
     11 C1S         3.3810   -5.5980   -1.3890 c3        1 CF5      0.212800
     12 C2S         1.9780   -5.8950   -0.7570 c3        1 CF5      0.104100
     13 O2S         1.2280   -6.6470   -1.6870 oh        1 CF5     -0.616800
     14 N3          4.4970   -5.9040   -0.4990 na        1 CF5     -0.171900
     15 C2          4.9790   -5.1090    0.5380 cc        1 CF5      0.452400
     16 C10         5.3410   -7.0390   -0.5640 cc        1 CF5     -0.010200
     17 N4          5.1490   -8.0790   -1.4660 ne        1 CF5     -0.569100
     18 C5          5.9940   -9.0370   -1.6690 c2        1 CF5      0.565100
     19 N6          7.3110   -9.3060   -1.2420 nu        1 CF5     -0.824200
     20 C7          8.0350   -8.3190   -0.4900 c3        1 CF5      0.137800
     21 C8          7.3670   -7.8270    0.8210 c3        1 CF5      0.110800
     22 C9          6.2940   -6.8590    0.4920 cd        1 CF5      0.224600
     23 N1          6.0540   -5.6610    1.1550 nd        1 CF5     -0.701000
     24 O8          8.3900   -7.3400    1.6720 oh        1 CF5     -0.610800
     25 H5S1        2.8900   -2.7210    0.8250 h1        1 CF5     -0.002300
     26 H5S2        3.9000   -2.1300   -0.5920 h1        1 CF5     -0.002300
     27 H4S         1.7760   -3.0350   -2.0310 h1        1 CF5      0.079700
     28 H3S         1.4100   -4.3160    0.6800 h1        1 CF5      0.114700
     29 H1         -0.3090   -3.6300   -0.4770 ho        1 CF5      0.516000
     30 H1S         3.5250   -6.1860   -2.3420 h2        1 CF5      0.090700
     31 H2S         2.0520   -6.5370    0.1580 h1        1 CF5      0.067700
     32 H3          0.6290   -6.0390   -2.1430 ho        1 CF5      0.429000
     33 H2          4.5100   -4.1400    0.7900 h5        1 CF5      0.113100
     34 H5          5.6400   -9.8100   -2.3930 h5        1 CF5      0.023800
     35 HN6         7.3870  -10.2240   -0.8500 hn        1 CF5      0.379800
     36 H71         9.0410   -8.7500   -0.2240 h1        1 CF5      0.060200
     37 H72         8.2040   -7.4270   -1.1570 h1        1 CF5      0.060200
     38 H8          6.9300   -8.7040    1.3860 h1        1 CF5      0.058700
     39 HO8         8.4330   -6.3800    1.5820 ho        1 CF5      0.427000
@<TRIPOS>BOND
     1    1    2 1   
     2    2    3 1   
     3    2    4 1   
     4    2    5 1   
     5    5    6 1   
     6    6    7 1   
     7    6   25 1   
     8    6   26 1   
     9    7    8 1   
    10    7   10 1   
    11    7   27 1   
    12    8    9 1   
    13    8   12 1   
    14    8   28 1   
    15    9   29 1   
    16   10   11 1   
    17   11   12 1   
    18   11   14 1   
    19   11   30 1   
    20   12   13 1   
    21   12   31 1   
    22   13   32 1   
    23   14   15 1   
    24   14   16 1   
    25   15   23 2   
    26   15   33 1   
    27   16   17 1   
    28   16   22 2   
    29   17   18 2   
    30   18   19 1   
    31   18   34 1   
    32   19   20 1   
    33   19   35 1   
    34   20   21 1   
    35   20   36 1   
    36   20   37 1   
    37   21   22 1   
    38   21   24 1   
    39   21   38 1   
    40   22   23 1   
    41   24   39 1   
@<TRIPOS>SUBSTRUCTURE
     1 CF5         1 TEMP              0 ****  ****    0 ROOT
