@<TRIPOS>MOLECULE
CF5
   39    41     1     0     0
SMALL
bcc


@<TRIPOS>ATOM
      1 O1P         0.1940   -2.2940    0.8090 o         1 CF5     -0.929833
      2 P           0.9750   -0.9960    0.8980 p5        1 CF5      1.334900
      3 O3P         1.9620   -0.9570    2.0280 o         1 CF5     -0.929833
      4 O2P         0.2450    0.2590    0.5390 o         1 CF5     -0.929833
      5 O5S         2.0290   -1.2660   -0.4690 os        1 CF5     -0.554200
      6 C5S         2.8250   -2.3690   -0.3380 c3        1 CF5      0.228400
      7 C4S         2.2640   -3.5450   -1.1750 c3        1 CF5      0.051100
      8 C3S         1.3930   -4.5220   -0.3640 c3        1 CF5      0.129100
      9 O3S         0.0530   -4.4810   -0.7960 oh        1 CF5     -0.684800
     10 O4S         3.3520   -4.2980   -1.7710 os        1 CF5     -0.434600
     11 C1S         3.3370   -5.6520   -1.3530 c3        1 CF5      0.212800
     12 C2S         1.9650   -5.9290   -0.6500 c3        1 CF5      0.104100
     13 O2S         1.1830   -6.7280   -1.5120 oh        1 CF5     -0.616800
     14 N3          4.4930   -5.9090   -0.4970 na        1 CF5     -0.171900
     15 C2          5.0100   -5.0630    0.4810 cc        1 CF5      0.452400
     16 C10         5.3430   -7.0390   -0.5450 cc        1 CF5     -0.010200
     17 N4          5.1230   -8.1210   -1.3900 ne        1 CF5     -0.569100
     18 C5          5.9680   -9.0810   -1.5830 c2        1 CF5      0.565100
     19 N6          7.3040   -9.3210   -1.2000 nh        1 CF5     -0.824200
     20 C7          8.0500   -8.2940   -0.5250 c3        1 CF5      0.137800
     21 C8          7.4310   -7.7480    0.7890 c3        1 CF5      0.110800
     22 C9          6.3370   -6.8040    0.4610 cd        1 CF5      0.224600
     23 N1          6.1140   -5.5780    1.0780 nd        1 CF5     -0.701000
     24 O8          8.4850   -7.2140    1.5730 oh        1 CF5     -0.610800
     25 H5S1        2.9130   -2.6780    0.7440 h1        1 CF5     -0.002300
     26 H5S2        3.8580   -2.1470   -0.7400 h1        1 CF5     -0.002300
     27 H4S         1.6850   -3.1320   -2.0450 h1        1 CF5      0.079700
     28 H3S         1.4430   -4.2880    0.7360 h1        1 CF5      0.114700
     29 H1         -0.3280   -3.6690   -0.3790 ho        1 CF5      0.516000
     30 H1S         3.4470   -6.2830   -2.2830 h2        1 CF5      0.090700
     31 H2S         2.0830   -6.5270    0.2900 h1        1 CF5      0.067700
     32 H3          0.5610   -6.1460   -1.9700 ho        1 CF5      0.429000
     33 H2          4.5430   -4.0860    0.7080 h5        1 CF5      0.113100
     34 H5          5.5910   -9.8890   -2.2550 h5        1 CF5      0.023800
     35 HN6         7.4050  -10.2190   -0.7700 hn        1 CF5      0.379800
     36 H71         9.0690   -8.7060   -0.2810 h1        1 CF5      0.060200
     37 H72         8.1820   -7.4340   -1.2390 h1        1 CF5      0.060200
     38 H8          7.0260   -8.6000    1.4120 h1        1 CF5      0.058700
     39 HO8         8.5150   -6.2590    1.4380 ho        1 CF5      0.427000
@<TRIPOS>BOND
     1    1    2 1   
     2    2    3 1   
     3    2    4 1   
     4    2    5 1   
     5    5    6 1   
     6    6    7 1   
     7    6   25 1   
     8    6   26 1   
     9    7    8 1   
    10    7   10 1   
    11    7   27 1   
    12    8    9 1   
    13    8   12 1   
    14    8   28 1   
    15    9   29 1   
    16   10   11 1   
    17   11   12 1   
    18   11   14 1   
    19   11   30 1   
    20   12   13 1   
    21   12   31 1   
    22   13   32 1   
    23   14   15 1   
    24   14   16 1   
    25   15   23 2   
    26   15   33 1   
    27   16   17 1   
    28   16   22 2   
    29   17   18 2   
    30   18   19 1   
    31   18   34 1   
    32   19   20 1   
    33   19   35 1   
    34   20   21 1   
    35   20   36 1   
    36   20   37 1   
    37   21   22 1   
    38   21   24 1   
    39   21   38 1   
    40   22   23 1   
    41   24   39 1   
@<TRIPOS>SUBSTRUCTURE
     1 CF5         1 TEMP              0 ****  ****    0 ROOT
