@<TRIPOS>MOLECULE
CF9
   34    37     1     0     0
SMALL
bcc


@<TRIPOS>ATOM
      1 O50        -0.0090   -0.9560   -0.2270 o         1 CF9     -0.197500
      2 N48         1.0390   -0.3830   -0.1010 no        1 CF9      0.309200
      3 O52         1.4380    0.0030    0.9640 o         1 CF9     -0.197500
      4 C41         1.8770   -0.1440   -1.3100 ca        1 CF9     -0.144200
      5 C39         1.4210   -0.5860   -2.5630 ca        1 CF9     -0.084500
      6 C37         2.2100   -0.3610   -3.6890 ca        1 CF9     -0.083000
      7 C43         3.1060    0.5210   -1.1780 ca        1 CF9     -0.084500
      8 C45         3.8830    0.7400   -2.3130 ca        1 CF9     -0.083000
      9 C35         3.4370    0.2990   -3.5660 ca        1 CF9     -0.097600
     10 C31         4.2940    0.5570   -4.7380 c         1 CF9      0.647700
     11 O33         5.3120    1.2440   -4.7900 o         1 CF9     -0.502000
     12 O29         3.8420   -0.0730   -5.8790 os        1 CF9     -0.361200
     13 C13         4.5610    0.0610   -7.0660 ca        1 CF9      0.102100
     14 C3          4.7960   -1.1540   -7.7870 ca        1 CF9     -0.008000
     15 C4          4.5010   -2.5070   -7.4550 ca        1 CF9     -0.063000
     16 C5          4.8270   -3.5230   -8.3320 ca        1 CF9     -0.147000
     17 C6          5.4590   -3.2990   -9.5920 ca        1 CF9     -0.021000
     18 C1          5.7520   -2.0070   -9.9380 ca        1 CF9     -0.244500
     19 C14         4.9330    1.2950   -7.5750 ca        1 CF9     -0.109000
     20 C15         5.5660    1.4450   -8.8420 ca        1 CF9     -0.169300
     21 C16         5.7960    0.3000   -9.5580 ca        1 CF9      0.360900
     22 C2          5.4100   -0.9670   -9.0220 ca        1 CF9     -0.159300
     23 O24         6.3860    0.1070  -10.8140 os        1 CF9     -0.528600
     24 C22         6.3760   -1.3010  -11.0820 c         1 CF9      0.632800
     25 O27         6.8630   -1.6170  -12.1520 o         1 CF9     -0.248000
     26 H1          0.4510   -1.1050   -2.6540 ha        1 CF9      0.180000
     27 H2          1.8650   -0.7030   -4.6800 ha        1 CF9      0.172500
     28 H3          3.4530    0.8660   -0.1880 ha        1 CF9      0.180000
     29 H4          4.8520    1.2630   -2.2320 ha        1 CF9      0.172500
     30 H5          4.0130   -2.7230   -6.4930 ha        1 CF9      0.149000
     31 H6          4.5950   -4.5650   -8.0590 ha        1 CF9      0.145000
     32 H7          5.6920   -4.1530  -10.2450 ha        1 CF9      0.157000
     33 H8          4.7580    2.2030   -6.9750 ha        1 CF9      0.161000
     34 H9          5.8480    2.4420   -9.2050 ha        1 CF9      0.165000
@<TRIPOS>BOND
     1    1    2 1   
     2    2    3 1   
     3    2    4 1   
     4    4    5 ar  
     5    4    7 ar  
     6    5    6 ar  
     7    5   26 1   
     8    6    9 ar  
     9    6   27 1   
    10    7    8 ar  
    11    7   28 1   
    12    8    9 ar  
    13    8   29 1   
    14    9   10 1   
    15   10   11 2   
    16   10   12 1   
    17   12   13 1   
    18   13   14 ar  
    19   13   19 ar  
    20   14   15 ar  
    21   14   22 ar  
    22   15   16 ar  
    23   15   30 1   
    24   16   17 ar  
    25   16   31 1   
    26   17   18 ar  
    27   17   32 1   
    28   18   22 ar  
    29   18   24 1   
    30   19   20 ar  
    31   19   33 1   
    32   20   21 ar  
    33   20   34 1   
    34   21   22 ar  
    35   21   23 1   
    36   23   24 1   
    37   24   25 2   
@<TRIPOS>SUBSTRUCTURE
     1 CF9         1 TEMP              0 ****  ****    0 ROOT
