@<TRIPOS>MOLECULE
CF9
   34    27     1     0     0
SMALL
bcc


@<TRIPOS>ATOM
      1 O50        -2.9630    1.3160    6.6410 o         1 CF9     -0.293200
      2 N48        -3.5070    1.4900    5.4000 n2        1 CF9      0.455400
      3 O52        -4.6930    1.7620    5.2850 o         1 CF9     -0.293200
      4 C41        -2.6930    1.3630    4.2450 c1        1 CF9     -0.088000
      5 C39        -3.2340    1.5840    2.9880 c1        1 CF9     -0.084000
      6 C37        -2.4370    1.4680    1.8600 c1        1 CF9     -0.084000
      7 C43        -1.3550    1.0240    4.3730 c1        1 CF9     -0.083500
      8 C45        -0.5580    0.9080    3.2450 c1        1 CF9     -0.083500
      9 C35        -1.0990    1.1300    1.9890 c1        1 CF9     -0.088000
     10 C31        -0.2130    1.0690    0.7630 c1        1 CF9      0.348000
     11 O33         0.5950    1.9510    0.5530 o         1 CF9     -0.313000
     12 O29        -0.3350   -0.0020   -0.1400 o         1 CF9     -0.226000
     13 C13         0.4920    0.1100   -1.2700 c2        1 CF9      0.057000
     14 C3          0.7530   -1.1350   -1.9310 c2        1 CF9     -0.008000
     15 C4          1.0950   -2.2230   -1.0890 c2        1 CF9     -0.063000
     16 C5          1.9010   -3.2600   -1.5790 c1        1 CF9     -0.147000
     17 C6          2.3650   -3.2200   -2.8940 c1        1 CF9     -0.021000
     18 C1          2.0240   -2.1400   -3.7240 c1        1 CF9     -0.137000
     19 C14         0.7330    1.3230   -1.9390 c1        1 CF9     -0.109000
     20 C15         1.2310    1.3130   -3.2560 c1        1 CF9     -0.104000
     21 C16         1.4870    0.0890   -3.9000 c1        1 CF9      0.060000
     22 C2          1.1440   -1.1400   -3.2540 c1        1 CF9     -0.094000
     23 O24         2.5190   -0.2030   -4.9190 os        1 CF9     -0.188000
     24 C22         2.8750   -1.5360   -4.7970 c2        1 CF9      0.355000
     25 O27         3.6710   -2.1300   -5.4970 o         1 CF9     -0.248000
     26 H1         -4.1760    1.8230    2.8980 ha        1 CF9      0.175000
     27 H2         -2.8180    1.6240    0.9750 ha        1 CF9      0.175000
     28 H3         -0.9740    0.8680    5.2590 ha        1 CF9      0.177500
     29 H4          0.3840    0.6690    3.3360 ha        1 CF9      0.177500
     30 H5          0.7700   -2.2500   -0.1700 ha        1 CF9      0.149000
     31 H6          2.1010   -4.0310   -1.0140 ha        1 CF9      0.145000
     32 H7          2.9260   -3.9410   -3.2370 ha        1 CF9      0.157000
     33 H8          0.5900    2.1710   -1.4780 ha        1 CF9      0.161000
     34 H9          1.3990    2.1540   -3.7210 ha        1 CF9      0.165000
@<TRIPOS>BOND
     1    1    2 2   
     2    2    3 2   
     3    4    7 1   
     4    5    6 1   
     5    5   26 1   
     6    6   27 1   
     7    7   28 1   
     8    8    9 1   
     9    8   29 1   
    10   10   11 1   
    11   12   13 1   
    12   13   14 1   
    13   13   19 1   
    14   14   15 1   
    15   14   22 1   
    16   15   16 1   
    17   15   30 1   
    18   16   31 1   
    19   17   18 1   
    20   17   32 1   
    21   18   24 1   
    22   19   33 1   
    23   20   21 1   
    24   20   34 1   
    25   21   23 1   
    26   23   24 1   
    27   24   25 1   
@<TRIPOS>SUBSTRUCTURE
     1 CF9         1 TEMP              0 ****  ****    0 ROOT
