@<TRIPOS>MOLECULE
CF9
   34    37     1     0     0
SMALL
bcc


@<TRIPOS>ATOM
      1 O50        -0.0140   -0.8930   -0.2260 o         1 CF9     -0.197500
      2 N48         1.0430   -0.3370   -0.1000 no        1 CF9      0.309200
      3 O52         1.4470    0.0440    0.9650 o         1 CF9     -0.197500
      4 C41         1.8830   -0.1100   -1.3100 ca        1 CF9     -0.144200
      5 C39         1.4210   -0.5460   -2.5620 ca        1 CF9     -0.084500
      6 C37         2.2120   -0.3340   -3.6890 ca        1 CF9     -0.083000
      7 C43         3.1220    0.5370   -1.1790 ca        1 CF9     -0.084500
      8 C45         3.9020    0.7440   -2.3140 ca        1 CF9     -0.083000
      9 C35         3.4490    0.3090   -3.5670 ca        1 CF9     -0.097600
     10 C31         4.3080    0.5550   -4.7390 c         1 CF9      0.647700
     11 O33         5.3350    1.2280   -4.7930 o         1 CF9     -0.502000
     12 O29         3.8480   -0.0710   -5.8800 os        1 CF9     -0.361200
     13 C13         4.5680    0.0530   -7.0660 ca        1 CF9      0.102100
     14 C3          4.7880   -1.1660   -7.7870 ca        1 CF9     -0.008000
     15 C4          4.4770   -2.5150   -7.4530 ca        1 CF9     -0.063000
     16 C5          4.7900   -3.5360   -8.3290 ca        1 CF9     -0.147000
     17 C6          5.4240   -3.3210   -9.5890 ca        1 CF9     -0.021000
     18 C1          5.7320   -2.0330   -9.9370 ca        1 CF9     -0.244500
     19 C14         4.9560    1.2820   -7.5770 ca        1 CF9     -0.109000
     20 C15         5.5900    1.4220   -8.8450 ca        1 CF9     -0.169300
     21 C16         5.8060    0.2740   -9.5600 ca        1 CF9      0.360900
     22 C2          5.4040   -0.9880   -9.0220 ca        1 CF9     -0.159300
     23 O24         6.3920    0.0730  -10.8160 os        1 CF9     -0.528600
     24 C22         6.3650   -1.3350  -11.0820 c         1 CF9      0.632800
     25 O27         6.8470   -1.6590  -12.1520 o         1 CF9     -0.248000
     26 H1          0.4440   -1.0520   -2.6520 ha        1 CF9      0.180000
     27 H2          1.8620   -0.6710   -4.6790 ha        1 CF9      0.172500
     28 H3          3.4740    0.8770   -0.1890 ha        1 CF9      0.180000
     29 H4          4.8770    1.2540   -2.2340 ha        1 CF9      0.172500
     30 H5          3.9860   -2.7230   -6.4910 ha        1 CF9      0.149000
     31 H6          4.5450   -4.5750   -8.0550 ha        1 CF9      0.145000
     32 H7          5.6460   -4.1780  -10.2420 ha        1 CF9      0.157000
     33 H8          4.7910    2.1920   -6.9780 ha        1 CF9      0.161000
     34 H9          5.8830    2.4150   -9.2090 ha        1 CF9      0.165000
@<TRIPOS>BOND
     1    1    2 1   
     2    2    3 1   
     3    2    4 1   
     4    4    5 ar  
     5    4    7 ar  
     6    5    6 ar  
     7    5   26 1   
     8    6    9 ar  
     9    6   27 1   
    10    7    8 ar  
    11    7   28 1   
    12    8    9 ar  
    13    8   29 1   
    14    9   10 1   
    15   10   11 2   
    16   10   12 1   
    17   12   13 1   
    18   13   14 ar  
    19   13   19 ar  
    20   14   15 ar  
    21   14   22 ar  
    22   15   16 ar  
    23   15   30 1   
    24   16   17 ar  
    25   16   31 1   
    26   17   18 ar  
    27   17   32 1   
    28   18   22 ar  
    29   18   24 1   
    30   19   20 ar  
    31   19   33 1   
    32   20   21 ar  
    33   20   34 1   
    34   21   22 ar  
    35   21   23 1   
    36   23   24 1   
    37   24   25 2   
@<TRIPOS>SUBSTRUCTURE
     1 CF9         1 TEMP              0 ****  ****    0 ROOT
