@<TRIPOS>MOLECULE
CF9
   34    37     1     0     0
SMALL
bcc


@<TRIPOS>ATOM
      1 O50         6.7670   -0.9610    1.4740 o         1 CF9     -0.197500
      2 N48         6.4940   -0.5200    0.3910 no        1 CF9      0.309200
      3 O52         7.3210   -0.3490   -0.4620 o         1 CF9     -0.197500
      4 C41         5.0740   -0.1740    0.0950 ca        1 CF9     -0.144200
      5 C39         4.0970   -0.3660    1.0840 ca        1 CF9     -0.084500
      6 C37         2.7710   -0.0430    0.8000 ca        1 CF9     -0.083000
      7 C43         4.7380    0.3380   -1.1680 ca        1 CF9     -0.084500
      8 C45         3.4100    0.6580   -1.4380 ca        1 CF9     -0.083000
      9 C35         2.4280    0.4670   -0.4570 ca        1 CF9     -0.097600
     10 C31         1.0360    0.8230   -0.7890 c         1 CF9      0.647700
     11 O33         0.6270    1.4080   -1.7900 o         1 CF9     -0.502000
     12 O29         0.1380    0.4290    0.1800 os        1 CF9     -0.361200
     13 C13        -1.2210    0.6800   -0.0020 ca        1 CF9      0.102100
     14 C3         -2.0950   -0.4220    0.2690 ca        1 CF9     -0.008000
     15 C4         -1.8110   -1.7760    0.6080 ca        1 CF9     -0.063000
     16 C5         -2.8420   -2.6660    0.8300 ca        1 CF9     -0.147000
     17 C6         -4.2210   -2.3080    0.7420 ca        1 CF9     -0.021000
     18 C1         -4.5240   -1.0120    0.4200 ca        1 CF9     -0.244500
     19 C14        -1.7100    1.9370   -0.3210 ca        1 CF9     -0.109000
     20 C15        -3.1030    2.2240   -0.3960 ca        1 CF9     -0.169300
     21 C16        -3.9630    1.1900   -0.1330 ca        1 CF9      0.360900
     22 C2         -3.4480   -0.1020    0.1920 ca        1 CF9     -0.159300
     23 O24        -5.3630    1.1440   -0.1210 os        1 CF9     -0.528600
     24 C22        -5.7440   -0.1960    0.2160 c         1 CF9      0.632800
     25 O27        -6.9470   -0.3850    0.2640 o         1 CF9     -0.248000
     26 H1          4.3740   -0.7680    2.0740 ha        1 CF9      0.180000
     27 H2          1.9930   -0.1880    1.5670 ha        1 CF9      0.172500
     28 H3          5.5160    0.4860   -1.9380 ha        1 CF9      0.180000
     29 H4          3.1250    1.0660   -2.4230 ha        1 CF9      0.172500
     30 H5         -0.7610   -2.0930    0.6890 ha        1 CF9      0.149000
     31 H6         -2.6060   -3.7110    1.0900 ha        1 CF9      0.145000
     32 H7         -4.9960   -3.0650    0.9310 ha        1 CF9      0.157000
     33 H8         -1.0020    2.7500   -0.5480 ha        1 CF9      0.161000
     34 H9         -3.4460    3.2340   -0.6560 ha        1 CF9      0.165000
@<TRIPOS>BOND
     1    1    2 1   
     2    2    3 1   
     3    2    4 1   
     4    4    5 ar  
     5    4    7 ar  
     6    5    6 ar  
     7    5   26 1   
     8    6    9 ar  
     9    6   27 1   
    10    7    8 ar  
    11    7   28 1   
    12    8    9 ar  
    13    8   29 1   
    14    9   10 1   
    15   10   11 2   
    16   10   12 1   
    17   12   13 1   
    18   13   14 ar  
    19   13   19 ar  
    20   14   15 ar  
    21   14   22 ar  
    22   15   16 ar  
    23   15   30 1   
    24   16   17 ar  
    25   16   31 1   
    26   17   18 ar  
    27   17   32 1   
    28   18   22 ar  
    29   18   24 1   
    30   19   20 ar  
    31   19   33 1   
    32   20   21 ar  
    33   20   34 1   
    34   21   22 ar  
    35   21   23 1   
    36   23   24 1   
    37   24   25 2   
@<TRIPOS>SUBSTRUCTURE
     1 CF9         1 TEMP              0 ****  ****    0 ROOT
