@<TRIPOS>MOLECULE
CF9
   34    37     1     0     0
SMALL
bcc


@<TRIPOS>ATOM
      1 O50        -0.0040   -0.9300   -0.2220 o         1 CF9     -0.197500
      2 N48         1.0430   -0.3540   -0.1000 no        1 CF9      0.309200
      3 O52         1.4410    0.0400    0.9630 o         1 CF9     -0.197500
      4 C41         1.8790   -0.1200   -1.3120 ca        1 CF9     -0.144200
      5 C39         1.4240   -0.5720   -2.5600 ca        1 CF9     -0.084500
      6 C37         2.2110   -0.3530   -3.6890 ca        1 CF9     -0.083000
      7 C43         3.1070    0.5480   -1.1850 ca        1 CF9     -0.084500
      8 C45         3.8820    0.7620   -2.3210 ca        1 CF9     -0.083000
      9 C35         3.4370    0.3120   -3.5710 ca        1 CF9     -0.097600
     10 C31         4.2920    0.5650   -4.7450 c         1 CF9      0.647700
     11 O33         5.3080    1.2540   -4.8030 o         1 CF9     -0.502000
     12 O29         3.8410   -0.0740   -5.8820 os        1 CF9     -0.361200
     13 C13         4.5590    0.0540   -7.0700 ca        1 CF9      0.102100
     14 C3          4.7960   -1.1650   -7.7840 ca        1 CF9     -0.008000
     15 C4          4.5050   -2.5160   -7.4440 ca        1 CF9     -0.063000
     16 C5          4.8320   -3.5370   -8.3140 ca        1 CF9     -0.147000
     17 C6          5.4620   -3.3190   -9.5760 ca        1 CF9     -0.021000
     18 C1          5.7520   -2.0290   -9.9300 ca        1 CF9     -0.244500
     19 C14         4.9280    1.2860   -7.5870 ca        1 CF9     -0.109000
     20 C15         5.5600    1.4290   -8.8560 ca        1 CF9     -0.169300
     21 C16         5.7920    0.2800   -9.5650 ca        1 CF9      0.360900
     22 C2          5.4090   -0.9840   -9.0210 ca        1 CF9     -0.159300
     23 O24         6.3810    0.0820  -10.8200 os        1 CF9     -0.528600
     24 C22         6.3740   -1.3280  -11.0790 c         1 CF9      0.632800
     25 O27         6.8610   -1.6500  -12.1470 o         1 CF9     -0.248000
     26 H1          0.4560   -1.0950   -2.6470 ha        1 CF9      0.180000
     27 H2          1.8670   -0.7020   -4.6770 ha        1 CF9      0.172500
     28 H3          3.4530    0.9010   -0.1970 ha        1 CF9      0.180000
     29 H4          4.8490    1.2890   -2.2440 ha        1 CF9      0.172500
     30 H5          4.0170   -2.7270   -6.4800 ha        1 CF9      0.149000
     31 H6          4.6020   -4.5780   -8.0350 ha        1 CF9      0.145000
     32 H7          5.6970   -4.1770  -10.2240 ha        1 CF9      0.157000
     33 H8          4.7510    2.1970   -6.9920 ha        1 CF9      0.161000
     34 H9          5.8390    2.4250   -9.2250 ha        1 CF9      0.165000
@<TRIPOS>BOND
     1    1    2 1   
     2    2    3 1   
     3    2    4 1   
     4    4    5 ar  
     5    4    7 ar  
     6    5    6 ar  
     7    5   26 1   
     8    6    9 ar  
     9    6   27 1   
    10    7    8 ar  
    11    7   28 1   
    12    8    9 ar  
    13    8   29 1   
    14    9   10 1   
    15   10   11 2   
    16   10   12 1   
    17   12   13 1   
    18   13   14 ar  
    19   13   19 ar  
    20   14   15 ar  
    21   14   22 ar  
    22   15   16 ar  
    23   15   30 1   
    24   16   17 ar  
    25   16   31 1   
    26   17   18 ar  
    27   17   32 1   
    28   18   22 ar  
    29   18   24 1   
    30   19   20 ar  
    31   19   33 1   
    32   20   21 ar  
    33   20   34 1   
    34   21   22 ar  
    35   21   23 1   
    36   23   24 1   
    37   24   25 2   
@<TRIPOS>SUBSTRUCTURE
     1 CF9         1 TEMP              0 ****  ****    0 ROOT
