@<TRIPOS>MOLECULE
CFA
   18    14     1     0     0
SMALL
bcc


@<TRIPOS>ATOM
      1 C1         -3.4030    0.6690    0.7250 c1        1 CFA      0.317000
      2 C2         -2.0040    0.8240    0.0890 c2        1 CFA     -0.102000
      3 C1'         0.0340   -0.3610   -0.0600 c1        1 CFA      0.128000
      4 C2'         0.6380   -0.4790   -1.3050 c1        1 CFA     -0.112000
      5 C3'         2.0310   -0.5460   -1.3990 c1        1 CFA     -0.101000
      6 C4'         2.8050   -0.4950   -0.2530 c1        1 CFA     -0.112000
      7 C5'         2.1990   -0.3770    0.9920 c1        1 CFA     -0.101000
      8 CL3        -0.3300   -0.6810   -2.7170 cl        1 CFA     -0.045000
      9 C6'         0.8170   -0.3100    1.0890 c1        1 CFA     -0.185000
     10 O1         -3.8400    1.5690    1.5550 o         1 CFA     -0.558000
     11 O2         -4.1670   -0.2980    0.3670 o         1 CFA     -0.558000
     12 O1'        -1.3560   -0.4410    0.0490 os        1 CFA     -0.191000
     13 CL4         4.5440   -0.4980   -0.3740 cl        1 CFA     -0.045000
     14 H2C1       -1.4780    1.4420    0.6180 h4        1 CFA      0.079500
     15 H2C2       -2.0980    1.1820   -0.8520 h4        1 CFA      0.079500
     16 H3'         2.4610   -0.6300   -2.2790 ha        1 CFA      0.140500
     17 H5'         2.7480   -0.3410    1.8000 ha        1 CFA      0.140500
     18 H6'         0.3990   -0.2270    1.9550 ha        1 CFA      0.225000
@<TRIPOS>BOND
     1    1   10 1   
     2    1   11 1   
     3    2   12 1   
     4    2   14 1   
     5    2   15 1   
     6    3    9 1   
     7    3   12 1   
     8    4    5 1   
     9    4    8 1   
    10    5   16 1   
    11    6    7 1   
    12    6   13 1   
    13    7   17 1   
    14    9   18 1   
@<TRIPOS>SUBSTRUCTURE
     1 CFA         1 TEMP              0 ****  ****    0 ROOT
