@<TRIPOS>MOLECULE
CFA
   18    18     1     0     0
SMALL
bcc


@<TRIPOS>ATOM
      1 C1          0.4380    0.0150    3.8510 c         1 CFA      0.929600
      2 C2          0.9910    0.0760    2.3920 c3        1 CFA     -0.016600
      3 C1'         0.1370   -0.0430    0.1740 ca        1 CFA      0.180100
      4 C2'        -0.9610   -0.1860   -0.7130 ca        1 CFA     -0.029600
      5 C3'        -0.7550   -0.1680   -2.0910 ca        1 CFA     -0.093000
      6 C4'         0.5350   -0.0090   -2.6010 ca        1 CFA     -0.043600
      7 C5'         1.6260    0.1330   -1.7400 ca        1 CFA     -0.086000
      8 CL3        -2.5500   -0.3820   -0.1420 cl        1 CFA     -0.080400
      9 C6'         1.4280    0.1160   -0.3660 ca        1 CFA     -0.214000
     10 O1          0.4120   -1.1160    4.3990 o         1 CFA     -0.814300
     11 O2          0.1320    1.1110    4.3860 o         1 CFA     -0.814300
     12 O1'        -0.1320   -0.0700    1.5100 os        1 CFA     -0.265900
     13 CL4         0.7760    0.0120   -4.2900 cl        1 CFA     -0.133400
     14 H2C1        1.4800    1.0660    2.2070 h1        1 CFA      0.023700
     15 H2C2        1.7090   -0.7630    2.2170 h1        1 CFA      0.023700
     16 H3'        -1.6100   -0.2790   -2.7760 ha        1 CFA      0.145000
     17 H5'         2.6410    0.2580   -2.1460 ha        1 CFA      0.134000
     18 H6'         2.2920    0.2280    0.3060 ha        1 CFA      0.153000
@<TRIPOS>BOND
     1    1    2 1   
     2    1   10 1   
     3    1   11 1   
     4    2   12 1   
     5    2   14 1   
     6    2   15 1   
     7    3    4 ar  
     8    3    9 ar  
     9    3   12 1   
    10    4    5 ar  
    11    4    8 1   
    12    5    6 ar  
    13    5   16 1   
    14    6    7 ar  
    15    6   13 1   
    16    7    9 ar  
    17    7   17 1   
    18    9   18 1   
@<TRIPOS>SUBSTRUCTURE
     1 CFA         1 TEMP              0 ****  ****    0 ROOT
