@<TRIPOS>MOLECULE
CFA
   18    18     1     0     0
SMALL
bcc


@<TRIPOS>ATOM
      1 C1         -0.1710    0.0120   -0.1730 c         1 CFA      0.929600
      2 C2          1.3640    0.0720    0.1090 c3        1 CFA     -0.016600
      3 C1'         3.3920   -0.0430   -1.1290 ca        1 CFA      0.180100
      4 C2'         4.0670   -0.1810   -2.3690 ca        1 CFA     -0.029600
      5 C3'         5.4610   -0.1620   -2.4130 ca        1 CFA     -0.093000
      6 C4'         6.1930   -0.0070   -1.2340 ca        1 CFA     -0.043600
      7 C5'         5.5430    0.1300   -0.0070 ca        1 CFA     -0.086000
      8 CL3         3.2210   -0.3720   -3.8310 cl        1 CFA     -0.080400
      9 C6'         4.1550    0.1130    0.0450 ca        1 CFA     -0.214000
     10 O1         -0.7140   -1.1200   -0.1040 o         1 CFA     -0.814300
     11 O2         -0.7530    1.1090   -0.3730 o         1 CFA     -0.814300
     12 O1'         2.0300   -0.0690   -1.1540 os        1 CFA     -0.265900
     13 CL4         7.8990    0.0140   -1.3000 cl        1 CFA     -0.133400
     14 H2C1        1.6330    1.0600    0.5610 h1        1 CFA      0.023700
     15 H2C2        1.6640   -0.7690    0.7820 h1        1 CFA      0.023700
     16 H3'         5.9810   -0.2700   -3.3780 ha        1 CFA      0.145000
     17 H5'         6.1230    0.2520    0.9190 ha        1 CFA      0.134000
     18 H6'         3.6490    0.2210    1.0160 ha        1 CFA      0.153000
@<TRIPOS>BOND
     1    1    2 1   
     2    1   10 1   
     3    1   11 1   
     4    2   12 1   
     5    2   14 1   
     6    2   15 1   
     7    3    4 ar  
     8    3    9 ar  
     9    3   12 1   
    10    4    5 ar  
    11    4    8 1   
    12    5    6 ar  
    13    5   16 1   
    14    6    7 ar  
    15    6   13 1   
    16    7    9 ar  
    17    7   17 1   
    18    9   18 1   
@<TRIPOS>SUBSTRUCTURE
     1 CFA         1 TEMP              0 ****  ****    0 ROOT
