@<TRIPOS>MOLECULE
CFB
   31    33     1     0     0
SMALL
bcc


@<TRIPOS>ATOM
      1 O5'        -4.3570    1.8380   -1.0990 oh        1 CFB     -0.587800
      2 C5'        -4.1220    1.0440    0.0430 c3        1 CFB      0.115400
      3 C4'        -3.6390   -0.3560   -0.3330 c3        1 CFB      0.092100
      4 O4'        -2.4860   -0.2460   -1.1830 os        1 CFB     -0.417600
      5 C3'        -3.2600   -1.1840    0.9010 c3        1 CFB      0.090100
      6 O3'        -4.0640   -2.3460    0.8910 oh        1 CFB     -0.580800
      7 C2'        -1.7590   -1.5490    0.7170 c3        1 CFB      0.105600
      8 F          -1.0340   -1.3030    1.8600 f         1 CFB     -0.209300
      9 C1'        -1.3000   -0.7380   -0.5510 c3        1 CFB      0.243800
     10 N9         -0.3730    0.3400   -0.3160 na        1 CFB     -0.287000
     11 C8         -0.6210    1.7340   -0.2240 cc        1 CFB      0.419700
     12 N7          0.4880    2.4650   -0.0480 nd        1 CFB     -0.536100
     13 C5          1.5400    1.5360   -0.0250 ca        1 CFB     -0.231200
     14 C4          1.0190    0.1890   -0.2030 ca        1 CFB      0.474800
     15 N3          1.7900   -0.9380   -0.2380 nb        1 CFB     -0.727000
     16 C2          3.1170   -0.6630   -0.0830 ca        1 CFB      0.788000
     17 CL          4.1680   -2.0360   -0.1170 cl        1 CFB     -0.115000
     18 N1          3.7440    0.5400    0.0970 nb        1 CFB     -0.785000
     19 C6          2.9600    1.6700    0.1290 ca        1 CFB      0.778200
     20 N6          3.5240    2.9030    0.3040 nh        1 CFB     -0.956500
     21 H5'        -3.5830    1.7610   -1.6740 ho        1 CFB      0.414000
     22 H5'1       -5.1150    0.9770    0.5640 h1        1 CFB      0.055200
     23 H5'2       -3.3780    1.5500    0.7160 h1        1 CFB      0.055200
     24 H4'        -4.4130   -0.8830   -0.9600 h1        1 CFB      0.114700
     25 H3'        -3.4090   -0.6070    1.8530 h1        1 CFB      0.073700
     26 H1         -3.9040   -2.8050    1.7260 ho        1 CFB      0.416000
     27 H2'        -1.6670   -2.6450    0.4630 h1        1 CFB      0.093700
     28 H1'        -0.8250   -1.4440   -1.3000 h2        1 CFB      0.117700
     29 H8         -1.6410    2.1310   -0.3170 h5        1 CFB      0.077800
     30 HN61        4.5030    3.0040    0.4100 hn        1 CFB      0.453800
     31 HN62        2.9380    3.6990    0.3210 hn        1 CFB      0.453800
@<TRIPOS>BOND
     1    1    2 1   
     2    1   21 1   
     3    2    3 1   
     4    2   22 1   
     5    2   23 1   
     6    3    4 1   
     7    3    5 1   
     8    3   24 1   
     9    4    9 1   
    10    5    6 1   
    11    5    7 1   
    12    5   25 1   
    13    6   26 1   
    14    7    8 1   
    15    7    9 1   
    16    7   27 1   
    17    9   10 1   
    18    9   28 1   
    19   10   11 1   
    20   10   14 1   
    21   11   12 2   
    22   11   29 1   
    23   12   13 1   
    24   13   14 ar  
    25   13   19 ar  
    26   14   15 ar  
    27   15   16 ar  
    28   16   17 1   
    29   16   18 ar  
    30   18   19 ar  
    31   19   20 1   
    32   20   30 1   
    33   20   31 1   
@<TRIPOS>SUBSTRUCTURE
     1 CFB         1 TEMP              0 ****  ****    0 ROOT
