@<TRIPOS>MOLECULE
CFB
   31    33     1     0     0
SMALL
bcc


@<TRIPOS>ATOM
      1 O5'        -0.1210   -1.2410    1.2770 oh        1 CFB     -0.586800
      2 C5'         1.2280   -1.1790    0.8720 c3        1 CFB      0.119400
      3 C4'         1.9760   -0.0760    1.6200 c3        1 CFB      0.087100
      4 O4'         1.9880   -0.3760    3.0230 os        1 CFB     -0.410600
      5 C3'         3.4320    0.0630    1.1510 c3        1 CFB      0.090100
      6 O3'         3.5970    1.3720    0.6510 oh        1 CFB     -0.575800
      7 C2'         4.2930   -0.1560    2.4300 c3        1 CFB      0.101600
      8 F           5.4180   -0.9070    2.1750 f         1 CFB     -0.217300
      9 C1'         3.2920   -0.7790    3.4660 c3        1 CFB      0.230800
     10 N9          3.3810   -2.2050    3.6330 na        1 CFB     -0.287000
     11 C8          3.5920   -3.2040    2.6420 cc        1 CFB      0.412700
     12 N7          3.4450   -4.4540    3.0940 nd        1 CFB     -0.532100
     13 C5          3.0910   -4.3150    4.4460 ca        1 CFB     -0.237200
     14 C4          3.0320   -2.9050    4.8050 ca        1 CFB      0.481800
     15 N3          2.7220   -2.4430    6.0500 nb        1 CFB     -0.724000
     16 C2          2.4680   -3.4520    6.9330 ca        1 CFB      0.788000
     17 Cl          2.0650   -2.9490    8.5370 cl        1 CFB     -0.112000
     18 N1          2.4840   -4.8050    6.7380 nb        1 CFB     -0.784000
     19 C6          2.8000   -5.2650    5.4810 ca        1 CFB      0.778200
     20 N6          2.8400   -6.6070    5.2210 nv        1 CFB     -0.956500
     21 H5'        -0.1260   -1.3610    2.2360 ho        1 CFB      0.417000
     22 H5'1        1.1940   -0.9450   -0.2260 h1        1 CFB      0.052700
     23 H5'2        1.7300   -2.1700    1.0400 h1        1 CFB      0.052700
     24 H4'         1.4220    0.9010    1.5330 h1        1 CFB      0.115700
     25 H3'         3.6940   -0.6980    0.3670 h1        1 CFB      0.064700
     26 H1          4.4790    1.4150    0.2580 ho        1 CFB      0.415000
     27 H2'         4.6140    0.8470    2.8370 h1        1 CFB      0.096700
     28 H1'         3.4090   -0.3000    4.4860 h2        1 CFB      0.134700
     29 H8          3.9010   -2.9250    1.6270 h5        1 CFB      0.074800
     30 HN61        3.0650   -6.9110    4.3070 hn        1 CFB      0.453800
     31 HN62        2.6390   -7.2680    5.9290 hn        1 CFB      0.453800
@<TRIPOS>BOND
     1    1    2 1   
     2    1   21 1   
     3    2    3 1   
     4    2   22 1   
     5    2   23 1   
     6    3    4 1   
     7    3    5 1   
     8    3   24 1   
     9    4    9 1   
    10    5    6 1   
    11    5    7 1   
    12    5   25 1   
    13    6   26 1   
    14    7    8 1   
    15    7    9 1   
    16    7   27 1   
    17    9   10 1   
    18    9   28 1   
    19   10   11 1   
    20   10   14 1   
    21   11   12 2   
    22   11   29 1   
    23   12   13 1   
    24   13   14 ar  
    25   13   19 ar  
    26   14   15 ar  
    27   15   16 ar  
    28   16   17 1   
    29   16   18 ar  
    30   18   19 ar  
    31   19   20 1   
    32   20   30 1   
    33   20   31 1   
@<TRIPOS>SUBSTRUCTURE
     1 CFB         1 TEMP              0 ****  ****    0 ROOT
