@<TRIPOS>MOLECULE
CFB
   31    29     1     0     0
SMALL
bcc


@<TRIPOS>ATOM
      1 O5'        -2.9720    2.3770   -2.9500 oh        1 CFB     -0.587800
      2 C5'        -1.5550    2.2690   -2.9690 c3        1 CFB      0.115400
      3 C4'        -1.0240    2.2430   -1.5320 c3        1 CFB      0.092100
      4 O4'        -1.3320    1.1130   -0.9530 os        1 CFB     -0.417600
      5 C3'         0.5300    2.2880   -1.5300 c3        1 CFB      0.090100
      6 O3'         0.9580    3.4590   -1.0760 oh        1 CFB     -0.580800
      7 C2'         0.9790    1.1390   -0.5760 c3        1 CFB      0.105600
      8 F           1.5060    0.0650   -1.3240 f         1 CFB     -0.209300
      9 C1'        -0.1060    0.7690    0.0390 c3        1 CFB      0.243800
     10 N9         -0.0640   -0.6210    0.3030 n3        1 CFB     -0.130400
     11 C8         -0.5140   -1.6210   -0.4790 c1        1 CFB      0.184400
     12 N7         -0.3750   -2.7930    0.2100 ne        1 CFB     -0.381400
     13 C5          0.1700   -2.5030    1.4370 cg        1 CFB     -0.188000
     14 C4          0.3640   -1.1710    1.5000 c1        1 CFB      0.354500
     15 N3          0.8890   -0.6090    2.6380 n1        1 CFB     -0.526800
     16 C2          1.2160   -1.4040    3.7080 c1        1 CFB      0.511700
     17 CL          1.8440   -0.7690    5.1890 cl        1 CFB     -0.038900
     18 N1          1.0190   -2.7560    3.6460 n1        1 CFB     -0.584800
     19 C6          0.5060   -3.3120    2.5360 c1        1 CFB      0.312800
     20 N6          0.5910   -4.7550    2.6790 n3        1 CFB     -0.819400
     21 H5'        -3.2600    2.4780   -3.7460 ho        1 CFB      0.414000
     22 H5'1       -1.1610    3.0670   -3.4600 h1        1 CFB      0.055200
     23 H5'2       -1.2890    1.4160   -3.4430 h1        1 CFB      0.055200
     24 H4'        -1.4080    3.0390   -0.9910 h1        1 CFB      0.114700
     25 H3'         0.8560    2.1380   -2.3890 h1        1 CFB      0.073700
     26 H1          1.7790    3.6790   -1.4910 ho        1 CFB      0.416000
     27 H2'         1.6450    1.4680    0.0720 h1        1 CFB      0.093700
     28 H1'        -0.2020    1.2490    0.8470 h2        1 CFB      0.117700
     29 H8         -0.8360   -1.5310   -1.3870 DU        1 CFB      0.207000
     30 HN61       -0.1620   -5.2570    2.6490 hn        1 CFB      0.453800
     31 HN62        1.4070   -5.1560    2.8430 hn        1 CFB      0.453800
@<TRIPOS>BOND
     1    1    2 1   
     2    1   21 1   
     3    2    3 1   
     4    2   22 1   
     5    2   23 1   
     6    3    4 1   
     7    3    5 1   
     8    3   24 1   
     9    4    9 1   
    10    5    6 1   
    11    5    7 1   
    12    5   25 1   
    13    6   26 1   
    14    7    8 1   
    15    7    9 1   
    16    7   27 1   
    17    9   10 1   
    18    9   28 1   
    19   10   11 2   
    20   10   14 1   
    21   11   12 2   
    22   12   13 1   
    23   13   19 3   
    24   14   15 3   
    25   16   17 1   
    26   16   18 3   
    27   19   20 1   
    28   20   30 1   
    29   20   31 1   
@<TRIPOS>SUBSTRUCTURE
     1 CFB         1 TEMP              0 ****  ****    0 ROOT
