@<TRIPOS>MOLECULE
CFB
   31    33     1     0     0
SMALL
bcc


@<TRIPOS>ATOM
      1 O5'         1.6270   -0.5360   -0.9400 oh        1 CFB     -0.586800
      2 C5'         1.4570   -1.1170    0.3340 c3        1 CFB      0.107400
      3 C4'         1.7780   -0.1150    1.4460 c3        1 CFB      0.096100
      4 O4'         1.3590   -0.6540    2.7050 os        1 CFB     -0.404600
      5 C3'         3.2760    0.2080    1.5270 c3        1 CFB      0.089100
      6 O3'         3.4080    1.6150    1.4670 oh        1 CFB     -0.583800
      7 C2'         3.7470   -0.3190    2.9120 c3        1 CFB      0.106600
      8 F           4.8400   -1.1480    2.7920 f         1 CFB     -0.211300
      9 C1'         2.4700   -0.9890    3.5430 c3        1 CFB      0.240800
     10 N9          2.5310   -2.4140    3.7440 na        1 CFB     -0.283000
     11 C8          2.0050   -3.4540    2.9350 cc        1 CFB      0.423700
     12 N7          2.1970   -4.6790    3.4440 nd        1 CFB     -0.540100
     13 C5          2.8770   -4.4700    4.6540 ca        1 CFB     -0.230200
     14 C4          3.0890   -3.0460    4.8680 ca        1 CFB      0.474800
     15 N3          3.7130   -2.5150    5.9600 nb        1 CFB     -0.727000
     16 C2          4.1270   -3.4740    6.8380 ca        1 CFB      0.788000
     17 CL          4.9290   -2.8870    8.2540 cl        1 CFB     -0.116000
     18 N1          4.0030   -4.8340    6.7670 nb        1 CFB     -0.785000
     19 C6          3.3690   -5.3600    5.6650 ca        1 CFB      0.777200
     20 N6          3.2050   -6.7120    5.5370 nh        1 CFB     -0.957500
     21 H5'         0.9940    0.1890   -1.0160 ho        1 CFB      0.406000
     22 H5'1        0.4080   -1.4940    0.4680 h1        1 CFB      0.060700
     23 H5'2        2.1720   -1.9840    0.3480 h1        1 CFB      0.060700
     24 H4'         1.1750    0.8280    1.3120 h1        1 CFB      0.098700
     25 H3'         3.8460   -0.2830    0.6930 h1        1 CFB      0.085700
     26 H1          4.3390    1.8040    1.2950 ho        1 CFB      0.416000
     27 H2'         4.0290    0.5520    3.5710 h1        1 CFB      0.092700
     28 H1'         2.2500   -0.5090    4.5460 h2        1 CFB      0.116700
     29 H8          1.4780   -3.2230    2.0010 h5        1 CFB      0.077800
     30 HN61        2.7610   -7.0650    4.7270 hn        1 CFB      0.453300
     31 HN62        3.5550   -7.3340    6.2230 hn        1 CFB      0.453300
@<TRIPOS>BOND
     1    1    2 1   
     2    1   21 1   
     3    2    3 1   
     4    2   22 1   
     5    2   23 1   
     6    3    4 1   
     7    3    5 1   
     8    3   24 1   
     9    4    9 1   
    10    5    6 1   
    11    5    7 1   
    12    5   25 1   
    13    6   26 1   
    14    7    8 1   
    15    7    9 1   
    16    7   27 1   
    17    9   10 1   
    18    9   28 1   
    19   10   11 1   
    20   10   14 1   
    21   11   12 2   
    22   11   29 1   
    23   12   13 1   
    24   13   14 ar  
    25   13   19 ar  
    26   14   15 ar  
    27   15   16 ar  
    28   16   17 1   
    29   16   18 ar  
    30   18   19 ar  
    31   19   20 1   
    32   20   30 1   
    33   20   31 1   
@<TRIPOS>SUBSTRUCTURE
     1 CFB         1 TEMP              0 ****  ****    0 ROOT
