@<TRIPOS>MOLECULE
CFB
   32    34     1     0     0
SMALL
bcc


@<TRIPOS>ATOM
      1 O5'         0.6660   -1.8420    0.4290 oh        1 CFB     -0.603800
      2 C5'         1.8620   -1.1290    0.2010 c3        1 CFB      0.108400
      3 C4'         2.0960   -0.0670    1.2770 c3        1 CFB      0.084100
      4 O4'         1.5020   -0.4900    2.5180 os        1 CFB     -0.391600
      5 C3'         3.5890    0.1990    1.5230 c3        1 CFB      0.098100
      6 O3'         3.7850    1.5920    1.4230 oh        1 CFB     -0.573800
      7 C2'         3.8640   -0.2770    2.9820 c3        1 CFB      0.106600
      8 F           4.9040   -1.1770    3.0390 f         1 CFB     -0.212300
      9 C1'         2.4830   -0.8380    3.4850 c3        1 CFB      0.230800
     10 N9          2.4340   -2.2730    3.7350 na        1 CFB     -0.272000
     11 C8          1.7430   -3.2710    3.0140 cc        1 CFB      0.526700
     12 N7          1.8630   -4.5080    3.5370 nd        1 CFB     -0.594100
     13 C5          2.6670   -4.3440    4.6670 ca        1 CFB     -0.130200
     14 C4          3.0430   -2.9180    4.8230 ca        1 CFB      0.468800
     15 N3          3.8090   -2.4520    5.8330 nb        1 CFB     -0.614000
     16 C2          4.2230   -3.4200    6.7140 ca        1 CFB      0.750000
     17 CL          5.1990   -2.8970    8.0190 cl        1 CFB     -0.021000
     18 N1          3.9470   -4.7660    6.6740 nb        1 CFB     -0.679000
     19 C6          3.1730   -5.2040    5.6520 ca        1 CFB      0.525200
     20 N6          2.8480   -6.6400    5.5660 n4        1 CFB     -0.814300
     21 H5'        -0.0570   -1.2030    0.4690 ho        1 CFB      0.424000
     22 H5'1        1.8420   -0.6310   -0.8050 h1        1 CFB      0.067200
     23 H5'2        2.6630   -1.9170    0.2130 h1        1 CFB      0.067200
     24 H4'         1.5530    0.8890    1.0230 h1        1 CFB      0.121700
     25 H3'         4.2410   -0.3580    0.7990 h1        1 CFB      0.082700
     26 H1          4.7330    1.7450    1.3170 ho        1 CFB      0.427000
     27 H2'         4.1190    0.6140    3.6270 h1        1 CFB      0.110700
     28 H1'         2.1740   -0.3230    4.4470 h2        1 CFB      0.125700
     29 H8          1.1550   -3.0110    2.1060 h5        1 CFB      0.144800
     30 HN61        3.2630   -7.0160    4.7040 hn        1 CFB      0.479133
     31 HN62        1.8250   -6.7390    5.5180 hn        1 CFB      0.479133
     32 H63         3.2100   -7.1560    6.3780 hn        1 CFB      0.479133
@<TRIPOS>BOND
     1    1    2 1   
     2    1   21 1   
     3    2    3 1   
     4    2   22 1   
     5    2   23 1   
     6    3    4 1   
     7    3    5 1   
     8    3   24 1   
     9    4    9 1   
    10    5    6 1   
    11    5    7 1   
    12    5   25 1   
    13    6   26 1   
    14    7    8 1   
    15    7    9 1   
    16    7   27 1   
    17    9   10 1   
    18    9   28 1   
    19   10   11 1   
    20   10   14 1   
    21   11   12 2   
    22   11   29 1   
    23   12   13 1   
    24   13   14 ar  
    25   13   19 ar  
    26   14   15 ar  
    27   15   16 ar  
    28   16   17 1   
    29   16   18 ar  
    30   18   19 ar  
    31   19   20 1   
    32   20   30 1   
    33   20   31 1   
    34   20   32 1   
@<TRIPOS>SUBSTRUCTURE
     1 CFB         1 TEMP              0 ****  ****    0 ROOT
