@<TRIPOS>MOLECULE
CFD
   25    24     1     0     0
SMALL
bcc


@<TRIPOS>ATOM
      1 N           2.5680   -1.0510   -1.0790 n3        1 CFD     -0.898800
      2 CA          2.1770    0.2060   -0.4620 c3        1 CFD      0.197700
      3 C          -2.3060   -0.6330   -0.1410 c         1 CFD      0.577900
      4 O          -2.5950   -1.4450    0.7370 o         1 CFD     -0.529100
      5 CB2         3.1760    0.7720    0.5530 c3        1 CFD     -0.131100
      6 CB1         0.8120    0.1120    0.1880 c2        1 CFD     -0.097400
      7 CG1        -0.2490    0.6740   -0.4100 c2        1 CFD     -0.169200
      8 CG2         0.7350   -0.6000    1.4840 c3        1 CFD     -0.071900
      9 CD         -1.6270    0.6850    0.1580 c3        1 CFD     -0.151500
     10 CE         -2.4500    1.8190   -0.4210 c3        1 CFD     -0.087100
     11 HN          3.5370   -1.0170   -1.3320 hn        1 CFD      0.347300
     12 HA          2.1170    0.9520   -1.3160 h1        1 CFD      0.059700
     13 H1G1       -0.1420    1.1810   -1.3830 ha        1 CFD      0.130000
     14 HD         -1.5680    0.8170    1.2780 hc        1 CFD      0.079700
     15 HNA         2.4250   -1.8190   -0.4520 hn        1 CFD      0.347300
     16 HB2         4.1620    0.9600    0.0640 hc        1 CFD      0.039700
     17 HB2A        2.7910    1.7370    0.9590 hc        1 CFD      0.039700
     18 HB2B        3.3290    0.0670    1.4050 hc        1 CFD      0.039700
     19 HG2         0.8920    0.1240    2.3240 hc        1 CFD      0.049700
     20 HG2A       -0.2660   -1.0850    1.6190 hc        1 CFD      0.049700
     21 HG2B        1.5180   -1.3940    1.5610 hc        1 CFD      0.049700
     22 HE         -1.9490    2.7960   -0.2160 hc        1 CFD      0.042033
     23 HEA        -2.5630    1.7040   -1.5260 hc        1 CFD      0.042033
     24 HEB        -3.4650    1.8350    0.0430 hc        1 CFD      0.042033
     25 H          -2.5270   -0.8190   -1.2140 h4        1 CFD      0.002200
@<TRIPOS>BOND
     1    1    2 1   
     2    1   11 1   
     3    1   15 1   
     4    2    5 1   
     5    2    6 1   
     6    2   12 1   
     7    3    4 2   
     8    3    9 1   
     9    3   25 1   
    10    5   16 1   
    11    5   17 1   
    12    5   18 1   
    13    6    7 2   
    14    6    8 1   
    15    7    9 1   
    16    7   13 1   
    17    8   19 1   
    18    8   20 1   
    19    8   21 1   
    20    9   10 1   
    21    9   14 1   
    22   10   22 1   
    23   10   23 1   
    24   10   24 1   
@<TRIPOS>SUBSTRUCTURE
     1 CFD         1 TEMP              0 ****  ****    0 ROOT
