@<TRIPOS>MOLECULE
CFD
   26    25     1     0     0
SMALL
bcc


@<TRIPOS>ATOM
      1 N           0.1100   -0.0440   -0.3350 n4        1 CFD     -0.848600
      2 CA          1.5390    0.1110    0.1530 c3        1 CFD      0.189700
      3 C           2.6410    2.6670   -3.4020 c         1 CFD      0.583900
      4 O           1.4460    2.3730   -3.3860 o         1 CFD     -0.544100
      5 CB2         1.5960    0.1860    1.6700 c3        1 CFD     -0.132100
      6 CB1         2.1340    1.3130   -0.5220 c2        1 CFD     -0.205400
      7 CG1         3.0410    1.1370   -1.5000 c2        1 CFD     -0.062200
      8 CG2         1.6580    2.6490   -0.0940 c3        1 CFD     -0.072900
      9 CD          3.6070    2.2490   -2.3110 c3        1 CFD     -0.174500
     10 CE          4.9440    1.8680   -2.9150 c3        1 CFD     -0.096100
     11 HN         -0.3100   -0.8870    0.0610 hn        1 CFD      0.458800
     12 HA          2.0750   -0.8320   -0.1820 hx        1 CFD      0.103700
     13 H1G1        3.4000    0.1280   -1.7740 ha        1 CFD      0.140000
     14 HD          3.7540    3.1590   -1.6530 hc        1 CFD      0.100700
     15 HNA        -0.4380    0.7730   -0.0500 hn        1 CFD      0.458800
     16 HB2         2.6690    0.3120    1.9670 hc        1 CFD      0.082033
     17 HB2A        1.2110   -0.7530    2.1360 hc        1 CFD      0.082033
     18 HB2B        1.0240    1.0570    2.0740 hc        1 CFD      0.082033
     19 HG2         0.7980    2.5900    0.6160 hc        1 CFD      0.062033
     20 HG2A        1.3350    3.2460   -0.9870 hc        1 CFD      0.062033
     21 HG2B        2.4850    3.2080    0.4160 hc        1 CFD      0.062033
     22 HE          5.6660    1.5940   -2.1080 hc        1 CFD      0.058033
     23 HEA         5.3650    2.7290   -3.4890 hc        1 CFD      0.058033
     24 HEB         4.8360    0.9980   -3.6070 hc        1 CFD      0.058033
     25 HN3         0.1040   -0.0970   -1.3590 hn        1 CFD      0.458800
     26 H           3.0960    3.2750   -4.2150 h4        1 CFD      0.037200
@<TRIPOS>BOND
     1    1    2 1   
     2    1   11 1   
     3    1   15 1   
     4    1   25 1   
     5    2    5 1   
     6    2    6 1   
     7    2   12 1   
     8    3    4 2   
     9    3    9 1   
    10    3   26 1   
    11    5   16 1   
    12    5   17 1   
    13    5   18 1   
    14    6    7 2   
    15    6    8 1   
    16    7    9 1   
    17    7   13 1   
    18    8   19 1   
    19    8   20 1   
    20    8   21 1   
    21    9   10 1   
    22    9   14 1   
    23   10   22 1   
    24   10   23 1   
    25   10   24 1   
@<TRIPOS>SUBSTRUCTURE
     1 CFD         1 TEMP              0 ****  ****    0 ROOT
