@<TRIPOS>MOLECULE
CFD
   26    25     1     0     0
SMALL
bcc


@<TRIPOS>ATOM
      1 N           0.1480   -0.1160   -0.3600 n4        1 CFD     -0.848600
      2 CA          1.5590    0.0990    0.1570 c3        1 CFD      0.189700
      3 C           2.6440    2.6430   -3.4140 c         1 CFD      0.583900
      4 O           1.4600    2.3040   -3.4180 o         1 CFD     -0.544100
      5 CB2         1.5810    0.1990    1.6730 c3        1 CFD     -0.132100
      6 CB1         2.1240    1.3130   -0.5250 c2        1 CFD     -0.205400
      7 CG1         3.0580    1.1550   -1.4800 c2        1 CFD     -0.062200
      8 CG2         1.5910    2.6360   -0.1280 c3        1 CFD     -0.072900
      9 CD          3.6000    2.2750   -2.2960 c3        1 CFD     -0.174500
     10 CE          4.9620    1.9350   -2.8670 c3        1 CFD     -0.096100
     11 HN         -0.2490   -0.9670    0.0410 hn        1 CFD      0.458800
     12 HA          2.1370   -0.8280   -0.1530 hx        1 CFD      0.103700
     13 H1G1        3.4600    0.1570   -1.7320 ha        1 CFD      0.140000
     14 HD          3.7010    3.2000   -1.6500 hc        1 CFD      0.100700
     15 HNA         0.1670   -0.1840   -1.3830 hn        1 CFD      0.458800
     16 HB2         0.9680    1.0540    2.0500 hc        1 CFD      0.082033
     17 HB2A        1.2200   -0.7470    2.1460 hc        1 CFD      0.082033
     18 HB2B        2.6420    0.3690    1.9900 hc        1 CFD      0.082033
     19 HG2         1.2670    3.2090   -1.0360 hc        1 CFD      0.062033
     20 HG2A        0.7190    2.5560    0.5650 hc        1 CFD      0.062033
     21 HG2B        2.3860    3.2320    0.3920 hc        1 CFD      0.062033
     22 HE          4.9000    1.0520   -3.5480 hc        1 CFD      0.058033
     23 HEA         5.3650    2.8020   -3.4450 hc        1 CFD      0.058033
     24 HEB         5.6770    1.6980   -2.0420 hc        1 CFD      0.058033
     25 HN3        -0.4360    0.6850   -0.0990 hn        1 CFD      0.458800
     26 H           3.0930    3.2550   -4.2260 h4        1 CFD      0.037200
@<TRIPOS>BOND
     1    1    2 1   
     2    1   11 1   
     3    1   15 1   
     4    1   25 1   
     5    2    5 1   
     6    2    6 1   
     7    2   12 1   
     8    3    4 2   
     9    3    9 1   
    10    3   26 1   
    11    5   16 1   
    12    5   17 1   
    13    5   18 1   
    14    6    7 2   
    15    6    8 1   
    16    7    9 1   
    17    7   13 1   
    18    8   19 1   
    19    8   20 1   
    20    8   21 1   
    21    9   10 1   
    22    9   14 1   
    23   10   22 1   
    24   10   23 1   
    25   10   24 1   
@<TRIPOS>SUBSTRUCTURE
     1 CFD         1 TEMP              0 ****  ****    0 ROOT
