@<TRIPOS>MOLECULE
CFD
   26    25     1     0     0
SMALL
bcc


@<TRIPOS>ATOM
      1 N           0.1380   -0.0810   -0.3170 nz        1 CFD     -0.848600
      2 CA          1.5560    0.1280    0.1840 c3        1 CFD      0.189700
      3 C           2.6400    2.5950   -3.4400 c         1 CFD      0.583900
      4 O           1.4520    2.2690   -3.4290 o         1 CFD     -0.544100
      5 CB2         1.5910    0.2550    1.6980 c3        1 CFD     -0.132100
      6 CB1         2.1280    1.3230   -0.5240 c2        1 CFD     -0.205400
      7 CG1         3.0530    1.1380   -1.4830 c2        1 CFD     -0.062200
      8 CG2         1.6120    2.6590   -0.1460 c3        1 CFD     -0.072900
      9 CD          3.6010    2.2380   -2.3230 c3        1 CFD     -0.174500
     10 CE          4.9550    1.8730   -2.8970 c3        1 CFD     -0.096100
     11 HN         -0.2650   -0.9210    0.1020 hn        1 CFD      0.458800
     12 HA          2.1210   -0.8100   -0.1140 hx        1 CFD      0.103700
     13 H1G1        3.4420    0.1310   -1.7190 ha        1 CFD      0.140000
     14 HD          3.7160    3.1720   -1.6940 hc        1 CFD      0.100700
     15 HNA        -0.4350    0.7310   -0.0660 hn        1 CFD      0.458800
     16 HB2         2.6560    0.4180    2.0040 hc        1 CFD      0.082033
     17 HB2A        1.2240   -0.6790    2.1900 hc        1 CFD      0.082033
     18 HB2B        0.9910    1.1220    2.0650 hc        1 CFD      0.082033
     19 HG2         1.2850    3.2180   -1.0620 hc        1 CFD      0.062033
     20 HG2A        0.7450    2.6000    0.5550 hc        1 CFD      0.062033
     21 HG2B        2.4170    3.2560    0.3550 hc        1 CFD      0.062033
     22 HE          4.8790    0.9780   -3.5620 hc        1 CFD      0.058033
     23 HEA         5.3620    2.7250   -3.4940 hc        1 CFD      0.058033
     24 HEB         5.6730    1.6440   -2.0730 hc        1 CFD      0.058033
     25 HN3         0.1480   -0.1680   -1.3390 hn        1 CFD      0.458800
     26 H           3.0900    3.1870   -4.2670 h4        1 CFD      0.037200
@<TRIPOS>BOND
     1    1    2 1   
     2    1   11 1   
     3    1   15 1   
     4    1   25 1   
     5    2    5 1   
     6    2    6 1   
     7    2   12 1   
     8    3    4 2   
     9    3    9 1   
    10    3   26 1   
    11    5   16 1   
    12    5   17 1   
    13    5   18 1   
    14    6    7 2   
    15    6    8 1   
    16    7    9 1   
    17    7   13 1   
    18    8   19 1   
    19    8   20 1   
    20    8   21 1   
    21    9   10 1   
    22    9   14 1   
    23   10   22 1   
    24   10   23 1   
    25   10   24 1   
@<TRIPOS>SUBSTRUCTURE
     1 CFD         1 TEMP              0 ****  ****    0 ROOT
