@<TRIPOS>MOLECULE
CFE
   36    38     1     0     0
SMALL
bcc


@<TRIPOS>ATOM
      1 N1          0.4640    0.6060   -0.0890 nc        1 CFE     -0.656000
      2 C2          1.7900    0.6370    0.1450 cd        1 CFE      0.416400
      3 N3          2.1000    0.2960    1.4670 na        1 CFE     -0.225900
      4 N4          0.8000   -0.2580    3.4770 nf        1 CFE     -0.666100
      5 C5         -0.3010   -0.6230    4.0700 c2        1 CFE      0.658100
      6 N6         -1.5620   -0.9930    3.6220 nh        1 CFE     -0.827200
      7 C7         -1.8830   -1.1350    2.2310 c3        1 CFE      0.187800
      8 C8         -1.5940    0.0660    1.3040 c3        1 CFE      0.101800
      9 O8         -2.2070    1.2050    1.8950 oh        1 CFE     -0.610800
     10 C9         -0.1310    0.2410    1.1210 cc        1 CFE      0.216600
     11 C10         0.8680    0.0420    2.1200 cd        1 CFE      0.052800
     12 C1S         3.3870    0.3080    2.1250 c3        1 CFE      0.224800
     13 C2S         3.8160   -1.0860    2.6890 c3        1 CFE      0.085100
     14 O2S         4.2490   -0.9320    4.0240 oh        1 CFE     -0.594800
     15 C3S         5.0270   -1.5180    1.8330 c3        1 CFE      0.134100
     16 O3S         6.1670   -1.8450    2.5860 oh        1 CFE     -0.573800
     17 C4S         5.2890   -0.3400    0.8750 c3        1 CFE      0.051100
     18 O4S         4.4110    0.7430    1.2250 os        1 CFE     -0.418600
     19 C5S         5.0500   -0.7150   -0.5860 c3        1 CFE      0.115400
     20 O5S         5.3500    0.3600   -1.4490 oh        1 CFE     -0.590800
     21 H2          2.5700    0.8980   -0.5810 h5        1 CFE      0.069100
     22 H5         -0.2020   -0.7170    5.1810 h5        1 CFE      0.038800
     23 HN6        -2.3100   -0.6450    4.1860 hn        1 CFE      0.425800
     24 H7         -2.9850   -1.3650    2.1600 h1        1 CFE      0.067200
     25 H7A        -1.3060   -2.0140    1.8230 h1        1 CFE      0.067200
     26 H8         -2.0880   -0.1310    0.3070 h1        1 CFE      0.066700
     27 HO8        -1.9110    1.9750    1.3940 ho        1 CFE      0.421000
     28 H1S         3.3610    1.0840    2.9510 h2        1 CFE      0.107700
     29 H2S         2.9930   -1.8450    2.6280 h1        1 CFE      0.080700
     30 HO2S        3.4540   -0.8160    4.5620 ho        1 CFE      0.432000
     31 H3S         4.7880   -2.4570    1.2610 h1        1 CFE      0.094700
     32 HO3S        6.2920   -1.1630    3.2610 ho        1 CFE      0.425000
     33 H4S         6.3270    0.0730    1.0060 h1        1 CFE      0.100700
     34 H5S         5.7460   -1.5400   -0.8930 h1        1 CFE      0.056700
     35 H5SA        3.9830   -1.0370   -0.7330 h1        1 CFE      0.056700
     36 HO5S        4.8710    1.1330   -1.1210 ho        1 CFE      0.409000
@<TRIPOS>BOND
     1    1    2 2   
     2    1   10 1   
     3    2    3 1   
     4    2   21 1   
     5    3   11 1   
     6    3   12 1   
     7    4    5 2   
     8    4   11 1   
     9    5    6 1   
    10    5   22 1   
    11    6    7 1   
    12    6   23 1   
    13    7    8 1   
    14    7   24 1   
    15    7   25 1   
    16    8    9 1   
    17    8   10 1   
    18    8   26 1   
    19    9   27 1   
    20   10   11 2   
    21   12   13 1   
    22   12   18 1   
    23   12   28 1   
    24   13   14 1   
    25   13   15 1   
    26   13   29 1   
    27   14   30 1   
    28   15   16 1   
    29   15   17 1   
    30   15   31 1   
    31   16   32 1   
    32   17   18 1   
    33   17   19 1   
    34   17   33 1   
    35   19   20 1   
    36   19   34 1   
    37   19   35 1   
    38   20   36 1   
@<TRIPOS>SUBSTRUCTURE
     1 CFE         1 TEMP              0 ****  ****    0 ROOT
