@<TRIPOS>MOLECULE
CFE
   36    38     1     0     0
SMALL
bcc


@<TRIPOS>ATOM
      1 N1          0.4710    0.8800    0.0050 nc        1 CFE     -0.663000
      2 C2          1.7950    0.9170    0.2540 cd        1 CFE      0.419400
      3 N3          2.1040    0.4280    1.5300 na        1 CFE     -0.223900
      4 N4          0.8020   -0.3830    3.4500 nf        1 CFE     -0.666100
      5 C5         -0.2950   -0.8350    3.9870 c2        1 CFE      0.654100
      6 N6         -1.5460   -1.1780    3.4910 nh        1 CFE     -0.826200
      7 C7         -1.8500   -1.1710    2.0880 c3        1 CFE      0.186800
      8 C8         -1.5820    0.1330    1.3050 c3        1 CFE      0.100800
      9 O8         -2.2280    1.1840    2.0140 oh        1 CFE     -0.611800
     10 C9         -0.1220    0.3610    1.1580 cc        1 CFE      0.216600
     11 C10         0.8750    0.0710    2.1370 cd        1 CFE      0.047800
     12 C1S         3.3980    0.4070    2.1780 c3        1 CFE      0.221800
     13 C2S         3.8180   -1.0060    2.7010 c3        1 CFE      0.086100
     14 O2S         4.0730   -0.9620    4.0870 oh        1 CFE     -0.599800
     15 C3S         5.1360   -1.3320    1.9640 c3        1 CFE      0.130100
     16 O3S         6.2920   -1.2850    2.7730 oh        1 CFE     -0.586800
     17 C4S         5.2820   -0.2240    0.9000 c3        1 CFE      0.126100
     18 O4S         4.4080    0.8520    1.2700 os        1 CFE     -0.393600
     19 C5S         4.9310   -0.7380   -0.4970 c3        1 CFE      0.108400
     20 O5S         5.4970    0.1740   -1.4230 oh        1 CFE     -0.589800
     21 H2          2.5760    1.2900   -0.4220 h5        1 CFE      0.081100
     22 H5         -0.2020   -1.0540    5.0810 h5        1 CFE      0.037800
     23 HN6        -2.3040   -0.8900    4.0760 hn        1 CFE      0.424800
     24 H7         -1.2480   -1.9850    1.5920 h1        1 CFE      0.066200
     25 H7A        -2.9450   -1.4180    1.9790 h1        1 CFE      0.066200
     26 H8         -2.0640    0.0380    0.2870 h1        1 CFE      0.065700
     27 HO8        -1.9360    2.0120    1.6130 ho        1 CFE      0.421000
     28 H1S         3.3900    1.1600    3.0240 h2        1 CFE      0.106700
     29 H2S         3.0420   -1.7860    2.4750 h1        1 CFE      0.071700
     30 HO2S        3.2240   -0.8180    4.5260 ho        1 CFE      0.438000
     31 H3S         5.0690   -2.3520    1.4980 h1        1 CFE      0.056700
     32 HO3S        6.0560   -1.5920    3.6590 ho        1 CFE      0.431000
     33 H4S         6.3140    0.2270    0.9070 h1        1 CFE      0.123700
     34 H5S         3.8160   -0.7840   -0.6280 h1        1 CFE      0.034200
     35 H5SA        5.3730   -1.7580   -0.6520 h1        1 CFE      0.034200
     36 HO5S        5.2290   -0.1240   -2.3000 ho        1 CFE      0.404000
@<TRIPOS>BOND
     1    1    2 2   
     2    1   10 1   
     3    2    3 1   
     4    2   21 1   
     5    3   11 1   
     6    3   12 1   
     7    4    5 2   
     8    4   11 1   
     9    5    6 1   
    10    5   22 1   
    11    6    7 1   
    12    6   23 1   
    13    7    8 1   
    14    7   24 1   
    15    7   25 1   
    16    8    9 1   
    17    8   10 1   
    18    8   26 1   
    19    9   27 1   
    20   10   11 2   
    21   12   13 1   
    22   12   18 1   
    23   12   28 1   
    24   13   14 1   
    25   13   15 1   
    26   13   29 1   
    27   14   30 1   
    28   15   16 1   
    29   15   17 1   
    30   15   31 1   
    31   16   32 1   
    32   17   18 1   
    33   17   19 1   
    34   17   33 1   
    35   19   20 1   
    36   19   34 1   
    37   19   35 1   
    38   20   36 1   
@<TRIPOS>SUBSTRUCTURE
     1 CFE         1 TEMP              0 ****  ****    0 ROOT
