@<TRIPOS>MOLECULE
CFE
   36    34     1     0     0
SMALL
bcc


@<TRIPOS>ATOM
      1 N1         -1.7330   -0.2510   -1.4640 n2        1 CFE     -0.119000
      2 C2         -0.4160   -0.5630   -1.3300 c1        1 CFE     -0.102000
      3 N3         -0.0330   -0.2380   -0.0680 n2        1 CFE     -0.173000
      4 N4         -1.4450    0.9480    1.7950 n1        1 CFE     -0.219000
      5 C5         -2.0610    0.2360    2.8510 c1        1 CFE      0.092000
      6 N6         -3.4300   -0.1100    2.7640 n2        1 CFE     -0.314000
      7 C7         -3.7590   -0.5550    1.4540 c3        1 CFE     -0.048000
      8 C8         -3.4740    0.5330    0.4410 c3        1 CFE      0.086000
      9 O8         -3.3890    1.7720    1.1030 oh        1 CFE     -0.338000
     10 C9         -2.1600    0.2630   -0.2930 c2        1 CFE     -0.224000
     11 C10        -1.1040    0.2710    0.5750 c1        1 CFE      0.040000
     12 C1S         1.2530   -0.4920    0.5120 c2        1 CFE      0.116000
     13 C2S         2.0840   -1.5100   -0.4150 c3        1 CFE      0.017000
     14 O2S         3.1550   -2.1520    0.3710 oh        1 CFE     -0.292000
     15 C3S         2.5960   -0.7950   -1.3600 c3        1 CFE     -0.031000
     16 O3S         3.9350   -1.3300   -1.7450 oh        1 CFE     -0.315000
     17 C4S         2.7400    0.6140   -0.7550 c3        1 CFE     -0.064000
     18 O4S         1.9340    0.5910    0.5600 os        1 CFE     -0.266000
     19 C5S         2.2150    1.5750   -1.6290 c3        1 CFE     -0.033000
     20 O5S         2.8280    2.8360   -1.3740 oh        1 CFE     -0.318000
     21 H2          0.1600   -0.9170   -2.0280 DU        1 CFE      0.193000
     22 H5         -1.5300   -0.0690    3.6070 ha        1 CFE      0.171000
     23 HN6        -4.0080   -0.1130    3.4710 hn        1 CFE      0.219000
     24 H7         -3.1940   -1.3180    1.2440 h1        1 CFE      0.106000
     25 H7A        -4.7250   -0.7480    1.4310 h1        1 CFE      0.106000
     26 H8         -4.2090    0.5650   -0.2130 h1        1 CFE      0.104000
     27 HO8        -4.1000    2.2720    0.8930 ho        1 CFE      0.218000
     28 H1S         1.1470   -0.8670    1.4190 h4        1 CFE      0.174000
     29 H2S         1.4890   -2.1860   -0.7900 h1        1 CFE      0.142000
     30 HO2S        2.9690   -3.0190    0.4760 ho        1 CFE      0.225000
     31 H3S         2.0030   -0.7740   -2.1300 h1        1 CFE      0.100000
     32 HO3S        3.9520   -1.4830   -2.6170 ho        1 CFE      0.217000
     33 H4S         3.6850    0.8060   -0.5690 h1        1 CFE      0.133000
     34 H5S         1.2490    1.6480   -1.4900 h1        1 CFE      0.091000
     35 H5SA        2.3920    1.3060   -2.5540 h1        1 CFE      0.091000
     36 HO5S        2.9810    3.2510   -2.1450 ho        1 CFE      0.218000
@<TRIPOS>BOND
     1    1    2 1   
     2    1   10 1   
     3    2    3 1   
     4    3   11 1   
     5    4    5 1   
     6    5   22 1   
     7    6    7 1   
     8    6   23 1   
     9    7    8 1   
    10    7   24 1   
    11    7   25 1   
    12    8    9 1   
    13    8   10 1   
    14    8   26 1   
    15    9   27 1   
    16   10   11 1   
    17   12   13 1   
    18   12   18 1   
    19   12   28 1   
    20   13   14 1   
    21   13   15 1   
    22   13   29 1   
    23   14   30 1   
    24   15   16 1   
    25   15   17 1   
    26   15   31 1   
    27   16   32 1   
    28   17   18 1   
    29   17   19 1   
    30   17   33 1   
    31   19   20 1   
    32   19   34 1   
    33   19   35 1   
    34   20   36 1   
@<TRIPOS>SUBSTRUCTURE
     1 CFE         1 TEMP              0 ****  ****    0 ROOT
