@<TRIPOS>MOLECULE
CFE
   36    38     1     0     0
SMALL
bcc


@<TRIPOS>ATOM
      1 N1         -1.1090    2.1880   -0.2720 nc        1 CFE     -0.655000
      2 C2          0.1060    1.7310    0.0840 cd        1 CFE      0.405400
      3 N3          0.0820    0.3710    0.4260 na        1 CFE     -0.226900
      4 N4         -1.6750   -1.3340    0.6430 nf        1 CFE     -0.642100
      5 C5         -2.8690   -1.7910    0.4020 c2        1 CFE      0.652100
      6 N6         -3.9490   -1.3340   -0.3470 nh        1 CFE     -0.828200
      7 C7         -3.8810   -0.1490   -1.1560 c3        1 CFE      0.186800
      8 C8         -3.4260    1.1580   -0.4720 c3        1 CFE      0.101800
      9 O8         -4.2340    1.3270    0.6860 oh        1 CFE     -0.610800
     10 C9         -1.9770    1.1010   -0.1510 cc        1 CFE      0.207600
     11 C10        -1.2630   -0.0530    0.2950 cd        1 CFE      0.064800
     12 C1S         1.1710   -0.4280    0.9480 c3        1 CFE      0.257800
     13 C2S         1.5540   -1.6420    0.0390 c3        1 CFE      0.131100
     14 O2S         1.8040   -2.7100    0.9270 oh        1 CFE     -0.579800
     15 C3S         2.8160   -1.1640   -0.7150 c3        1 CFE      0.081100
     16 O3S         3.7470   -2.2280   -0.7130 oh        1 CFE     -0.593800
     17 C4S         3.3160    0.0640    0.0650 c3        1 CFE      0.056100
     18 O4S         2.3500    0.3800    1.0800 os        1 CFE     -0.415600
     19 C5S         3.5040    1.2870   -0.8310 c3        1 CFE      0.113400
     20 O5S         4.0090    2.3850   -0.1020 oh        1 CFE     -0.589800
     21 H2          1.0290    2.3210    0.1310 h5        1 CFE      0.066100
     22 H5         -3.0590   -2.8020    0.8430 h5        1 CFE      0.042800
     23 HN6        -4.8330   -1.4770    0.0950 hn        1 CFE      0.422800
     24 H7         -3.1670   -0.3440   -2.0070 h1        1 CFE      0.065700
     25 H7A        -4.9090    0.0270   -1.5830 h1        1 CFE      0.065700
     26 H8         -3.6310    2.0150   -1.1790 h1        1 CFE      0.064700
     27 HO8        -3.8480    2.0500    1.1950 ho        1 CFE      0.420000
     28 H1S         0.9130   -0.7760    1.9940 h2        1 CFE      0.129700
     29 H2S         0.7420   -1.9290   -0.6790 h1        1 CFE      0.080700
     30 HO2S        2.3160   -3.3740    0.4450 ho        1 CFE      0.430000
     31 H3S         2.5610   -0.8880   -1.7740 h1        1 CFE      0.059700
     32 HO3S        4.5690   -1.8880   -1.0860 ho        1 CFE      0.419000
     33 H4S         4.2660   -0.1610    0.6240 h1        1 CFE      0.094700
     34 H5S         4.2800    1.0750   -1.6140 h1        1 CFE      0.054200
     35 H5SA        2.5330    1.5630   -1.3230 h1        1 CFE      0.054200
     36 HO5S        3.4250    2.5170    0.6570 ho        1 CFE      0.414000
@<TRIPOS>BOND
     1    1    2 2   
     2    1   10 1   
     3    2    3 1   
     4    2   21 1   
     5    3   11 1   
     6    3   12 1   
     7    4    5 2   
     8    4   11 1   
     9    5    6 1   
    10    5   22 1   
    11    6    7 1   
    12    6   23 1   
    13    7    8 1   
    14    7   24 1   
    15    7   25 1   
    16    8    9 1   
    17    8   10 1   
    18    8   26 1   
    19    9   27 1   
    20   10   11 2   
    21   12   13 1   
    22   12   18 1   
    23   12   28 1   
    24   13   14 1   
    25   13   15 1   
    26   13   29 1   
    27   14   30 1   
    28   15   16 1   
    29   15   17 1   
    30   15   31 1   
    31   16   32 1   
    32   17   18 1   
    33   17   19 1   
    34   17   33 1   
    35   19   20 1   
    36   19   34 1   
    37   19   35 1   
    38   20   36 1   
@<TRIPOS>SUBSTRUCTURE
     1 CFE         1 TEMP              0 ****  ****    0 ROOT
