@<TRIPOS>MOLECULE
CFE
   36    38     1     0     0
SMALL
bcc


@<TRIPOS>ATOM
      1 N1          0.5240    0.6290   -0.0700 nc        1 CFE     -0.654000
      2 C2          1.8410    0.6300    0.2120 cd        1 CFE      0.404400
      3 N3          2.0970    0.3020    1.5520 na        1 CFE     -0.224900
      4 N4          0.7030   -0.1450    3.5260 nf        1 CFE     -0.641100
      5 C5         -0.4240   -0.4780    4.0850 c2        1 CFE      0.655100
      6 N6         -1.6740   -0.8460    3.5990 nu        1 CFE     -0.829200
      7 C7         -1.9420   -1.0120    2.1990 c3        1 CFE      0.187800
      8 C8         -1.5940    0.1630    1.2590 c3        1 CFE      0.101800
      9 O8         -2.2060    1.3270    1.8020 oh        1 CFE     -0.610800
     10 C9         -0.1220    0.3040    1.1250 cc        1 CFE      0.206600
     11 C10         0.8350    0.1040    2.1650 cd        1 CFE      0.064800
     12 C1S         3.3700    0.2970    2.2380 c3        1 CFE      0.219800
     13 C2S         3.7740   -1.0970    2.8290 c3        1 CFE      0.134100
     14 O2S         4.1720   -0.9590    4.1670 oh        1 CFE     -0.557800
     15 C3S         4.9020   -1.5990    1.8970 c3        1 CFE      0.080100
     16 O3S         6.0160   -1.9050    2.7130 oh        1 CFE     -0.586800
     17 C4S         5.2160   -0.4290    0.9480 c3        1 CFE      0.050100
     18 O4S         4.4160    0.6960    1.3410 os        1 CFE     -0.418600
     19 C5S         4.9300   -0.7680   -0.5140 c3        1 CFE      0.111400
     20 O5S         5.2970    0.2950   -1.3670 oh        1 CFE     -0.589800
     21 H2          2.6480    0.8680   -0.4900 h5        1 CFE      0.065100
     22 H5         -0.3680   -0.5410    5.2010 h5        1 CFE      0.043800
     23 HN6        -2.4360   -0.4650    4.1200 hn        1 CFE      0.422800
     24 H7         -3.0430   -1.2250    2.0880 h1        1 CFE      0.065200
     25 H7A        -1.3650   -1.9090    1.8330 h1        1 CFE      0.065200
     26 H8         -2.0570   -0.0450    0.2490 h1        1 CFE      0.064700
     27 HO8        -1.8600    2.0810    1.3090 ho        1 CFE      0.420000
     28 H1S         3.3480    1.0820    3.0540 h2        1 CFE      0.116700
     29 H2S         2.9120   -1.8160    2.8580 h1        1 CFE      0.113700
     30 HO2S        5.0500   -0.5540    4.1830 ho        1 CFE      0.419000
     31 H3S         4.5720   -2.5070    1.3270 h1        1 CFE      0.065700
     32 HO3S        6.6820   -2.3070    2.1420 ho        1 CFE      0.415000
     33 H4S         6.2790   -0.0770    1.0620 h1        1 CFE      0.095700
     34 H5S         5.5620   -1.6350   -0.8420 h1        1 CFE      0.055700
     35 H5SA        3.8430   -1.0160   -0.6510 h1        1 CFE      0.055700
     36 HO5S        4.8710    1.0950   -1.0300 ho        1 CFE      0.412000
@<TRIPOS>BOND
     1    1    2 2   
     2    1   10 1   
     3    2    3 1   
     4    2   21 1   
     5    3   11 1   
     6    3   12 1   
     7    4    5 2   
     8    4   11 1   
     9    5    6 1   
    10    5   22 1   
    11    6    7 1   
    12    6   23 1   
    13    7    8 1   
    14    7   24 1   
    15    7   25 1   
    16    8    9 1   
    17    8   10 1   
    18    8   26 1   
    19    9   27 1   
    20   10   11 2   
    21   12   13 1   
    22   12   18 1   
    23   12   28 1   
    24   13   14 1   
    25   13   15 1   
    26   13   29 1   
    27   14   30 1   
    28   15   16 1   
    29   15   17 1   
    30   15   31 1   
    31   16   32 1   
    32   17   18 1   
    33   17   19 1   
    34   17   33 1   
    35   19   20 1   
    36   19   34 1   
    37   19   35 1   
    38   20   36 1   
@<TRIPOS>SUBSTRUCTURE
     1 CFE         1 TEMP              0 ****  ****    0 ROOT
