@<TRIPOS>MOLECULE
CFF
   24    18     1     0     0
SMALL
bcc


@<TRIPOS>ATOM
      1 N1         -0.4740    0.0100   -1.7330 n2        1 CFF     -0.312000
      2 C2          0.8920    0.0100   -1.7330 c1        1 CFF      0.405000
      3 C10        -1.1850    0.0000   -2.9660 c3        1 CFF     -0.075000
      4 C6         -1.1460    0.0100   -0.5700 c1        1 CFF      0.402000
      5 N3          1.5750    0.0100   -0.5530 n2        1 CFF     -0.233000
      6 O11         1.4990    0.0100   -2.7850 o         1 CFF     -0.362000
      7 C12         2.9990    0.0120   -0.5550 c2        1 CFF     -0.077000
      8 C4          0.8950    0.0100    0.6290 c1        1 CFF      0.077000
      9 C5         -0.4530    0.0100    0.6300 c1        1 CFF     -0.240000
     10 N9          1.3160    0.0100    1.9220 n1        1 CFF     -0.131500
     11 O13        -2.3610   -0.0070   -0.5710 o         1 CFF     -0.358000
     12 N7         -0.8720    0.0100    1.9240 n1        1 CFF     -0.131500
     13 C8          0.2230    0.0100    2.7180 c1        1 CFF     -0.045000
     14 C14        -2.0610   -0.0300    2.7060 c2        1 CFF     -0.077000
     15 H101       -1.2210   -0.9110   -3.3140 h1        1 CFF      0.102667
     16 H102       -2.0930    0.3290   -2.8210 h1        1 CFF      0.102667
     17 H103       -0.7300    0.5760   -3.6090 h1        1 CFF      0.102667
     18 H121        3.3250   -0.7820   -1.0190 ha        1 CFF      0.106833
     19 H122        3.3220    0.8120   -1.0110 ha        1 CFF      0.106833
     20 H123        3.3260    0.0080    0.3650 ha        1 CFF      0.106833
     21 H81         0.2240    0.0080    3.6940 DU        1 CFF      0.208000
     22 H141       -2.0850    0.7430    3.3020 ha        1 CFF      0.106833
     23 H142       -2.8390   -0.0100    2.1160 ha        1 CFF      0.106833
     24 H143       -2.0760   -0.8490    3.2350 ha        1 CFF      0.106833
@<TRIPOS>BOND
     1    1    3 1   
     2    1    4 1   
     3    2    5 1   
     4    2    6 1   
     5    3   15 1   
     6    3   16 1   
     7    3   17 1   
     8    4   11 1   
     9    5    8 1   
    10    7   18 1   
    11    7   19 1   
    12    7   20 1   
    13    8    9 1   
    14   10   13 1   
    15   12   13 1   
    16   14   22 1   
    17   14   23 1   
    18   14   24 1   
@<TRIPOS>SUBSTRUCTURE
     1 CFF         1 TEMP              0 ****  ****    0 ROOT
