@<TRIPOS>MOLECULE
CFF
   24    25     1     0     0
SMALL
bcc


@<TRIPOS>ATOM
      1 N1         -0.0640   -0.1170   -0.0180 n         1 CFF     -0.483400
      2 C2          1.3550   -0.0850   -0.0480 c         1 CFF      0.814500
      3 C10        -0.7280   -0.2120   -1.2970 c3        1 CFF      0.080300
      4 C6         -0.8220   -0.0610    1.1700 c         1 CFF      0.765100
      5 N3          2.1010    0.0070    1.1520 n         1 CFF     -0.417300
      6 O11         1.9520   -0.1380   -1.1460 o         1 CFF     -0.637500
      7 C12         3.5390    0.0400    1.1300 c3        1 CFF      0.090300
      8 C4          1.4100    0.0650    2.3530 cc        1 CFF      0.485200
      9 C5         -0.0220    0.0320    2.3780 cd        1 CFF     -0.350200
     10 N9          1.9090    0.1580    3.6620 nc        1 CFF     -0.685000
     11 O13        -2.0670   -0.0930    1.1430 o         1 CFF     -0.633500
     12 N7         -0.3920    0.1070    3.7250 na        1 CFF     -0.148900
     13 C8          0.7980    0.1800    4.4470 cd        1 CFF      0.443400
     14 C14        -1.7200    0.1070    4.2480 c3        1 CFF      0.009600
     15 H101       -0.4460    0.6700   -1.9330 h1        1 CFF      0.063367
     16 H102       -1.8390   -0.2300   -1.1430 h1        1 CFF      0.063367
     17 H103       -0.4010   -1.1490   -1.8210 h1        1 CFF      0.063367
     18 H121        3.9030   -0.0170    0.0690 h1        1 CFF      0.063367
     19 H122        3.9430   -0.8300    1.7140 h1        1 CFF      0.063367
     20 H123        3.8990    0.9940    1.6000 h1        1 CFF      0.063367
     21 H81         0.8200    0.2480    5.5420 h5        1 CFF      0.071100
     22 H141       -2.4570    0.0380    3.4000 h1        1 CFF      0.071700
     23 H142       -1.9010    1.0550    4.8220 h1        1 CFF      0.071700
     24 H143       -1.8580   -0.7710    4.9350 h1        1 CFF      0.071700
@<TRIPOS>BOND
     1    1    2 1   
     2    1    3 1   
     3    1    4 1   
     4    2    5 1   
     5    2    6 2   
     6    3   15 1   
     7    3   16 1   
     8    3   17 1   
     9    4    9 1   
    10    4   11 2   
    11    5    7 1   
    12    5    8 1   
    13    7   18 1   
    14    7   19 1   
    15    7   20 1   
    16    8    9 2   
    17    8   10 1   
    18    9   12 1   
    19   10   13 2   
    20   12   13 1   
    21   12   14 1   
    22   13   21 1   
    23   14   22 1   
    24   14   23 1   
    25   14   24 1   
@<TRIPOS>SUBSTRUCTURE
     1 CFF         1 TEMP              0 ****  ****    0 ROOT
