@<TRIPOS>MOLECULE
CFF
   24    25     1     0     0
SMALL
bcc


@<TRIPOS>ATOM
      1 N1         -0.0630   -0.1310   -0.0170 n         1 CFF     -0.483400
      2 C2          1.3560   -0.0960   -0.0470 c         1 CFF      0.814500
      3 C10        -0.7260   -0.2360   -1.2960 c3        1 CFF      0.080300
      4 C6         -0.8220   -0.0680    1.1700 c         1 CFF      0.765100
      5 N3          2.1010    0.0050    1.1530 n         1 CFF     -0.417300
      6 O11         1.9540   -0.1570   -1.1440 o         1 CFF     -0.637500
      7 C12         3.5390    0.0420    1.1310 c3        1 CFF      0.090300
      8 C4          1.4100    0.0710    2.3530 cc        1 CFF      0.485200
      9 C5         -0.0230    0.0360    2.3770 cd        1 CFF     -0.350200
     10 N9          1.9080    0.1750    3.6620 nc        1 CFF     -0.685000
     11 O13        -2.0660   -0.1020    1.1420 o         1 CFF     -0.633500
     12 N7         -0.3940    0.1200    3.7230 na        1 CFF     -0.148900
     13 C8          0.7960    0.2010    4.4460 cd        1 CFF      0.443400
     14 C14        -1.7220    0.1220    4.2450 c3        1 CFF      0.009600
     15 H101       -0.4480    0.6440   -1.9360 h1        1 CFF      0.063367
     16 H102       -1.8370   -0.2590   -1.1420 h1        1 CFF      0.063367
     17 H103       -0.3930   -1.1750   -1.8150 h1        1 CFF      0.063367
     18 H121        3.9040   -0.0260    0.0710 h1        1 CFF      0.063367
     19 H122        3.9450   -0.8210    1.7250 h1        1 CFF      0.063367
     20 H123        3.8970    1.0020    1.5920 h1        1 CFF      0.063367
     21 H81         0.8170    0.2780    5.5400 h5        1 CFF      0.071100
     22 H141       -2.4580    0.0450    3.3980 h1        1 CFF      0.071700
     23 H142       -1.9050    1.0750    4.8130 h1        1 CFF      0.071700
     24 H143       -1.8580   -0.7510    4.9390 h1        1 CFF      0.071700
@<TRIPOS>BOND
     1    1    2 1   
     2    1    3 1   
     3    1    4 1   
     4    2    5 1   
     5    2    6 2   
     6    3   15 1   
     7    3   16 1   
     8    3   17 1   
     9    4    9 1   
    10    4   11 2   
    11    5    7 1   
    12    5    8 1   
    13    7   18 1   
    14    7   19 1   
    15    7   20 1   
    16    8    9 2   
    17    8   10 1   
    18    9   12 1   
    19   10   13 2   
    20   12   13 1   
    21   12   14 1   
    22   13   21 1   
    23   14   22 1   
    24   14   23 1   
    25   14   24 1   
@<TRIPOS>SUBSTRUCTURE
     1 CFF         1 TEMP              0 ****  ****    0 ROOT
