@<TRIPOS>MOLECULE
CFF
   24    25     1     0     0
SMALL
bcc


@<TRIPOS>ATOM
      1 N1          1.1150    0.0290   -1.3090 n         1 CFF     -0.483400
      2 C2         -0.2000   -0.0240   -1.8420 c         1 CFF      0.814500
      3 C10         2.1930    0.0620   -2.2710 c3        1 CFF      0.080300
      4 C6          1.3990    0.0510    0.0720 c         1 CFF      0.765100
      5 N3         -1.3250   -0.0590   -0.9830 n         1 CFF     -0.417300
      6 O11        -0.3650   -0.0400   -3.0810 o         1 CFF     -0.637500
      7 C12        -2.6610   -0.1130   -1.5150 c3        1 CFF      0.090300
      8 C4         -1.1090   -0.0400    0.3870 cc        1 CFF      0.485200
      9 C5          0.2200    0.0140    0.9180 cd        1 CFF     -0.350200
     10 N9         -2.0430   -0.0660    1.4340 nc        1 CFF     -0.685000
     11 O13         2.5710    0.0980    0.4890 o         1 CFF     -0.633500
     12 N7          0.0850    0.0200    2.3110 na        1 CFF     -0.148900
     13 C8         -1.2850   -0.0290    2.5640 cd        1 CFF      0.443400
     14 C14         1.1390    0.0670    3.2720 c3        1 CFF      0.009600
     15 H101        2.0810    0.9650   -2.9290 h1        1 CFF      0.063367
     16 H102        3.1760    0.1030   -1.7310 h1        1 CFF      0.063367
     17 H103        2.1500   -0.8570   -2.9140 h1        1 CFF      0.063367
     18 H121       -2.6210   -0.1210   -2.6370 h1        1 CFF      0.063367
     19 H122       -3.1720   -1.0440   -1.1500 h1        1 CFF      0.063367
     20 H123       -3.2400    0.7830   -1.1650 h1        1 CFF      0.063367
     21 H81        -1.6970   -0.0360    3.5810 h5        1 CFF      0.071100
     22 H141        1.0960   -0.8450    3.9270 h1        1 CFF      0.071700
     23 H142        2.1300    0.1000    2.7410 h1        1 CFF      0.071700
     24 H143        1.0280    0.9840    3.9120 h1        1 CFF      0.071700
@<TRIPOS>BOND
     1    1    2 1   
     2    1    3 1   
     3    1    4 1   
     4    2    5 1   
     5    2    6 2   
     6    3   15 1   
     7    3   16 1   
     8    3   17 1   
     9    4    9 1   
    10    4   11 2   
    11    5    7 1   
    12    5    8 1   
    13    7   18 1   
    14    7   19 1   
    15    7   20 1   
    16    8    9 2   
    17    8   10 1   
    18    9   12 1   
    19   10   13 2   
    20   12   13 1   
    21   12   14 1   
    22   13   21 1   
    23   14   22 1   
    24   14   23 1   
    25   14   24 1   
@<TRIPOS>SUBSTRUCTURE
     1 CFF         1 TEMP              0 ****  ****    0 ROOT
