@<TRIPOS>MOLECULE
CFH
   12    11     1     0     0
SMALL
bcc


@<TRIPOS>ATOM
      1 F7         -0.0210   -0.2150   -0.0160 f         1 CFH     -0.218800
      2 C1          1.3310   -0.0310    0.0980 c3        1 CFH      0.626900
      3 F5          1.5820    0.0560    1.4370 f         1 CFH     -0.218800
      4 F6          1.8890   -1.2130   -0.3110 f         1 CFH     -0.218800
      5 C2          1.8300    1.1970   -0.7460 c3        1 CFH      0.064100
      6 O4          1.2780    2.3300   -0.1310 oh        1 CFH     -0.549800
      7 C3          3.4000    1.3100   -0.7800 c3        1 CFH      0.626900
      8 F10         3.9790    0.4880   -1.7080 f         1 CFH     -0.218800
      9 F8          3.7960    2.5790   -1.1260 f         1 CFH     -0.218800
     10 F9          4.0340    1.0410    0.3990 f         1 CFH     -0.218800
     11 H2          1.4720    1.0680   -1.8040 h1        1 CFH      0.103700
     12 HO4         1.5040    3.0980   -0.6790 ho        1 CFH      0.439000
@<TRIPOS>BOND
     1    1    2 1   
     2    2    3 1   
     3    2    4 1   
     4    2    5 1   
     5    5    6 1   
     6    5    7 1   
     7    5   11 1   
     8    6   12 1   
     9    7    8 1   
    10    7    9 1   
    11    7   10 1   
@<TRIPOS>SUBSTRUCTURE
     1 CFH         1 TEMP              0 ****  ****    0 ROOT
