@<TRIPOS>MOLECULE
CFH
   12    11     1     0     0
SMALL
bcc


@<TRIPOS>ATOM
      1 F7         -2.4200    0.3160   -0.7550 f         1 CFH     -0.219633
      2 C1         -1.3050   -0.1130   -0.0860 c3        1 CFH      0.602900
      3 F5         -1.5730    0.1070    1.2400 f         1 CFH     -0.219633
      4 F6         -1.2910   -1.4710   -0.2440 f         1 CFH     -0.219633
      5 C2         -0.0000    0.6170   -0.5760 c3        1 CFH      0.069100
      6 O4         -0.0000    1.9430   -0.1430 oh        1 CFH     -0.539800
      7 C3          1.3050   -0.1130   -0.0860 c3        1 CFH      0.602900
      8 F10         1.2910   -1.4710   -0.2440 f         1 CFH     -0.219633
      9 F8          2.4200    0.3160   -0.7560 f         1 CFH     -0.219633
     10 F9          1.5730    0.1070    1.2400 f         1 CFH     -0.219633
     11 H2         -0.0000    0.6510   -1.7010 h1        1 CFH      0.147700
     12 HO4        -0.0000    1.9460    0.8290 ho        1 CFH      0.436000
@<TRIPOS>BOND
     1    1    2 1   
     2    2    3 1   
     3    2    4 1   
     4    2    5 1   
     5    5    6 1   
     6    5    7 1   
     7    5   11 1   
     8    6   12 1   
     9    7    8 1   
    10    7    9 1   
    11    7   10 1   
@<TRIPOS>SUBSTRUCTURE
     1 CFH         1 TEMP              0 ****  ****    0 ROOT
