@<TRIPOS>MOLECULE
CFH
   12    11     1     0     0
SMALL
bcc


@<TRIPOS>ATOM
      1 F7         -0.4120   -0.9530    1.6440 f         1 CFH     -0.218800
      2 C1         -0.7610   -1.0100    0.3520 c3        1 CFH      0.626900
      3 F5         -0.2650   -2.1270   -0.1950 f         1 CFH     -0.218800
      4 F6         -2.0960   -1.0180    0.2510 f         1 CFH     -0.218800
      5 C2         -0.2060    0.1960   -0.3730 c3        1 CFH      0.064100
      6 O4         -0.9590    1.3360   -0.0320 oh        1 CFH     -0.549800
      7 C3          1.2370    0.4060    0.0270 c3        1 CFH      0.626900
      8 F10         1.8940   -0.7590   -0.0420 f         1 CFH     -0.218800
      9 F8          1.8070    1.2900   -0.8020 f         1 CFH     -0.218800
     10 F9          1.2890    0.8730    1.2810 f         1 CFH     -0.218800
     11 H2         -0.2580    0.0480   -1.3380 h1        1 CFH      0.103700
     12 HO4        -1.2700    1.7190   -0.7720 ho        1 CFH      0.439000
@<TRIPOS>BOND
     1    1    2 1   
     2    2    3 1   
     3    2    4 1   
     4    2    5 1   
     5    5    6 1   
     6    5    7 1   
     7    5   11 1   
     8    6   12 1   
     9    7    8 1   
    10    7    9 1   
    11    7   10 1   
@<TRIPOS>SUBSTRUCTURE
     1 CFH         1 TEMP              0 ****  ****    0 ROOT
