@<TRIPOS>MOLECULE
CFI
   17    17     1     0     0
SMALL
bcc


@<TRIPOS>ATOM
      1 O01         0.4040    1.2820    0.4010 o         1 CFI      0.086300
      2 N02         1.0640    0.4670    0.0060 n2        1 CFI      0.309700
      3 N03         1.7560   -0.4700    1.0410 n4        1 CFI     -0.317100
      4 O04         1.1460   -0.5140    2.2480 oh        1 CFI     -0.363300
      5 C05         3.2200   -0.2210    1.0980 ca        1 CFI     -0.074400
      6 C06         3.9540   -0.3510   -0.0960 ca        1 CFI     -0.099000
      7 C07         5.3290   -0.1250   -0.0710 ca        1 CFI     -0.099000
      8 C08         5.9690    0.2180    1.1210 ca        1 CFI     -0.064000
      9 C09         5.2340    0.3300    2.3020 ca        1 CFI     -0.099000
     10 C10         3.8570    0.1100    2.3040 ca        1 CFI     -0.099000
     11 H1          1.3450    0.3110    2.7440 ho        1 CFI      0.469000
     12 H2          3.4730   -0.6340   -1.0460 ha        1 CFI      0.159000
     13 H3          5.9100   -0.2240   -1.0040 ha        1 CFI      0.176000
     14 H4          7.0590    0.3950    1.1310 ha        1 CFI      0.176000
     15 H5          5.7410    0.5880    3.2480 ha        1 CFI      0.176000
     16 H6          3.3130    0.1780    3.2600 ha        1 CFI      0.159000
     17 H031        1.6250   -1.4340    0.6480 hn        1 CFI      0.501800
@<TRIPOS>BOND
     1    1    2 2   
     2    2    3 1   
     3    3    4 1   
     4    3    5 1   
     5    3   17 1   
     6    4   11 1   
     7    5    6 ar  
     8    5   10 ar  
     9    6    7 ar  
    10    6   12 1   
    11    7    8 ar  
    12    7   13 1   
    13    8    9 ar  
    14    8   14 1   
    15    9   10 ar  
    16    9   15 1   
    17   10   16 1   
@<TRIPOS>SUBSTRUCTURE
     1 CFI         1 TEMP              0 ****  ****    0 ROOT
