@<TRIPOS>MOLECULE
CFI
   16    16     1     0     0
SMALL
bcc


@<TRIPOS>ATOM
      1 O01        -0.0360    0.6910    0.2090 o         1 CFI     -0.169700
      2 N02         1.0900    0.4740    0.0460 n2        1 CFI      0.227700
      3 N03         1.7730   -0.2090    1.0110 nh        1 CFI     -0.307300
      4 O04         1.2050   -0.3240    2.2200 oh        1 CFI     -0.382300
      5 C05         3.2150   -0.0750    1.0650 ca        1 CFI      0.119600
      6 C06         3.9640   -0.2050   -0.1200 ca        1 CFI     -0.128500
      7 C07         5.3540   -0.1290   -0.0650 ca        1 CFI     -0.119000
      8 C08         6.0080    0.0680    1.1500 ca        1 CFI     -0.133000
      9 C09         5.2660    0.1950    2.3230 ca        1 CFI     -0.119000
     10 C10         3.8760    0.1310    2.2910 ca        1 CFI     -0.128500
     11 H1          0.8710   -1.2420    2.2690 ho        1 CFI      0.426000
     12 H2          3.4680   -0.3650   -1.0900 ha        1 CFI      0.151500
     13 H3          5.9360   -0.2290   -0.9940 ha        1 CFI      0.138000
     14 H4          7.1060    0.1240    1.1820 ha        1 CFI      0.137000
     15 H5          5.7780    0.3530    3.2840 ha        1 CFI      0.138000
     16 H6          3.2970    0.2370    3.2230 ha        1 CFI      0.151500
@<TRIPOS>BOND
     1    1    2 2   
     2    2    3 1   
     3    3    4 1   
     4    3    5 1   
     5    4   11 1   
     6    5    6 ar  
     7    5   10 ar  
     8    6    7 ar  
     9    6   12 1   
    10    7    8 ar  
    11    7   13 1   
    12    8    9 ar  
    13    8   14 1   
    14    9   10 ar  
    15    9   15 1   
    16   10   16 1   
@<TRIPOS>SUBSTRUCTURE
     1 CFI         1 TEMP              0 ****  ****    0 ROOT
