@<TRIPOS>MOLECULE
CFI
   16    13     1     0     0
SMALL
bcc


@<TRIPOS>ATOM
      1 O01        -3.3750   -1.5020    1.2140 o         1 CFI     -0.224000
      2 N02        -2.3840   -0.7890    1.1440 n1        1 CFI      0.282000
      3 N03        -1.6330   -0.7620   -0.0150 n2        1 CFI     -0.174000
      4 O04        -2.1150   -1.3430   -1.1560 oh        1 CFI     -0.233000
      5 C05        -0.3480   -0.1610   -0.0140 c2        1 CFI      0.038000
      6 C06         0.6330   -0.6220   -0.8790 c1        1 CFI     -0.133000
      7 C07         1.9030   -0.0680   -0.8460 c1        1 CFI     -0.125500
      8 C08         2.1930    0.9470    0.0530 c1        1 CFI     -0.125500
      9 C09         1.2120    1.4080    0.9180 c1        1 CFI     -0.120000
     10 C10        -0.0580    0.8530    0.8850 c2        1 CFI     -0.124000
     11 H1         -2.8060   -0.8720   -1.4590 ho        1 CFI      0.225000
     12 H2          0.4290   -1.3360   -1.5120 ha        1 CFI      0.154000
     13 H3          2.5930   -0.3920   -1.4550 ha        1 CFI      0.137500
     14 H4          3.0870    1.3380    0.0770 ha        1 CFI      0.137500
     15 H5          1.4160    2.1220    1.5510 ha        1 CFI      0.138000
     16 H6         -0.7480    1.1780    1.4940 ha        1 CFI      0.149000
@<TRIPOS>BOND
     1    1    2 1   
     2    3    4 1   
     3    3    5 1   
     4    4   11 1   
     5    5    6 1   
     6    5   10 1   
     7    6   12 1   
     8    7    8 1   
     9    7   13 1   
    10    8   14 1   
    11    9   10 1   
    12    9   15 1   
    13   10   16 1   
@<TRIPOS>SUBSTRUCTURE
     1 CFI         1 TEMP              0 ****  ****    0 ROOT
