@<TRIPOS>MOLECULE
CFI
   16    16     1     0     0
SMALL
bcc


@<TRIPOS>ATOM
      1 O01        -3.1010   -0.2950   -0.7360 o         1 CFI     -0.169700
      2 N02        -2.0130   -0.6190   -0.5010 n2        1 CFI      0.227700
      3 N03        -1.1970    0.2530    0.1590 nh        1 CFI     -0.307300
      4 O04        -1.5760    1.5370    0.2300 oh        1 CFI     -0.382300
      5 C05         0.2370    0.0850    0.0400 ca        1 CFI      0.119600
      6 C06         0.7980   -1.1950    0.2170 ca        1 CFI     -0.128500
      7 C07         2.1800   -1.3530    0.1550 ca        1 CFI     -0.119000
      8 C08         3.0120   -0.2580   -0.0740 ca        1 CFI     -0.133000
      9 C09         2.4570    1.0090   -0.2470 ca        1 CFI     -0.119000
     10 C10         1.0770    1.1900   -0.1970 ca        1 CFI     -0.128500
     11 H1         -1.9050    1.6660    1.1420 ho        1 CFI      0.426000
     12 H2          0.1600   -2.0730    0.4020 ha        1 CFI      0.151500
     13 H3          2.6150   -2.3550    0.2910 ha        1 CFI      0.138000
     14 H4          4.1030   -0.3940   -0.1180 ha        1 CFI      0.137000
     15 H5          3.1090    1.8760   -0.4300 ha        1 CFI      0.138000
     16 H6          0.6470    2.1930   -0.3410 ha        1 CFI      0.151500
@<TRIPOS>BOND
     1    1    2 2   
     2    2    3 1   
     3    3    4 1   
     4    3    5 1   
     5    4   11 1   
     6    5    6 ar  
     7    5   10 ar  
     8    6    7 ar  
     9    6   12 1   
    10    7    8 ar  
    11    7   13 1   
    12    8    9 ar  
    13    8   14 1   
    14    9   10 ar  
    15    9   15 1   
    16   10   16 1   
@<TRIPOS>SUBSTRUCTURE
     1 CFI         1 TEMP              0 ****  ****    0 ROOT
