@<TRIPOS>MOLECULE
CFI
   16    16     1     0     0
SMALL
bcc


@<TRIPOS>ATOM
      1 O01        -0.0340    0.7020    0.2080 o         1 CFI     -0.169700
      2 N02         1.0930    0.4850    0.0450 n2        1 CFI      0.227700
      3 N03         1.7730   -0.2060    1.0060 nh        1 CFI     -0.307300
      4 O04         1.2030   -0.3290    2.2130 oh        1 CFI     -0.382300
      5 C05         3.2150   -0.0740    1.0640 ca        1 CFI      0.119600
      6 C06         3.9660   -0.1970   -0.1210 ca        1 CFI     -0.128500
      7 C07         5.3560   -0.1230   -0.0630 ca        1 CFI     -0.119000
      8 C08         6.0080    0.0650    1.1550 ca        1 CFI     -0.133000
      9 C09         5.2640    0.1850    2.3280 ca        1 CFI     -0.119000
     10 C10         3.8730    0.1220    2.2930 ca        1 CFI     -0.128500
     11 H1          0.8680   -1.2480    2.2540 ho        1 CFI      0.426000
     12 H2          3.4720   -0.3490   -1.0930 ha        1 CFI      0.151500
     13 H3          5.9400   -0.2160   -0.9910 ha        1 CFI      0.138000
     14 H4          7.1060    0.1200    1.1900 ha        1 CFI      0.137000
     15 H5          5.7740    0.3350    3.2910 ha        1 CFI      0.138000
     16 H6          3.2930    0.2230    3.2240 ha        1 CFI      0.151500
@<TRIPOS>BOND
     1    1    2 2   
     2    2    3 1   
     3    3    4 1   
     4    3    5 1   
     5    4   11 1   
     6    5    6 ar  
     7    5   10 ar  
     8    6    7 ar  
     9    6   12 1   
    10    7    8 ar  
    11    7   13 1   
    12    8    9 ar  
    13    8   14 1   
    14    9   10 ar  
    15    9   15 1   
    16   10   16 1   
@<TRIPOS>SUBSTRUCTURE
     1 CFI         1 TEMP              0 ****  ****    0 ROOT
