@<TRIPOS>MOLECULE
CFK
   32    33     1     0     0
SMALL
bcc


@<TRIPOS>ATOM
      1 C1          0.3310   -0.0200   -0.3750 ca        1 CFK      0.049000
      2 C2          1.6880    0.2570   -0.1260 ca        1 CFK     -0.128500
      3 C3          2.1760    0.2260    1.1650 ca        1 CFK     -0.036000
      4 C4          1.3200   -0.0860    2.2660 ca        1 CFK     -0.125000
      5 C5         -0.0500   -0.3610    1.9900 ca        1 CFK     -0.036000
      6 C6         -0.5270   -0.3270    0.6910 ca        1 CFK     -0.128500
      7 C7          1.8450   -0.1130    3.5700 cc        1 CFK      0.102900
      8 C8          1.1030   -0.4280    4.7630 cd        1 CFK     -0.082000
      9 C9          1.9110   -0.3760    5.8910 cd        1 CFK     -0.013400
     10 C10         3.2770   -0.0050    5.6010 cc        1 CFK     -0.381700
     11 S11         3.4320    0.2150    3.9410 ss        1 CFK      0.284200
     12 C12         4.2460    0.1400    6.6140 c         1 CFK      0.627700
     13 O13         4.0180    0.1060    7.8430 o         1 CFK     -0.645100
     14 N14         5.6850    0.3470    6.2560 n4        1 CFK     -0.727400
     15 N15         1.4540   -0.7530    7.2250 n4        1 CFK     -0.482200
     16 C16         0.9310    0.4240    8.0080 c         1 CFK      0.492100
     17 O17         0.0080    1.1010    7.5960 o         1 CFK     -0.250100
     18 N18         1.5680    0.7390    9.3200 n4        1 CFK     -0.726400
     19 H1         -0.0570    0.0050   -1.4130 ha        1 CFK      0.203000
     20 H2          2.3590    0.4980   -0.9720 ha        1 CFK      0.197500
     21 H3          3.2430    0.4420    1.3510 ha        1 CFK      0.144500
     22 H5         -0.7420   -0.6040    2.8120 ha        1 CFK      0.144500
     23 H6         -1.5930   -0.5430    0.4870 ha        1 CFK      0.197500
     24 H8          0.0330   -0.6840    4.7400 ha        1 CFK      0.218000
     25 HN14        5.8110    1.2220    5.7290 hn        1 CFK      0.496133
     26 HN1A        6.2490    0.4030    7.1240 hn        1 CFK      0.496133
     27 HN15        2.2460   -1.2170    7.7140 hn        1 CFK      0.517300
     28 HN18        1.1720    1.6430    9.6630 hn        1 CFK      0.526467
     29 HN1B        2.5990    0.8380    9.2340 hn        1 CFK      0.526467
     30 H143        6.0350   -0.4400    5.6910 hn        1 CFK      0.496133
     31 H152        0.6670   -1.4300    7.1240 hn        1 CFK      0.517300
     32 H183        1.3550    0.0100   10.0250 hn        1 CFK      0.526467
@<TRIPOS>BOND
     1    1    2 ar  
     2    1    6 ar  
     3    1   19 1   
     4    2    3 ar  
     5    2   20 1   
     6    3    4 ar  
     7    3   21 1   
     8    4    5 ar  
     9    4    7 1   
    10    5    6 ar  
    11    5   22 1   
    12    6   23 1   
    13    7    8 2   
    14    7   11 1   
    15    8    9 1   
    16    8   24 1   
    17    9   10 2   
    18    9   15 1   
    19   10   11 1   
    20   10   12 1   
    21   12   13 2   
    22   12   14 1   
    23   14   25 1   
    24   14   26 1   
    25   14   30 1   
    26   15   16 1   
    27   15   27 1   
    28   15   31 1   
    29   16   17 2   
    30   16   18 1   
    31   18   28 1   
    32   18   29 1   
    33   18   32 1   
@<TRIPOS>SUBSTRUCTURE
     1 CFK         1 TEMP              0 ****  ****    0 ROOT
