@<TRIPOS>MOLECULE
CFK
   31    32     1     0     0
SMALL
bcc


@<TRIPOS>ATOM
      1 C1          0.1870   -0.0020   -0.1590 ca        1 CFK     -0.040000
      2 C2          1.5770    0.1140   -0.0380 ca        1 CFK     -0.123500
      3 C3          2.1690    0.1170    1.2170 ca        1 CFK     -0.070500
      4 C4          1.3770    0.0060    2.3830 ca        1 CFK     -0.116000
      5 C5         -0.0200   -0.1100    2.2490 ca        1 CFK     -0.070500
      6 C6         -0.6050   -0.1140    0.9850 ca        1 CFK     -0.123500
      7 C7          2.0060    0.0080    3.6680 cc        1 CFK      0.135900
      8 C8          1.3520    0.0810    4.9120 cd        1 CFK     -0.214000
      9 C9          2.2590    0.0630    5.9930 cd        1 CFK      0.150600
     10 C10         3.6190   -0.0250    5.5390 cc        1 CFK     -0.366700
     11 S11         3.6570   -0.0810    3.8580 ss        1 CFK      0.149200
     12 C12         4.7320   -0.0590    6.4150 c         1 CFK      0.620700
     13 O13         4.7650   -0.0210    7.6470 o         1 CFK     -0.506100
     14 N14         6.1080   -0.1570    5.7820 nz        1 CFK     -0.750400
     15 N15         1.9210    0.1260    7.3520 ns        1 CFK     -0.416100
     16 C16         0.6150    0.1980    7.7860 c         1 CFK      0.654100
     17 O17        -0.4270    0.2150    7.1310 o         1 CFK     -0.436100
     18 N18         0.3850    0.2670    9.2980 nz        1 CFK     -0.746400
     19 H1         -0.2800   -0.0040   -1.1590 ha        1 CFK      0.173000
     20 H2          2.2010    0.2040   -0.9430 ha        1 CFK      0.169500
     21 H3          3.2630    0.2160    1.3040 ha        1 CFK      0.136500
     22 H5         -0.6580   -0.2060    3.1410 ha        1 CFK      0.136500
     23 H6         -1.7000   -0.2060    0.8890 ha        1 CFK      0.169500
     24 H8          0.2600    0.1530    5.0130 ha        1 CFK      0.214000
     25 HN14        6.8220   -0.1700    6.5270 hn        1 CFK      0.477133
     26 HN1A        6.2790    0.6490    5.1720 hn        1 CFK      0.477133
     27 HN15        2.6810    0.1150    8.0090 hn        1 CFK      0.377500
     28 HN18        0.7490   -0.5680    9.7700 hn        1 CFK      0.486800
     29 HN1B        0.8170    1.1040    9.7030 hn        1 CFK      0.486800
     30 H143        6.1880   -1.0190    5.2320 hn        1 CFK      0.477133
     31 H183       -0.6380    0.3150    9.4460 hn        1 CFK      0.486800
@<TRIPOS>BOND
     1    1    2 ar  
     2    1    6 ar  
     3    1   19 1   
     4    2    3 ar  
     5    2   20 1   
     6    3    4 ar  
     7    3   21 1   
     8    4    5 ar  
     9    4    7 1   
    10    5    6 ar  
    11    5   22 1   
    12    6   23 1   
    13    7    8 2   
    14    7   11 1   
    15    8    9 1   
    16    8   24 1   
    17    9   10 2   
    18    9   15 1   
    19   10   11 1   
    20   10   12 1   
    21   12   13 2   
    22   12   14 1   
    23   14   25 1   
    24   14   26 1   
    25   14   30 1   
    26   15   16 1   
    27   15   27 1   
    28   16   17 2   
    29   16   18 1   
    30   18   28 1   
    31   18   29 1   
    32   18   31 1   
@<TRIPOS>SUBSTRUCTURE
     1 CFK         1 TEMP              0 ****  ****    0 ROOT
