@<TRIPOS>MOLECULE
CFK
   29    30     1     0     0
SMALL
bcc


@<TRIPOS>ATOM
      1 C1         -5.1690    0.2300    0.0020 ca        1 CFK     -0.121000
      2 C2         -4.5770   -0.9630   -0.4150 ca        1 CFK     -0.128500
      3 C3         -3.1920   -1.0970   -0.4090 ca        1 CFK     -0.113000
      4 C4         -2.3780   -0.0340    0.0170 ca        1 CFK     -0.022000
      5 C5         -2.9810    1.1630    0.4360 ca        1 CFK     -0.113000
      6 C6         -4.3690    1.2900    0.4260 ca        1 CFK     -0.128500
      7 C7         -0.9400   -0.1740    0.0260 cc        1 CFK     -0.005100
      8 C8         -0.0270    0.8570   -0.0510 cd        1 CFK     -0.177000
      9 C9          1.3360    0.3780   -0.0110 cd        1 CFK      0.148600
     10 C10         1.3670   -1.0270    0.0920 cc        1 CFK     -0.277700
     11 S11        -0.1850   -1.6700    0.1410 ss        1 CFK      0.016200
     12 C12         2.5800   -1.8420    0.1510 c         1 CFK      0.724700
     13 O13         3.7380   -1.3590    0.0940 o         1 CFK     -0.655100
     14 N14         2.4440   -3.2060    0.2710 n         1 CFK     -0.674000
     15 N15         2.4700    1.1650   -0.0560 n         1 CFK     -0.455100
     16 C16         2.4740    2.5680   -0.1890 c         1 CFK      0.776100
     17 O17         1.4240    3.2540   -0.1940 o         1 CFK     -0.637100
     18 N18         3.7030    3.2060   -0.3450 n         1 CFK     -0.665000
     19 H1         -6.2640    0.3330   -0.0050 ha        1 CFK      0.134000
     20 H2         -5.2060   -1.8000   -0.7530 ha        1 CFK      0.135000
     21 H3         -2.7290   -2.0370   -0.7460 ha        1 CFK      0.138500
     22 H5         -2.3530    2.0010    0.7740 ha        1 CFK      0.138500
     23 H6         -4.8320    2.2320    0.7550 ha        1 CFK      0.135000
     24 H8         -0.2800    1.9200   -0.1430 ha        1 CFK      0.201000
     25 HN14        1.5590   -3.6370    0.3340 hn        1 CFK      0.313500
     26 HN1A        3.2570   -3.7670    0.3170 hn        1 CFK      0.313500
     27 HN15        3.3420    0.6670   -0.0760 hn        1 CFK      0.359500
     28 HN18        4.5550    2.7430   -0.1570 hn        1 CFK      0.317500
     29 HN1B        3.6850    4.1960   -0.2970 hn        1 CFK      0.317500
@<TRIPOS>BOND
     1    1    2 ar  
     2    1    6 ar  
     3    1   19 1   
     4    2    3 ar  
     5    2   20 1   
     6    3    4 ar  
     7    3   21 1   
     8    4    5 ar  
     9    4    7 1   
    10    5    6 ar  
    11    5   22 1   
    12    6   23 1   
    13    7    8 2   
    14    7   11 1   
    15    8    9 1   
    16    8   24 1   
    17    9   10 2   
    18    9   15 1   
    19   10   11 1   
    20   10   12 1   
    21   12   13 2   
    22   12   14 1   
    23   14   25 1   
    24   14   26 1   
    25   15   16 1   
    26   15   27 1   
    27   16   17 2   
    28   16   18 1   
    29   18   28 1   
    30   18   29 1   
@<TRIPOS>SUBSTRUCTURE
     1 CFK         1 TEMP              0 ****  ****    0 ROOT
