@<TRIPOS>MOLECULE
CFL
   32    32     1     0     0
SMALL
bcc


@<TRIPOS>ATOM
      1 O3P        -3.4100    3.9200   -0.4950 o         1 CFL     -0.923167
      2 P          -2.1830    3.2480    0.0720 p5        1 CFL      1.560500
      3 O1P        -2.4250    2.8970    1.5220 o         1 CFL     -0.923167
      4 O2P        -1.0030    4.1860   -0.0290 o         1 CFL     -0.923167
      5 O5'        -1.8800    1.9300   -0.7460 os        1 CFL     -0.739000
      6 C5'        -0.6670    1.2570   -0.5070 c3        1 CFL      0.058000
      7 C4'        -0.0190    0.8990   -1.8300 c3        1 CFL     -0.049000
      8 O4'         1.4450    0.2920   -1.5800 os        1 CFL     -0.292000
      9 C3'        -0.7010   -0.0260   -2.4220 c3        1 CFL     -0.003000
     10 O3'        -0.5910    0.1180   -3.9010 oh        1 CFL     -0.386000
     11 C2'        -0.0540   -1.3560   -1.9630 c3        1 CFL      0.015000
     12 C1'         1.2700   -0.9560   -1.2760 c3        1 CFL      0.119000
     13 N1          1.1590   -1.1120    0.1550 n         1 CFL     -0.257000
     14 C2          0.5430   -2.3140    0.7140 c2        1 CFL      0.346000
     15 O2          0.2410   -3.2370   -0.0170 o         1 CFL     -0.410000
     16 N3          0.3140   -2.4170    2.1530 n2        1 CFL     -0.331000
     17 C4          0.8470   -1.4350    3.0290 c1        1 CFL      0.186000
     18 N4          0.7940   -1.6330    4.4340 n2        1 CFL     -0.335000
     19 C5          1.5520   -0.2680    2.4770 c2        1 CFL     -0.370000
     20 C6          1.6870   -0.1180    1.0200 c2        1 CFL      0.099000
     21 F          -0.8210   -1.9600   -1.1310 f         1 CFL     -0.165000
     22 H5'1       -0.8420    0.4390    0.0030 h1        1 CFL      0.056000
     23 H5'2       -0.0650    1.8390    0.0040 h1        1 CFL      0.056000
     24 H4'         0.0390    1.6900   -2.4010 h1        1 CFL      0.078000
     25 H3'        -1.6370    0.0110   -2.1440 h1        1 CFL      0.200000
     26 HO3'       -1.3570   -0.1300   -4.2810 ho        1 CFL      0.290000
     27 H2'         0.1250   -1.9280   -2.7340 h1        1 CFL      0.092000
     28 H1'         2.0080   -1.4960   -1.6210 h2        1 CFL      0.133000
     29 HN41        0.3880   -2.3790    4.7760 hn        1 CFL      0.188500
     30 HN42        1.1950   -1.0330    4.9960 hn        1 CFL      0.188500
     31 H5          1.8630    0.4410    3.0720 ha        1 CFL      0.168000
     32 H6          2.1880    0.6330    0.6510 h4        1 CFL      0.274000
@<TRIPOS>BOND
     1    1    2 1   
     2    2    3 1   
     3    2    4 1   
     4    2    5 1   
     5    5    6 1   
     6    6    7 1   
     7    6   22 1   
     8    6   23 1   
     9    7    8 1   
    10    7    9 1   
    11    7   24 1   
    12    8   12 1   
    13    9   10 1   
    14    9   11 1   
    15    9   25 1   
    16   10   26 1   
    17   11   12 1   
    18   11   21 1   
    19   11   27 1   
    20   12   13 1   
    21   12   28 1   
    22   13   14 1   
    23   13   20 1   
    24   14   15 1   
    25   14   16 1   
    26   16   17 1   
    27   17   19 1   
    28   18   29 1   
    29   18   30 1   
    30   19   20 1   
    31   19   31 1   
    32   20   32 1   
@<TRIPOS>SUBSTRUCTURE
     1 CFL         1 TEMP              0 ****  ****    0 ROOT
