@<TRIPOS>MOLECULE
CFL
   32    33     1     0     0
SMALL
bcc


@<TRIPOS>ATOM
      1 O3P        -3.1500   -0.2400    0.3010 o         1 CFL     -0.928167
      2 P          -3.3870    0.8180   -0.7580 p5        1 CFL      1.331900
      3 O1P        -4.7320    0.8450   -1.4120 o         1 CFL     -0.928167
      4 O2P        -2.7020    2.1240   -0.4730 o         1 CFL     -0.928167
      5 O5'        -2.3370    0.1460   -1.9860 os        1 CFL     -0.552200
      6 C5'        -1.0220    0.1390   -1.6200 c3        1 CFL      0.227400
      7 C4'        -0.5610   -1.2940   -1.2580 c3        1 CFL      0.049100
      8 O4'         0.8380   -1.4610   -1.6160 os        1 CFL     -0.434600
      9 C3'        -0.7170   -1.6510    0.2310 c3        1 CFL      0.141100
     10 O3'        -1.7510   -2.5810    0.4290 oh        1 CFL     -0.666800
     11 C2'         0.6250   -2.3430    0.6060 c3        1 CFL      0.112600
     12 C1'         1.6230   -1.8580   -0.5040 c3        1 CFL      0.263500
     13 N1          2.5220   -0.7670   -0.0990 n         1 CFL     -0.363000
     14 C2          3.9130   -1.0360    0.1530 c         1 CFL      0.831900
     15 O2          4.3350   -2.2070    0.0090 o         1 CFL     -0.664500
     16 N3          4.7720   -0.0040    0.5650 nc        1 CFL     -0.748100
     17 C4          4.2770    1.2430    0.6680 cd        1 CFL      0.718500
     18 N4          5.1350    2.3020    0.9980 nh        1 CFL     -0.897800
     19 C5          2.8880    1.5500    0.4000 cd        1 CFL     -0.458600
     20 C6          2.0610    0.5130    0.0210 cc        1 CFL      0.106600
     21 F           1.0330   -2.0810    1.8960 f         1 CFL     -0.241300
     22 H5'1       -0.8490    0.8320   -0.7460 h1        1 CFL     -0.001800
     23 H5'2       -0.3770    0.4730   -2.4870 h1        1 CFL     -0.001800
     24 H4'        -1.1190   -2.0330   -1.8950 h1        1 CFL      0.078700
     25 H3'        -0.8930   -0.7350    0.8600 h1        1 CFL      0.109700
     26 HO3'       -2.5840   -2.0490    0.4270 ho        1 CFL      0.508000
     27 H2'         0.5140   -3.4590    0.4920 h1        1 CFL      0.065700
     28 H1'         2.2820   -2.7050   -0.8570 h2        1 CFL      0.097700
     29 HN41        6.0080    2.0530    1.4070 hn        1 CFL      0.397800
     30 HN42        4.6760    3.0650    1.4400 hn        1 CFL      0.397800
     31 H5          2.4950    2.5680    0.4800 ha        1 CFL      0.159000
     32 H6          0.9800    0.6790   -0.2020 h4        1 CFL      0.221000
@<TRIPOS>BOND
     1    1    2 1   
     2    2    3 1   
     3    2    4 1   
     4    2    5 1   
     5    5    6 1   
     6    6    7 1   
     7    6   22 1   
     8    6   23 1   
     9    7    8 1   
    10    7    9 1   
    11    7   24 1   
    12    8   12 1   
    13    9   10 1   
    14    9   11 1   
    15    9   25 1   
    16   10   26 1   
    17   11   12 1   
    18   11   21 1   
    19   11   27 1   
    20   12   13 1   
    21   12   28 1   
    22   13   14 1   
    23   13   20 1   
    24   14   15 2   
    25   14   16 1   
    26   16   17 2   
    27   17   18 1   
    28   17   19 1   
    29   18   29 1   
    30   18   30 1   
    31   19   20 2   
    32   19   31 1   
    33   20   32 1   
@<TRIPOS>SUBSTRUCTURE
     1 CFL         1 TEMP              0 ****  ****    0 ROOT
