@<TRIPOS>MOLECULE
CFP
   13    14     1     0     0
SMALL
bcc


@<TRIPOS>ATOM
      1 N9         -2.2090    0.0000    1.4530 na        1 CFP     -0.376000
      2 C8         -1.3440   -0.0000    2.5710 cc        1 CFP      0.423700
      3 N7         -0.0410   -0.0000    2.2500 nd        1 CFP     -0.515100
      4 C5         -0.0100    0.0000    0.8490 ca        1 CFP     -0.173200
      5 C6          1.0270    0.0000   -0.1140 ca        1 CFP      0.605300
      6 CL6         2.6440   -0.0000    0.4040 cl        1 CFP     -0.091000
      7 N1          0.7550    0.0000   -1.4310 nb        1 CFP     -0.717000
      8 C2         -0.5840    0.0000   -1.8000 ca        1 CFP      0.872200
      9 N3         -1.6980    0.0010   -1.0000 nb        1 CFP     -0.703000
     10 C4         -1.3830    0.0000    0.3250 ca        1 CFP      0.448800
     11 F2         -0.8170    0.0010   -3.1360 f         1 CFP     -0.184200
     12 HN9        -3.1950    0.0000    1.4540 hn        1 CFP      0.326700
     13 H8         -1.7420   -0.0000    3.5950 h5        1 CFP      0.082800
@<TRIPOS>BOND
     1    1    2 1   
     2    1   10 1   
     3    1   12 1   
     4    2    3 2   
     5    2   13 1   
     6    3    4 1   
     7    4    5 ar  
     8    4   10 ar  
     9    5    6 1   
    10    5    7 ar  
    11    7    8 ar  
    12    8    9 ar  
    13    8   11 1   
    14    9   10 ar  
@<TRIPOS>SUBSTRUCTURE
     1 CFP         1 TEMP              0 ****  ****    0 ROOT
