@<TRIPOS>MOLECULE
CFP
   13     9     1     0     0
SMALL
bcc


@<TRIPOS>ATOM
      1 N9          0.0130   -0.0000   -1.8600 ne        1 CFP     -0.496400
      2 C8          1.3650   -0.0000   -1.8600 c1        1 CFP      0.408800
      3 N7          1.7840   -0.0000   -0.5740 ne        1 CFP     -0.360400
      4 C5          0.6840   -0.0000    0.2260 cg        1 CFP     -0.130000
      5 C6          0.5380   -0.0000    1.6050 ch        1 CFP      0.190800
      6 CL6         1.7430    0.0200    2.8650 cl        1 CFP      0.075000
      7 N1         -0.6900   -0.0000    2.1490 n1        1 CFP     -0.596600
      8 C2         -1.7940   -0.0000    1.3460 c1        1 CFP      0.533900
      9 N3         -1.6520   -0.0000   -0.0100 n1        1 CFP     -0.502800
     10 C4         -0.4070   -0.0000   -0.5660 cg        1 CFP      0.434800
     11 F2         -3.0000   -0.0170    1.9260 f         1 CFP     -0.046100
     12 HN9        -0.5230   -0.0000   -2.5980 DU        1 CFP      0.244500
     13 H8          1.9390   -0.0000   -2.6500 DU        1 CFP      0.244500
@<TRIPOS>BOND
     1    1    2 2   
     2    1   10 1   
     3    2    3 2   
     4    3    4 1   
     5    4    5 3   
     6    5    7 1   
     7    7    8 3   
     8    8   11 1   
     9    9   10 3   
@<TRIPOS>SUBSTRUCTURE
     1 CFP         1 TEMP              0 ****  ****    0 ROOT
