@<TRIPOS>MOLECULE
CFS
   35    35     1     0     0
SMALL
bcc


@<TRIPOS>ATOM
      1 N           0.2720    1.9070   -0.1300 n3        1 CFS     -0.900800
      2 CA          0.0650    0.4700   -0.1030 c3        1 CFS      0.162500
      3 CB          0.7820   -0.2570   -1.2480 c3        1 CFS     -0.062400
      4 CG          0.2590    0.1130   -2.6260 c3        1 CFS     -0.062700
      5 CD1         1.2580   -0.3240   -3.6910 c3        1 CFS     -0.073900
      6 CD2        -1.0970   -0.5260   -2.8940 c3        1 CFS     -0.073900
      7 CE1         0.7610   -0.0010   -5.0850 c3        1 CFS     -0.074900
      8 CE2        -1.5970   -0.2000   -4.2870 c3        1 CFS     -0.074900
      9 CZ         -0.5960   -0.6200   -5.3440 c3        1 CFS     -0.074400
     10 CH          0.4900   -0.2030    1.2280 c3        1 CFS      0.082100
     11 OH1         1.8850   -0.0260    1.3700 oh        1 CFS     -0.632800
     12 CM         -0.2530    0.3890    2.4750 c3        1 CFS      0.207600
     13 F1          0.2480    1.6330    2.8130 f         1 CFS     -0.264300
     14 F2         -1.5650    0.6960    2.1840 f         1 CFS     -0.264300
     15 C          -0.0930   -0.6560    3.6730 c         1 CFS      0.919600
     16 O           1.0820   -1.0710    3.8520 o         1 CFS     -0.792800
     17 OXT        -1.1220   -0.9850    4.2970 o         1 CFS     -0.792800
     18 HN1        -0.2560    2.3220    0.6170 hn        1 CFS      0.351300
     19 HN2         1.2430    2.1030    0.0340 hn        1 CFS      0.351300
     20 HA         -1.0490    0.2960   -0.2040 h1        1 CFS      0.060700
     21 HB1         1.8800   -0.0330   -1.1880 hc        1 CFS      0.045700
     22 HB2         0.6600   -1.3610   -1.0880 hc        1 CFS      0.045700
     23 HG          0.1420    1.2310   -2.6900 hc        1 CFS      0.068700
     24 HD11        2.2380    0.1920   -3.5150 hc        1 CFS      0.039200
     25 HD12        1.4370   -1.4270   -3.6010 hc        1 CFS      0.039200
     26 HD21       -1.0170   -1.6380   -2.7760 hc        1 CFS      0.039200
     27 HD22       -1.8390   -0.1580   -2.1380 hc        1 CFS      0.039200
     28 HE11        0.6920    1.1120   -5.2060 hc        1 CFS      0.031700
     29 HE12        1.4970   -0.3770   -5.8430 hc        1 CFS      0.031700
     30 HE21       -1.7830    0.9030   -4.3670 hc        1 CFS      0.031700
     31 HE22       -2.5730   -0.7210   -4.4660 hc        1 CFS      0.031700
     32 HZ1        -0.9650   -0.3120   -6.3570 hc        1 CFS      0.028700
     33 HZ2        -0.5020   -1.7380   -5.3460 hc        1 CFS      0.028700
     34 HCH         0.2440   -1.2990    1.1920 h1        1 CFS      0.052700
     35 HH1         2.1140   -0.3300    2.2670 ho        1 CFS      0.454000
@<TRIPOS>BOND
     1    1    2 1   
     2    1   18 1   
     3    1   19 1   
     4    2    3 1   
     5    2   10 1   
     6    2   20 1   
     7    3    4 1   
     8    3   21 1   
     9    3   22 1   
    10    4    5 1   
    11    4    6 1   
    12    4   23 1   
    13    5    7 1   
    14    5   24 1   
    15    5   25 1   
    16    6    8 1   
    17    6   26 1   
    18    6   27 1   
    19    7    9 1   
    20    7   28 1   
    21    7   29 1   
    22    8    9 1   
    23    8   30 1   
    24    8   31 1   
    25    9   32 1   
    26    9   33 1   
    27   10   11 1   
    28   10   12 1   
    29   10   34 1   
    30   11   35 1   
    31   12   13 1   
    32   12   14 1   
    33   12   15 1   
    34   15   16 1   
    35   15   17 1   
@<TRIPOS>SUBSTRUCTURE
     1 CFS         1 TEMP              0 ****  ****    0 ROOT
