@<TRIPOS>MOLECULE
CFS
   36    36     1     0     0
SMALL
bcc


@<TRIPOS>ATOM
      1 N          -0.0170    0.1910   -0.2480 n4        1 CFS     -0.840600
      2 CA          1.4620    0.0160   -0.0430 c3        1 CFS      0.115500
      3 CB          1.8540    0.0540    1.4290 c3        1 CFS     -0.108400
      4 CG          1.4160    1.2980    2.1830 c3        1 CFS     -0.075700
      5 CD1         1.9500    1.2220    3.6110 c3        1 CFS     -0.076400
      6 CD2         1.8930    2.5780    1.5130 c3        1 CFS     -0.076400
      7 CE1         1.5500    2.4420    4.4130 c3        1 CFS     -0.077400
      8 CE2         1.5020    3.8020    2.3170 c3        1 CFS     -0.077400
      9 CZ          2.0130    3.7170    3.7400 c3        1 CFS     -0.079400
     10 CH          1.8900   -1.3290   -0.6810 c3        1 CFS      0.095100
     11 OH1         1.1900   -2.3460    0.0020 oh        1 CFS     -0.653800
     12 CM          1.5600   -1.3890   -2.2140 c3        1 CFS      0.167600
     13 F1          0.2030   -1.5760   -2.4140 f         1 CFS     -0.268300
     14 F2          1.7410   -0.1580   -2.8030 f         1 CFS     -0.268300
     15 C           2.4470   -2.5990   -2.8370 c         1 CFS      0.950600
     16 O           2.9210   -2.4090   -3.9630 o         1 CFS     -0.745800
     17 OXT         2.5390   -3.5670   -2.0450 o         1 CFS     -0.745800
     18 HN1        -0.3480    1.0380    0.2100 hn        1 CFS      0.460800
     19 HN2        -0.4920   -0.6350    0.1360 hn        1 CFS      0.460800
     20 HA          1.9730    0.8530   -0.6090 hx        1 CFS      0.114700
     21 HB1         1.4520   -0.8610    1.9440 hc        1 CFS      0.090700
     22 HB2         2.9760   -0.0210    1.4570 hc        1 CFS      0.090700
     23 HG          0.2910    1.3260    2.2480 hc        1 CFS      0.025700
     24 HD11        1.5550    0.2970    4.1070 hc        1 CFS      0.044950
     25 HD12        3.0680    1.1400    3.5840 hc        1 CFS      0.044950
     26 HD21        1.4530    2.6610    0.4850 hc        1 CFS      0.044950
     27 HD22        3.0090    2.5430    1.4000 hc        1 CFS      0.044950
     28 HE11        0.4340    2.4640    4.5330 hc        1 CFS      0.044950
     29 HE12        1.9970    2.3740    5.4390 hc        1 CFS      0.044950
     30 HE21        0.3850    3.9020    2.3270 hc        1 CFS      0.044950
     31 HE22        1.9180    4.7180    1.8220 hc        1 CFS      0.044950
     32 HZ1         3.1340    3.7540    3.7380 hc        1 CFS      0.048700
     33 HZ2         1.6480    4.6040    4.3220 hc        1 CFS      0.048700
     34 HCH         3.0010   -1.4500   -0.5580 h1        1 CFS      0.106700
     35 HH1         1.4410   -3.1940   -0.4220 ho        1 CFS      0.495000
     36 HN3        -0.2060    0.2270   -1.2620 hn        1 CFS      0.460800
@<TRIPOS>BOND
     1    1    2 1   
     2    1   18 1   
     3    1   19 1   
     4    1   36 1   
     5    2    3 1   
     6    2   10 1   
     7    2   20 1   
     8    3    4 1   
     9    3   21 1   
    10    3   22 1   
    11    4    5 1   
    12    4    6 1   
    13    4   23 1   
    14    5    7 1   
    15    5   24 1   
    16    5   25 1   
    17    6    8 1   
    18    6   26 1   
    19    6   27 1   
    20    7    9 1   
    21    7   28 1   
    22    7   29 1   
    23    8    9 1   
    24    8   30 1   
    25    8   31 1   
    26    9   32 1   
    27    9   33 1   
    28   10   11 1   
    29   10   12 1   
    30   10   34 1   
    31   11   35 1   
    32   12   13 1   
    33   12   14 1   
    34   12   15 1   
    35   15   16 1   
    36   15   17 1   
@<TRIPOS>SUBSTRUCTURE
     1 CFS         1 TEMP              0 ****  ****    0 ROOT
