@<TRIPOS>MOLECULE
CFS
   35    35     1     0     0
SMALL
bcc


@<TRIPOS>ATOM
      1 N          -2.1010   -0.7350   -1.0470 n3        1 CFS     -0.900800
      2 CA         -0.6920   -0.7330   -1.0800 c3        1 CFS      0.162500
      3 CB         -0.1450   -0.7070    0.3560 c3        1 CFS     -0.062400
      4 CG          0.0370    0.7580    0.8110 c3        1 CFS     -0.062700
      5 CD1         1.5200    1.0570    0.9230 c3        1 CFS     -0.073900
      6 CD2        -0.6940    0.9590    2.1180 c3        1 CFS     -0.073900
      7 CE1         1.7920    2.4110    1.5330 c3        1 CFS     -0.074900
      8 CE2        -0.4210    2.3170    2.7310 c3        1 CFS     -0.074900
      9 CZ          1.0590    2.6140    2.8440 c3        1 CFS     -0.074400
     10 CH         -0.2070   -1.9730   -1.7790 c3        1 CFS      0.082100
     11 OH1        -0.8810   -3.0870   -1.2720 oh        1 CFS     -0.632800
     12 CM         -0.4770   -1.8520   -3.2770 c3        1 CFS      0.207600
     13 F1          0.0360   -0.7010   -3.7310 f         1 CFS     -0.264300
     14 F2         -1.8040   -1.8690   -3.4970 f         1 CFS     -0.264300
     15 C           0.1730   -3.0160   -4.0050 c         1 CFS      0.919600
     16 O          -0.4560   -4.0970   -4.1490 o         1 CFS     -0.792800
     17 OXT         1.3620   -2.9200   -4.4110 o         1 CFS     -0.792800
     18 HN1        -2.3860   -0.8220   -0.1820 hn        1 CFS      0.351300
     19 HN2        -2.4160    0.0530   -1.3940 hn        1 CFS      0.351300
     20 HA         -0.3790    0.0560   -1.5620 h1        1 CFS      0.060700
     21 HB1         0.7210   -1.1670    0.3840 hc        1 CFS      0.045700
     22 HB2        -0.7750   -1.1590    0.9540 hc        1 CFS      0.045700
     23 HG         -0.3540    1.3490    0.1380 hc        1 CFS      0.068700
     24 HD11        1.9410    0.3680    1.4800 hc        1 CFS      0.039200
     25 HD12        1.9140    1.0280    0.0340 hc        1 CFS      0.039200
     26 HD21       -1.6480    0.8720    1.9610 hc        1 CFS      0.039200
     27 HD22       -0.4120    0.2650    2.7470 hc        1 CFS      0.039200
     28 HE11        1.5100    3.1040    0.9030 hc        1 CFS      0.031700
     29 HE12        2.7510    2.4990    1.6910 hc        1 CFS      0.031700
     30 HE21       -0.8180    2.3470    3.6230 hc        1 CFS      0.031700
     31 HE22       -0.8380    3.0030    2.1770 hc        1 CFS      0.031700
     32 HZ1         1.4480    2.0260    3.5160 hc        1 CFS      0.028700
     33 HZ2         1.1740    3.5380    3.1300 hc        1 CFS      0.028700
     34 HCH         0.7560   -2.0780   -1.6280 h1        1 CFS      0.052700
     35 HH1        -0.2920   -3.7080   -1.0370 ho        1 CFS      0.454000
@<TRIPOS>BOND
     1    1    2 1   
     2    1   18 1   
     3    1   19 1   
     4    2    3 1   
     5    2   10 1   
     6    2   20 1   
     7    3    4 1   
     8    3   21 1   
     9    3   22 1   
    10    4    5 1   
    11    4    6 1   
    12    4   23 1   
    13    5    7 1   
    14    5   24 1   
    15    5   25 1   
    16    6    8 1   
    17    6   26 1   
    18    6   27 1   
    19    7    9 1   
    20    7   28 1   
    21    7   29 1   
    22    8    9 1   
    23    8   30 1   
    24    8   31 1   
    25    9   32 1   
    26    9   33 1   
    27   10   11 1   
    28   10   12 1   
    29   10   34 1   
    30   11   35 1   
    31   12   13 1   
    32   12   14 1   
    33   12   15 1   
    34   15   16 1   
    35   15   17 1   
@<TRIPOS>SUBSTRUCTURE
     1 CFS         1 TEMP              0 ****  ****    0 ROOT
