@<TRIPOS>MOLECULE
CFS
   36    36     1     0     0
SMALL
bcc


@<TRIPOS>ATOM
      1 N          -0.0300    0.1730   -0.2260 nz        1 CFS     -0.840600
      2 CA          1.4530    0.0100   -0.0380 c3        1 CFS      0.115500
      3 CB          1.8630    0.0580    1.4290 c3        1 CFS     -0.108400
      4 CG          1.4250    1.3020    2.1830 c3        1 CFS     -0.075700
      5 CD1         1.9780    1.2370    3.6040 c3        1 CFS     -0.076400
      6 CD2         1.8860    2.5830    1.5000 c3        1 CFS     -0.076400
      7 CE1         1.5790    2.4580    4.4040 c3        1 CFS     -0.077400
      8 CE2         1.4960    3.8080    2.3030 c3        1 CFS     -0.077400
      9 CZ          2.0250    3.7340    3.7200 c3        1 CFS     -0.079400
     10 CH          1.8840   -1.3350   -0.6750 c3        1 CFS      0.095100
     11 OH1         1.2000   -2.3540    0.0220 oh        1 CFS     -0.653800
     12 CM          1.5350   -1.4050   -2.2040 c3        1 CFS      0.167600
     13 F1          0.1770   -1.6040   -2.3850 f         1 CFS     -0.268300
     14 F2          1.7000   -0.1750   -2.8000 f         1 CFS     -0.268300
     15 C           2.4240   -2.6110   -2.8310 c         1 CFS      0.950600
     16 O           2.8820   -2.4230   -3.9640 o         1 CFS     -0.745800
     17 OXT         2.5340   -3.5740   -2.0360 o         1 CFS     -0.745800
     18 HN1        -0.4930   -0.6550    0.1680 hn        1 CFS      0.460800
     19 HN2        -0.2310    0.2020   -1.2370 hn        1 CFS      0.460800
     20 HA          1.9510    0.8480   -0.6140 hx        1 CFS      0.114700
     21 HB1         2.9860   -0.0090    1.4430 hc        1 CFS      0.090700
     22 HB2         1.4740   -0.8580    1.9530 hc        1 CFS      0.090700
     23 HG          0.3010    1.3230    2.2610 hc        1 CFS      0.025700
     24 HD11        3.0960    1.1630    3.5630 hc        1 CFS      0.044950
     25 HD12        1.5950    0.3120    4.1090 hc        1 CFS      0.044950
     26 HD21        1.4320    2.6570    0.4770 hc        1 CFS      0.044950
     27 HD22        3.0000    2.5540    1.3730 hc        1 CFS      0.044950
     28 HE11        2.0390    2.3990    5.4250 hc        1 CFS      0.044950
     29 HE12        0.4650    2.4740    4.5390 hc        1 CFS      0.044950
     30 HE21        1.8990    4.7240    1.7980 hc        1 CFS      0.044950
     31 HE22        0.3780    3.9000    2.3260 hc        1 CFS      0.044950
     32 HZ1         1.6610    4.6200    4.3020 hc        1 CFS      0.048700
     33 HZ2         3.1460    3.7780    3.7040 hc        1 CFS      0.048700
     34 HCH         2.9970   -1.4470   -0.5650 h1        1 CFS      0.106700
     35 HH1         1.4520   -3.2020   -0.4020 ho        1 CFS      0.495000
     36 HN3        -0.3610    1.0200    0.2330 hn        1 CFS      0.460800
@<TRIPOS>BOND
     1    1    2 1   
     2    1   18 1   
     3    1   19 1   
     4    1   36 1   
     5    2    3 1   
     6    2   10 1   
     7    2   20 1   
     8    3    4 1   
     9    3   21 1   
    10    3   22 1   
    11    4    5 1   
    12    4    6 1   
    13    4   23 1   
    14    5    7 1   
    15    5   24 1   
    16    5   25 1   
    17    6    8 1   
    18    6   26 1   
    19    6   27 1   
    20    7    9 1   
    21    7   28 1   
    22    7   29 1   
    23    8    9 1   
    24    8   30 1   
    25    8   31 1   
    26    9   32 1   
    27    9   33 1   
    28   10   11 1   
    29   10   12 1   
    30   10   34 1   
    31   11   35 1   
    32   12   13 1   
    33   12   14 1   
    34   12   15 1   
    35   15   16 1   
    36   15   17 1   
@<TRIPOS>SUBSTRUCTURE
     1 CFS         1 TEMP              0 ****  ****    0 ROOT
