@<TRIPOS>MOLECULE
CFS
   36    36     1     0     0
SMALL
bcc


@<TRIPOS>ATOM
      1 N          -0.0390    0.1490   -0.2040 n4        1 CFS     -0.840600
      2 CA          1.4480    0.0080   -0.0370 c3        1 CFS      0.115500
      3 CB          1.8790    0.0620    1.4230 c3        1 CFS     -0.108400
      4 CG          1.4330    1.2990    2.1840 c3        1 CFS     -0.075700
      5 CD1         2.0070    1.2410    3.5970 c3        1 CFS     -0.076400
      6 CD2         1.8640    2.5870    1.4970 c3        1 CFS     -0.076400
      7 CE1         1.6010    2.4560    4.4040 c3        1 CFS     -0.077400
      8 CE2         1.4670    3.8050    2.3050 c3        1 CFS     -0.077400
      9 CZ          2.0180    3.7380    3.7150 c3        1 CFS     -0.079400
     10 CH          1.8900   -1.3290   -0.6820 c3        1 CFS      0.095100
     11 OH1         1.2330   -2.3590    0.0240 oh        1 CFS     -0.653800
     12 CM          1.5210   -1.4040   -2.2050 c3        1 CFS      0.167600
     13 F1          0.1640   -1.6230   -2.3670 f         1 CFS     -0.268300
     14 F2          1.6580   -0.1710   -2.8030 f         1 CFS     -0.268300
     15 C           2.4180   -2.5960   -2.8470 c         1 CFS      0.950600
     16 O           2.8570   -2.4000   -3.9860 o         1 CFS     -0.745800
     17 OXT         2.5550   -3.5570   -2.0530 o         1 CFS     -0.745800
     18 HN1        -0.2550    0.1750   -1.2120 hn        1 CFS      0.460800
     19 HN2        -0.3770    0.9900    0.2610 hn        1 CFS      0.460800
     20 HA          1.9250    0.8540   -0.6200 hx        1 CFS      0.114700
     21 HB1         3.0030    0.0120    1.4210 hc        1 CFS      0.090700
     22 HB2         1.5110   -0.8600    1.9520 hc        1 CFS      0.090700
     23 HG          0.3100    1.3020    2.2790 hc        1 CFS      0.025700
     24 HD11        3.1260    1.1840    3.5400 hc        1 CFS      0.044950
     25 HD12        1.6460    0.3100    4.1070 hc        1 CFS      0.044950
     26 HD21        1.3950    2.6550    0.4800 hc        1 CFS      0.044950
     27 HD22        2.9770    2.5750    1.3530 hc        1 CFS      0.044950
     28 HE11        2.0770    2.4030    5.4180 hc        1 CFS      0.044950
     29 HE12        0.4890    2.4540    4.5550 hc        1 CFS      0.044950
     30 HE21        1.8490    4.7280    1.7960 hc        1 CFS      0.044950
     31 HE22        0.3490    3.8810    2.3450 hc        1 CFS      0.044950
     32 HZ1         1.6490    4.6190    4.3030 hc        1 CFS      0.048700
     33 HZ2         3.1370    3.8000    3.6820 hc        1 CFS      0.048700
     34 HCH         3.0060   -1.4250   -0.5880 h1        1 CFS      0.106700
     35 HH1         1.4920   -3.2030   -0.4040 ho        1 CFS      0.495000
     36 HN3        -0.4840   -0.6870    0.1960 hn        1 CFS      0.460800
@<TRIPOS>BOND
     1    1    2 1   
     2    1   18 1   
     3    1   19 1   
     4    1   36 1   
     5    2    3 1   
     6    2   10 1   
     7    2   20 1   
     8    3    4 1   
     9    3   21 1   
    10    3   22 1   
    11    4    5 1   
    12    4    6 1   
    13    4   23 1   
    14    5    7 1   
    15    5   24 1   
    16    5   25 1   
    17    6    8 1   
    18    6   26 1   
    19    6   27 1   
    20    7    9 1   
    21    7   28 1   
    22    7   29 1   
    23    8    9 1   
    24    8   30 1   
    25    8   31 1   
    26    9   32 1   
    27    9   33 1   
    28   10   11 1   
    29   10   12 1   
    30   10   34 1   
    31   11   35 1   
    32   12   13 1   
    33   12   14 1   
    34   12   15 1   
    35   15   16 1   
    36   15   17 1   
@<TRIPOS>SUBSTRUCTURE
     1 CFS         1 TEMP              0 ****  ****    0 ROOT
