@<TRIPOS>MOLECULE
CFT
    5     4     1     0     0
SMALL
bcc


@<TRIPOS>ATOM
      1 C1          0.0000    0.0000    0.3970 c3        1 CFT      0.623200
      2 FB1         1.1030    0.6070   -0.1370 f         1 CFT     -0.243300
      3 FB2        -1.0770    0.6520   -0.1380 f         1 CFT     -0.243300
      4 FB3        -0.0260   -1.2580   -0.1370 f         1 CFT     -0.243300
      5 H1         -0.0000    0.0000    1.5270 h3        1 CFT      0.106700
@<TRIPOS>BOND
     1    1    2 1   
     2    1    3 1   
     3    1    4 1   
     4    1    5 1   
@<TRIPOS>SUBSTRUCTURE
     1 CFT         1 TEMP              0 ****  ****    0 ROOT
