@<TRIPOS>MOLECULE
CFT
    5     4     1     0     0
SMALL
bcc


@<TRIPOS>ATOM
      1 C1         -0.0240   -0.0600   -0.0340 c3        1 CFT      0.623200
      2 FB1         1.3170   -0.0600   -0.0340 f         1 CFT     -0.243300
      3 FB2        -0.4710   -0.0600    1.2300 f         1 CFT     -0.243300
      4 FB3        -0.4710    1.0350   -0.6670 f         1 CFT     -0.243300
      5 H1         -0.3500   -0.8570   -0.4950 h3        1 CFT      0.106700
@<TRIPOS>BOND
     1    1    2 1   
     2    1    3 1   
     3    1    4 1   
     4    1    5 1   
@<TRIPOS>SUBSTRUCTURE
     1 CFT         1 TEMP              0 ****  ****    0 ROOT
