@<TRIPOS>MOLECULE
CFU
   30    30     1     0     0
SMALL
bcc


@<TRIPOS>ATOM
      1 O4A         1.0450   -0.1900    0.7890 o         1 CFU     -0.814300
      2 C4'         1.6050    0.5680   -0.0390 c         1 CFU      0.912800
      3 O4B         2.0920    1.7080    0.2230 o         1 CFU     -0.814300
      4 C4          1.7220    0.1350   -1.5180 ce        1 CFU      0.000800
      5 C3          2.2000   -1.0750   -1.9070 c2        1 CFU     -0.198400
      6 C3'         2.6030   -2.1330   -0.9550 c3        1 CFU     -0.036900
      7 C2          2.3470   -1.4230   -3.3360 c3        1 CFU      0.083900
      8 S1          2.8920   -0.0620   -4.3470 ss        1 CFU     -0.401200
      9 N5          1.2930    1.1090   -2.4500 nh        1 CFU     -0.697000
     10 C6          2.1320    1.3910   -3.5890 c3        1 CFU      0.296600
     11 C7          3.2400    2.4730   -3.3610 c3        1 CFU     -0.052300
     12 C8          4.1360    2.0960   -2.1800 c         1 CFU      0.545900
     13 O9          5.3640    2.0420   -2.2700 o         1 CFU     -0.561100
     14 N10         3.9660    2.7330   -4.5800 n         1 CFU     -0.543900
     15 C11         3.9210    3.9360   -5.2460 c         1 CFU      0.657100
     16 O12         3.1330    4.8500   -4.9200 o         1 CFU     -0.631100
     17 C13         4.8510    4.0990   -6.4280 c3        1 CFU     -0.173100
     18 H3          3.7100   -2.2920   -1.0030 hc        1 CFU      0.038700
     19 H4          2.3200   -1.8630    0.0940 hc        1 CFU      0.038700
     20 H5          1.3700   -1.7840   -3.7430 h1        1 CFU      0.058700
     21 H6          3.1130   -2.2240   -3.4860 h1        1 CFU      0.058700
     22 H7          1.0590    1.9640   -1.9680 hn        1 CFU      0.405800
     23 H9          1.4440    1.8010   -4.3860 h2        1 CFU      0.077700
     24 H10         2.7090    3.4320   -3.0570 h1        1 CFU      0.105700
     25 H11         3.5860    1.9110   -1.2210 h4        1 CFU      0.101200
     26 H12         4.6730    2.0720   -4.8090 hn        1 CFU      0.324500
     27 H13         5.9150    4.0270   -6.0960 hc        1 CFU      0.059033
     28 H14         4.6530    3.3120   -7.1940 hc        1 CFU      0.059033
     29 H15         4.6780    5.1030   -6.8840 hc        1 CFU      0.059033
     30 H2          2.1020   -3.0980   -1.2200 hc        1 CFU      0.038700
@<TRIPOS>BOND
     1    1    2 1   
     2    2    3 1   
     3    2    4 1   
     4    4    5 2   
     5    4    9 1   
     6    5    6 1   
     7    5    7 1   
     8    6   18 1   
     9    6   19 1   
    10    6   30 1   
    11    7    8 1   
    12    7   20 1   
    13    7   21 1   
    14    8   10 1   
    15    9   10 1   
    16    9   22 1   
    17   10   11 1   
    18   10   23 1   
    19   11   12 1   
    20   11   14 1   
    21   11   24 1   
    22   12   13 2   
    23   12   25 1   
    24   14   15 1   
    25   14   26 1   
    26   15   16 2   
    27   15   17 1   
    28   17   27 1   
    29   17   28 1   
    30   17   29 1   
@<TRIPOS>SUBSTRUCTURE
     1 CFU         1 TEMP              0 ****  ****    0 ROOT
