@<TRIPOS>MOLECULE
CFU
   31    31     1     0     0
SMALL
bcc


@<TRIPOS>ATOM
      1 O4A         0.8120   -0.3430    0.4030 o         1 CFU     -0.784300
      2 C4'         1.4030    0.5310   -0.2580 c         1 CFU      0.919800
      3 O4B         1.8000    1.6620    0.1660 o         1 CFU     -0.784300
      4 C4          1.7000    0.2860   -1.7620 ce        1 CFU     -0.027200
      5 C3          2.2300   -0.8590   -2.2600 c2        1 CFU     -0.171400
      6 C3'         2.5440   -2.0380   -1.4190 c3        1 CFU     -0.051900
      7 C2          2.5060   -1.0410   -3.6990 c3        1 CFU      0.113900
      8 S1          3.0090    0.4630   -4.5510 ss        1 CFU     -0.456200
      9 N5          1.3790    1.3910   -2.5950 nu        1 CFU     -0.684000
     10 C6          2.3570    1.8150   -3.5440 c3        1 CFU      0.313600
     11 C7          3.5580    2.6550   -2.9860 c3        1 CFU     -0.067500
     12 C8          4.1300    2.1230   -1.6570 c         1 CFU      0.549900
     13 O9          5.3400    1.9330   -1.5510 o         1 CFU     -0.537100
     14 N10         4.6440    2.7930   -4.0210 ny        1 CFU     -0.678800
     15 C11         4.2910    3.7650   -5.1070 c         1 CFU      0.550100
     16 O12         4.4000    4.9540   -4.8320 o         1 CFU     -0.435100
     17 C13         3.8690    3.1760   -6.4100 c3        1 CFU     -0.195100
     18 H3          3.6510   -2.1950   -1.3790 hc        1 CFU      0.055367
     19 H4          2.1570   -1.9060   -0.3760 hc        1 CFU      0.055367
     20 H5          1.5850   -1.3960   -4.2280 h1        1 CFU      0.084700
     21 H6          3.3370   -1.7680   -3.8750 h1        1 CFU      0.084700
     22 H7          1.0250    2.1590   -2.0440 hn        1 CFU      0.428800
     23 H9          1.8290    2.4910   -4.2800 h2        1 CFU      0.077700
     24 H10         3.1710    3.6970   -2.7600 hx        1 CFU      0.122700
     25 H11         3.3710    1.9870   -0.8300 h4        1 CFU      0.175200
     26 H12         5.4960    3.1020   -3.5290 hn        1 CFU      0.474800
     27 H13         3.3280    3.9580   -7.0020 hc        1 CFU      0.112033
     28 H14         4.7760    2.8530   -6.9820 hc        1 CFU      0.112033
     29 H15         3.1940    2.2870   -6.2700 hc        1 CFU      0.112033
     30 H2          2.0740   -2.9540   -1.8560 hc        1 CFU      0.055367
     31 H102        4.8100    1.8430   -4.4160 hn        1 CFU      0.474800
@<TRIPOS>BOND
     1    1    2 1   
     2    2    3 1   
     3    2    4 1   
     4    4    5 2   
     5    4    9 1   
     6    5    6 1   
     7    5    7 1   
     8    6   18 1   
     9    6   19 1   
    10    6   30 1   
    11    7    8 1   
    12    7   20 1   
    13    7   21 1   
    14    8   10 1   
    15    9   10 1   
    16    9   22 1   
    17   10   11 1   
    18   10   23 1   
    19   11   12 1   
    20   11   14 1   
    21   11   24 1   
    22   12   13 2   
    23   12   25 1   
    24   14   15 1   
    25   14   26 1   
    26   14   31 1   
    27   15   16 2   
    28   15   17 1   
    29   17   27 1   
    30   17   28 1   
    31   17   29 1   
@<TRIPOS>SUBSTRUCTURE
     1 CFU         1 TEMP              0 ****  ****    0 ROOT
