@<TRIPOS>MOLECULE
CFU
   31    31     1     0     0
SMALL
bcc


@<TRIPOS>ATOM
      1 O4A         0.7910   -0.3540    0.3850 o         1 CFU     -0.784300
      2 C4'         1.3550    0.5300   -0.2860 c         1 CFU      0.919800
      3 O4B         1.6790    1.6920    0.1140 o         1 CFU     -0.784300
      4 C4          1.7100    0.2560   -1.7730 ce        1 CFU     -0.027200
      5 C3          2.3150   -0.8730   -2.2190 c2        1 CFU     -0.171400
      6 C3'         2.6660   -2.0070   -1.3330 c3        1 CFU     -0.051900
      7 C2          2.6440   -1.0830   -3.6430 c3        1 CFU      0.113900
      8 S1          3.0920    0.4200   -4.5270 ss        1 CFU     -0.456200
      9 N5          1.3580    1.3170   -2.6480 nh        1 CFU     -0.684000
     10 C6          2.3400    1.7650   -3.5810 c3        1 CFU      0.313600
     11 C7          3.4770    2.6840   -3.0160 c3        1 CFU     -0.067500
     12 C8          4.0360    2.2240   -1.6560 c         1 CFU      0.549900
     13 O9          5.2500    2.1020   -1.5090 o         1 CFU     -0.537100
     14 N10         4.5850    2.8500   -4.0230 n4        1 CFU     -0.678800
     15 C11         4.2140    3.7680   -5.1490 c         1 CFU      0.550100
     16 O12         4.2510    4.9680   -4.9090 o         1 CFU     -0.435100
     17 C13         3.8640    3.1180   -6.4450 c3        1 CFU     -0.195100
     18 H3          2.2570   -2.9600   -1.7530 hc        1 CFU      0.055367
     19 H4          3.7780   -2.1040   -1.2560 hc        1 CFU      0.055367
     20 H5          3.5170   -1.7690   -3.7720 h1        1 CFU      0.084700
     21 H6          1.7600   -1.5020   -4.1860 h1        1 CFU      0.084700
     22 H7          0.9470    2.0810   -2.1320 hn        1 CFU      0.428800
     23 H9          1.7990    2.3890   -4.3540 h2        1 CFU      0.077700
     24 H10         3.0290    3.7100   -2.8340 hx        1 CFU      0.122700
     25 H11         3.2600    2.0720   -0.8470 h4        1 CFU      0.175200
     26 H12         4.8130    1.8990   -4.3830 hn        1 CFU      0.474800
     27 H13         3.2330    2.1990   -6.2970 hc        1 CFU      0.112033
     28 H14         3.3020    3.8520   -7.0770 hc        1 CFU      0.112033
     29 H15         4.8050    2.8260   -6.9800 hc        1 CFU      0.112033
     30 H2          2.2400   -1.8660   -0.3050 hc        1 CFU      0.055367
     31 H102        5.4040    3.2190   -3.5170 hn        1 CFU      0.474800
@<TRIPOS>BOND
     1    1    2 1   
     2    2    3 1   
     3    2    4 1   
     4    4    5 2   
     5    4    9 1   
     6    5    6 1   
     7    5    7 1   
     8    6   18 1   
     9    6   19 1   
    10    6   30 1   
    11    7    8 1   
    12    7   20 1   
    13    7   21 1   
    14    8   10 1   
    15    9   10 1   
    16    9   22 1   
    17   10   11 1   
    18   10   23 1   
    19   11   12 1   
    20   11   14 1   
    21   11   24 1   
    22   12   13 2   
    23   12   25 1   
    24   14   15 1   
    25   14   26 1   
    26   14   31 1   
    27   15   16 2   
    28   15   17 1   
    29   17   27 1   
    30   17   28 1   
    31   17   29 1   
@<TRIPOS>SUBSTRUCTURE
     1 CFU         1 TEMP              0 ****  ****    0 ROOT
