@<TRIPOS>MOLECULE
CFV
   30    28     1     0     0
SMALL
bcc


@<TRIPOS>ATOM
      1 OAN        -1.2860    1.6700    4.6700 o         1 CFV     -0.948167
      2 PAM        -0.2740    2.3460    3.7730 p5        1 CFV      1.632500
      3 OAO         0.8370    2.9350    4.6180 o         1 CFV     -0.948167
      4 OAP        -0.9520    3.4480    2.9910 o         1 CFV     -0.948167
      5 CAL         0.4290    1.1190    2.6130 c3        1 CFV     -0.617000
      6 OAK        -0.6320    0.4980    1.8740 os        1 CFV     -0.275000
      7 CAJ        -0.2170   -0.6080    1.0960 c3        1 CFV     -0.043000
      8 CAQ        -0.1610   -1.8430    1.9620 c3        1 CFV      0.002000
      9 OAR         1.0440   -2.5440    1.7080 oh        1 CFV     -0.426000
     10 CAA        -1.2040   -0.8290   -0.0370 c3        1 CFV     -0.059000
     11 NAB        -0.6150   -0.3880   -1.2840 n3        1 CFV     -0.220000
     12 CAC         0.1640   -1.2880   -2.0590 c2        1 CFV      0.096000
     13 CAD         0.7760   -0.8320   -3.3270 c1        1 CFV     -0.392000
     14 CAE         0.5240    0.5280   -3.8090 c1        1 CFV      0.179000
     15 NAF         1.0500    0.9490   -5.0740 n3        1 CFV     -0.329000
     16 NAG        -0.2870    1.4100   -3.0490 n1        1 CFV     -0.321000
     17 CAH        -0.8510    0.9700   -1.7610 c1        1 CFV      0.330000
     18 OAI        -1.5430    1.7270   -1.1130 o         1 CFV     -0.378000
     19 HAL         1.0370    1.5660    1.9960 h1        1 CFV      0.055000
     20 HALA        0.9200    0.4350    3.1190 h1        1 CFV      0.055000
     21 HAJ         0.6710   -0.4300    0.7240 h1        1 CFV      0.186000
     22 HAQ        -0.1940   -1.5800    2.9100 h1        1 CFV      0.058500
     23 HAQA       -0.9300   -2.4250    1.7550 h1        1 CFV      0.058500
     24 HOAR        1.0830   -3.2590    2.2240 ho        1 CFV      0.302000
     25 HAA        -1.4230   -1.7820   -0.0990 h1        1 CFV      0.100000
     26 HAAA       -2.0300   -0.3120    0.1400 h1        1 CFV      0.100000
     27 HAC         0.3050   -2.2100   -1.7490 h4        1 CFV      0.235000
     28 HAD         1.3180   -1.4500   -3.8610 ha        1 CFV      0.147000
     29 HNAF        0.8520    1.7880   -5.3980 hn        1 CFV      0.183500
     30 HNAA        1.5860    0.3910   -5.5520 hn        1 CFV      0.183500
@<TRIPOS>BOND
     1    1    2 1   
     2    2    3 1   
     3    2    4 1   
     4    2    5 1   
     5    5    6 1   
     6    5   19 1   
     7    5   20 1   
     8    6    7 1   
     9    7    8 1   
    10    7   10 1   
    11    7   21 1   
    12    8    9 1   
    13    8   22 1   
    14    8   23 1   
    15    9   24 1   
    16   10   11 1   
    17   10   25 1   
    18   10   26 1   
    19   11   12 1   
    20   11   17 1   
    21   12   13 1   
    22   12   27 1   
    23   13   28 1   
    24   14   15 1   
    25   14   16 1   
    26   15   29 1   
    27   15   30 1   
    28   17   18 1   
@<TRIPOS>SUBSTRUCTURE
     1 CFV         1 TEMP              0 ****  ****    0 ROOT
