@<TRIPOS>MOLECULE
CFV
   30    30     1     0     0
SMALL
bcc


@<TRIPOS>ATOM
      1 OAN        -3.7880    3.9230    0.0450 o         1 CFV     -0.868000
      2 PAM        -3.4630    2.6240   -0.5920 p5        1 CFV      1.340600
      3 OAO        -4.5030    1.6860   -1.0770 o         1 CFV     -0.868000
      4 OAP        -2.5170    2.9240   -1.8960 oh        1 CFV     -0.782400
      5 CAL        -2.3840    1.7810    0.4600 c3        1 CFV     -0.102800
      6 OAK        -1.7180    0.8400   -0.3600 os        1 CFV     -0.419600
      7 CAJ        -0.9340   -0.1110    0.3750 c3        1 CFV      0.112100
      8 CAQ        -1.8420   -1.2360    0.8770 c3        1 CFV      0.116400
      9 OAR        -2.7390   -1.7060   -0.1090 oh        1 CFV     -0.632800
     10 CAA         0.1220   -0.6340   -0.6170 c3        1 CFV      0.117000
     11 NAB         1.2620   -1.2690    0.0100 n         1 CFV     -0.319400
     12 CAC         1.2160   -1.6550    1.3090 c1        1 CFV     -0.120900
     13 CAD         2.3560   -2.2680    1.8640 ce        1 CFV     -0.584700
     14 CAE         3.5080   -2.4640    1.0600 ce        1 CFV      0.658500
     15 NAF         4.6390   -3.1320    1.6180 nh        1 CFV     -0.882800
     16 NAG         3.5740   -2.0680   -0.2400 nf        1 CFV     -0.804100
     17 CAH         2.4380   -1.4790   -0.7960 c         1 CFV      0.741500
     18 OAI         2.4230   -1.1100   -2.0040 o         1 CFV     -0.702100
     19 HAL        -1.6390    2.4620    0.9410 h1        1 CFV      0.037200
     20 HALA       -2.9480    1.2650    1.2750 h1        1 CFV      0.037200
     21 HAJ        -0.4410    0.3850    1.2540 h1        1 CFV      0.063700
     22 HAQ        -1.2150   -2.1190    1.1760 h1        1 CFV      0.045700
     23 HAQA       -2.4330   -0.8720    1.7620 h1        1 CFV      0.045700
     24 HOAR       -3.1160   -0.9280   -0.5470 ho        1 CFV      0.427000
     25 HAA        -0.3750   -1.3760   -1.3050 h1        1 CFV      0.053700
     26 HAAA        0.4900    0.2260   -1.2460 h1        1 CFV      0.053700
     27 HAC        -2.3000    2.1290   -2.3690 ho        1 CFV      0.425000
     28 HAD         2.3180   -2.5930    2.9060 ha        1 CFV      0.107000
     29 HNAF        4.7720   -2.8530    2.5670 hn        1 CFV      0.351800
     30 HNAA        5.4780   -3.0050    1.0900 hn        1 CFV      0.351800
@<TRIPOS>BOND
     1    1    2 1   
     2    2    3 1   
     3    2    4 1   
     4    2    5 1   
     5    4   27 1   
     6    5    6 1   
     7    5   19 1   
     8    5   20 1   
     9    6    7 1   
    10    7    8 1   
    11    7   10 1   
    12    7   21 1   
    13    8    9 1   
    14    8   22 1   
    15    8   23 1   
    16    9   24 1   
    17   10   11 1   
    18   10   25 1   
    19   10   26 1   
    20   11   12 2   
    21   11   17 1   
    22   12   13 2   
    23   13   14 1   
    24   13   28 1   
    25   14   15 1   
    26   14   16 2   
    27   15   29 1   
    28   15   30 1   
    29   16   17 1   
    30   17   18 2   
@<TRIPOS>SUBSTRUCTURE
     1 CFV         1 TEMP              0 ****  ****    0 ROOT
