@<TRIPOS>MOLECULE
CFV
   31    32     1     0     0
SMALL
bcc


@<TRIPOS>ATOM
      1 OAN         0.7950    0.5280    1.6980 o         1 CFV     -0.879000
      2 PAM         2.0090    0.5890    0.8630 p5        1 CFV      1.405600
      3 OAO         3.2810    0.3980    1.9120 os        1 CFV     -0.639200
      4 OAP         2.2420    1.7840   -0.0030 o         1 CFV     -0.879000
      5 CAL         2.1210   -0.8790   -0.0070 c3        1 CFV     -0.120800
      6 OAK         3.4770   -1.1400   -0.3570 os        1 CFV     -0.404600
      7 CAJ         4.1580   -2.0910    0.4640 c3        1 CFV      0.081100
      8 CAQ         4.6100   -3.2390   -0.4460 c3        1 CFV      0.131400
      9 OAR         5.7350   -2.9710   -1.2510 oh        1 CFV     -0.628800
     10 CAA         5.3480   -1.4200    1.2010 c3        1 CFV      0.089000
     11 NAB         5.5170    0.0030    1.0790 n         1 CFV     -0.485800
     12 CAC         4.6140    0.8450    1.8810 c3        1 CFV      0.466700
     13 CAD         4.6780    2.3020    1.4920 c2        1 CFV     -0.462200
     14 CAE         4.9760    2.5250    0.1690 ce        1 CFV      0.329600
     15 NAF         4.2740    3.6620   -0.4890 n4        1 CFV     -0.749400
     16 NAG         5.7450    1.7640   -0.6470 ne        1 CFV     -0.551600
     17 CAH         6.0490    0.4910   -0.1640 c2        1 CFV      0.441000
     18 OAI         6.8340   -0.2580   -0.8080 o         1 CFV     -0.444000
     19 HAL         1.5890   -0.8150   -0.9920 h1        1 CFV      0.059700
     20 HALA        1.6620   -1.7250    0.5590 h1        1 CFV      0.059700
     21 HAJ         3.4670   -2.5270    1.2380 h1        1 CFV      0.044700
     22 HAQ         3.7550   -3.5260   -1.1180 h1        1 CFV      0.023200
     23 HAQA        4.8970   -4.1230    0.1870 h1        1 CFV      0.023200
     24 HOAR        5.8000   -2.0100   -1.3740 ho        1 CFV      0.450000
     25 HAA         6.3020   -1.9040    0.8380 h1        1 CFV      0.055700
     26 HAAA        5.2210   -1.6460    2.2970 h1        1 CFV      0.055700
     27 HAC         4.9630    0.7190    2.9570 h2        1 CFV      0.037700
     28 HAD         4.2150    3.0130    2.1750 ha        1 CFV      0.126000
     29 HNAF        4.6880    3.9110   -1.3830 hn        1 CFV      0.454133
     30 HNAA        3.3020    3.2740   -0.6240 hn        1 CFV      0.454133
     31 HAF3        4.2460    4.4640    0.1300 hn        1 CFV      0.454133
@<TRIPOS>BOND
     1    1    2 1   
     2    2    3 1   
     3    2    4 1   
     4    2    5 1   
     5    3   12 1   
     6    5    6 1   
     7    5   19 1   
     8    5   20 1   
     9    6    7 1   
    10    7    8 1   
    11    7   10 1   
    12    7   21 1   
    13    8    9 1   
    14    8   22 1   
    15    8   23 1   
    16    9   24 1   
    17   10   11 1   
    18   10   25 1   
    19   10   26 1   
    20   11   12 1   
    21   11   17 1   
    22   12   13 1   
    23   12   27 1   
    24   13   14 2   
    25   13   28 1   
    26   14   15 1   
    27   14   16 1   
    28   15   29 1   
    29   15   30 1   
    30   15   31 1   
    31   16   17 2   
    32   17   18 1   
@<TRIPOS>SUBSTRUCTURE
     1 CFV         1 TEMP              0 ****  ****    0 ROOT
