@<TRIPOS>MOLECULE
CFV
   31    32     1     0     0
SMALL
bcc


@<TRIPOS>ATOM
      1 OAN         0.8210    0.5510    1.7520 o         1 CFV     -0.879000
      2 PAM         2.0200    0.5980    0.8940 p5        1 CFV      1.405600
      3 OAO         3.3100    0.4230    1.9230 os        1 CFV     -0.639200
      4 OAP         2.2370    1.7790    0.0060 o         1 CFV     -0.879000
      5 CAL         2.1150   -0.8830    0.0460 c3        1 CFV     -0.120800
      6 OAK         3.4640   -1.1510   -0.3250 os        1 CFV     -0.404600
      7 CAJ         4.1600   -2.0890    0.4980 c3        1 CFV      0.081100
      8 CAQ         4.5950   -3.2520   -0.4010 c3        1 CFV      0.131400
      9 OAR         5.7060   -2.9970   -1.2300 oh        1 CFV     -0.628800
     10 CAA         5.3640   -1.4070    1.2030 c3        1 CFV      0.089000
     11 NAB         5.5300    0.0130    1.0560 n         1 CFV     -0.485800
     12 CAC         4.6420    0.8690    1.8600 c3        1 CFV      0.466700
     13 CAD         4.6990    2.3190    1.4480 c2        1 CFV     -0.462200
     14 CAE         4.9740    2.5210    0.1160 ce        1 CFV      0.329600
     15 NAF         4.2600    3.6480   -0.5470 n4        1 CFV     -0.749400
     16 NAG         5.7280    1.7460   -0.7020 ne        1 CFV     -0.551600
     17 CAH         6.0400    0.4810   -0.2040 c2        1 CFV      0.441000
     18 OAI         6.8140   -0.2780   -0.8500 o         1 CFV     -0.444000
     19 HAL         1.6660   -1.7210    0.6330 h1        1 CFV      0.059700
     20 HALA        1.5660   -0.8350   -0.9310 h1        1 CFV      0.059700
     21 HAJ         3.4830   -2.5120    1.2910 h1        1 CFV      0.044700
     22 HAQ         4.8930   -4.1260    0.2410 h1        1 CFV      0.023200
     23 HAQA        3.7280   -3.5490   -1.0530 h1        1 CFV      0.023200
     24 HOAR        5.7690   -2.0380   -1.3700 ho        1 CFV      0.450000
     25 HAA         5.2560   -1.6160    2.3060 h1        1 CFV      0.055700
     26 HAAA        6.3100   -1.8970    0.8320 h1        1 CFV      0.055700
     27 HAC         5.0110    0.7600    2.9320 h2        1 CFV      0.037700
     28 HAD         4.2500    3.0410    2.1270 ha        1 CFV      0.126000
     29 HNAF        4.6580    3.8820   -1.4520 hn        1 CFV      0.454133
     30 HNAA        3.2860    3.2580   -0.6580 hn        1 CFV      0.454133
     31 HAF3        4.2440    4.4600    0.0600 hn        1 CFV      0.454133
@<TRIPOS>BOND
     1    1    2 1   
     2    2    3 1   
     3    2    4 1   
     4    2    5 1   
     5    3   12 1   
     6    5    6 1   
     7    5   19 1   
     8    5   20 1   
     9    6    7 1   
    10    7    8 1   
    11    7   10 1   
    12    7   21 1   
    13    8    9 1   
    14    8   22 1   
    15    8   23 1   
    16    9   24 1   
    17   10   11 1   
    18   10   25 1   
    19   10   26 1   
    20   11   12 1   
    21   11   17 1   
    22   12   13 1   
    23   12   27 1   
    24   13   14 2   
    25   13   28 1   
    26   14   15 1   
    27   14   16 1   
    28   15   29 1   
    29   15   30 1   
    30   15   31 1   
    31   16   17 2   
    32   17   18 1   
@<TRIPOS>SUBSTRUCTURE
     1 CFV         1 TEMP              0 ****  ****    0 ROOT
