@<TRIPOS>MOLECULE
CFV
   31    32     1     0     0
SMALL
bcc


@<TRIPOS>ATOM
      1 OAN         0.8350    0.5010    1.8060 o         1 CFV     -0.879000
      2 PAM         2.0220    0.5710    0.9320 p5        1 CFV      1.405600
      3 OAO         3.3280    0.3910    1.9410 os        1 CFV     -0.639200
      4 OAP         2.2180    1.7680    0.0610 o         1 CFV     -0.879000
      5 CAL         2.1180   -0.8960    0.0600 c3        1 CFV     -0.120800
      6 OAK         3.4650   -1.1460   -0.3330 os        1 CFV     -0.404600
      7 CAJ         4.1790   -2.0910    0.4650 c3        1 CFV      0.081100
      8 CAQ         4.6110   -3.2360   -0.4580 c3        1 CFV      0.131400
      9 OAR         5.7080   -2.9590   -1.2970 oh        1 CFV     -0.628800
     10 CAA         5.3860   -1.4110    1.1650 c3        1 CFV      0.089000
     11 NAB         5.5390    0.0130    1.0390 n         1 CFV     -0.485800
     12 CAC         4.6550    0.8480    1.8680 c3        1 CFV      0.466700
     13 CAD         4.6950    2.3050    1.4780 c2        1 CFV     -0.462200
     14 CAE         4.9500    2.5310    0.1460 ce        1 CFV      0.329600
     15 NAF         4.2180    3.6630   -0.4890 nz        1 CFV     -0.749400
     16 NAG         5.6990    1.7760   -0.6940 ne        1 CFV     -0.551600
     17 CAH         6.0280    0.5050   -0.2210 c2        1 CFV      0.441000
     18 OAI         6.7990   -0.2370   -0.8890 o         1 CFV     -0.444000
     19 HAL         1.5550   -0.8370   -0.9090 h1        1 CFV      0.059700
     20 HALA        1.6840   -1.7460    0.6390 h1        1 CFV      0.059700
     21 HAJ         3.5160   -2.5330    1.2600 h1        1 CFV      0.044700
     22 HAQ         4.9240   -4.1180    0.1650 h1        1 CFV      0.023200
     23 HAQA        3.7380   -3.5290   -1.1040 h1        1 CFV      0.023200
     24 HOAR        5.7620   -1.9970   -1.4230 ho        1 CFV      0.450000
     25 HAA         6.3320   -1.8870    0.7730 h1        1 CFV      0.055700
     26 HAAA        5.2950   -1.6380    2.2650 h1        1 CFV      0.055700
     27 HAC         5.0390    0.7250    2.9330 h2        1 CFV      0.037700
     28 HAD         4.2490    3.0120    2.1750 ha        1 CFV      0.126000
     29 HNAF        3.2460    3.2660   -0.5930 hn        1 CFV      0.454133
     30 HNAA        4.2030    4.4640    0.1310 hn        1 CFV      0.454133
     31 HAF3        4.6020    3.9140   -1.3950 hn        1 CFV      0.454133
@<TRIPOS>BOND
     1    1    2 1   
     2    2    3 1   
     3    2    4 1   
     4    2    5 1   
     5    3   12 1   
     6    5    6 1   
     7    5   19 1   
     8    5   20 1   
     9    6    7 1   
    10    7    8 1   
    11    7   10 1   
    12    7   21 1   
    13    8    9 1   
    14    8   22 1   
    15    8   23 1   
    16    9   24 1   
    17   10   11 1   
    18   10   25 1   
    19   10   26 1   
    20   11   12 1   
    21   11   17 1   
    22   12   13 1   
    23   12   27 1   
    24   13   14 2   
    25   13   28 1   
    26   14   15 1   
    27   14   16 1   
    28   15   29 1   
    29   15   30 1   
    30   15   31 1   
    31   16   17 2   
    32   17   18 1   
@<TRIPOS>SUBSTRUCTURE
     1 CFV         1 TEMP              0 ****  ****    0 ROOT
