@<TRIPOS>MOLECULE
CFX
   46    48     1     0     0
SMALL
bcc


@<TRIPOS>ATOM
      1 C4          0.4880    0.5090    0.7470 c         1 CFX      0.714500
      2 O5         -0.3140    0.9020   -0.0630 o         1 CFX     -0.415500
      3 N1          1.9050    0.7350    1.0240 n         1 CFX     -0.260000
      4 C2          1.7920    0.2540    2.4300 cy        1 CFX      0.040800
      5 S8          3.0680   -0.7850    3.0550 ss        1 CFX     -0.269200
      6 C9          4.4350   -0.1930    2.0550 c3        1 CFX      0.053900
      7 C10         4.0710   -0.2900    0.6280 c2        1 CFX     -0.185400
      8 C11         2.8210    0.0390    0.2010 ce        1 CFX     -0.087600
      9 C15         5.0920   -0.8500   -0.2990 c3        1 CFX      0.219600
     10 C12         2.2490   -0.5730   -1.0870 c         1 CFX      0.962800
     11 O13         1.2050   -1.2610   -0.9030 o         1 CFX     -0.818800
     12 O14         2.8460   -0.4320   -2.1840 o         1 CFX     -0.818800
     13 C3          0.3470   -0.3110    2.1070 cy        1 CFX      0.216000
     14 O16        -0.7080    0.1340    2.8870 os        1 CFX     -0.362600
     15 C17        -0.5970   -0.0880    4.2980 c3        1 CFX      0.089700
     16 N18         0.3030   -1.7940    1.8370 n4        1 CFX     -0.714800
     17 C19        -1.1090   -2.3440    1.8200 c         1 CFX      0.574100
     18 O21        -1.5500   -2.6960    2.9020 o         1 CFX     -0.439100
     19 C20        -1.7700   -2.4190    0.4620 c3        1 CFX     -0.043100
     20 C23        -1.4880   -3.7160   -0.1650 cc        1 CFX     -0.223400
     21 S24        -2.4280   -5.0930    0.0440 ss        1 CFX      0.088200
     22 C25        -1.5240   -6.0070   -1.0050 cc        1 CFX     -0.146100
     23 C26        -0.4830   -5.2850   -1.5570 cd        1 CFX     -0.163000
     24 C27        -0.4630   -3.9450   -1.0740 cd        1 CFX     -0.116000
     25 O30         5.3610    0.1530   -1.3270 os        1 CFX     -0.406900
     26 C31         5.1950   -0.2580   -2.6050 c         1 CFX      0.672100
     27 O32         5.4520   -1.3640   -3.0510 o         1 CFX     -0.417000
     28 N33         4.7710    0.8740   -3.4860 n4        1 CFX     -0.718400
     29 HC2         1.6810    1.1480    3.1040 h2        1 CFX      0.142700
     30 HC91        5.3010   -0.8480    2.3240 h1        1 CFX      0.107700
     31 HC92        4.6800    0.8590    2.3500 h1        1 CFX      0.107700
     32 H151        6.0880   -0.9910    0.2030 h1        1 CFX      0.096200
     33 H152        4.7430   -1.8050   -0.7770 h1        1 CFX      0.096200
     34 H171       -0.6920   -1.1790    4.5210 h1        1 CFX      0.071700
     35 H172       -1.4740    0.4790    4.7080 h1        1 CFX      0.071700
     36 H173        0.3620    0.3240    4.6920 h1        1 CFX      0.071700
     37 H18         0.7310   -1.9600    0.8970 hn        1 CFX      0.481800
     38 H201       -1.4070   -1.5770   -0.1990 hc        1 CFX      0.119700
     39 H202       -2.8740   -2.2760    0.6350 hc        1 CFX      0.119700
     40 H25        -1.7480   -7.0520   -1.2240 h4        1 CFX      0.187000
     41 H26         0.2370   -5.6720   -2.2820 ha        1 CFX      0.169000
     42 H27         0.2610   -3.1900   -1.4090 ha        1 CFX      0.193000
     43 H331        4.9730    0.6420   -4.4610 hn        1 CFX      0.485800
     44 H332        5.2350    1.7400   -3.2090 hn        1 CFX      0.485800
     45 H182        0.8640   -2.2730    2.5520 hn        1 CFX      0.481800
     46 H333        3.7410    0.9710   -3.3520 hn        1 CFX      0.485800
@<TRIPOS>BOND
     1    1    2 2   
     2    1    3 1   
     3    1   13 1   
     4    3    4 1   
     5    3    8 1   
     6    4    5 1   
     7    4   13 1   
     8    4   29 1   
     9    5    6 1   
    10    6    7 1   
    11    6   30 1   
    12    6   31 1   
    13    7    8 2   
    14    7    9 1   
    15    8   10 1   
    16    9   25 1   
    17    9   32 1   
    18    9   33 1   
    19   10   11 1   
    20   10   12 1   
    21   13   14 1   
    22   13   16 1   
    23   14   15 1   
    24   15   34 1   
    25   15   35 1   
    26   15   36 1   
    27   16   17 1   
    28   16   37 1   
    29   16   45 1   
    30   17   18 2   
    31   17   19 1   
    32   19   20 1   
    33   19   38 1   
    34   19   39 1   
    35   20   21 1   
    36   20   24 2   
    37   21   22 1   
    38   22   23 2   
    39   22   40 1   
    40   23   24 1   
    41   23   41 1   
    42   24   42 1   
    43   25   26 1   
    44   26   27 2   
    45   26   28 1   
    46   28   43 1   
    47   28   44 1   
    48   28   46 1   
@<TRIPOS>SUBSTRUCTURE
     1 CFX         1 TEMP              0 ****  ****    0 ROOT
