@<TRIPOS>MOLECULE
CFX
   46    48     1     0     0
SMALL
bcc


@<TRIPOS>ATOM
      1 C4          0.4870    0.5300    0.6330 c         1 CFX      0.714500
      2 O5         -0.2760    0.8970   -0.2260 o         1 CFX     -0.415500
      3 N1          1.8930    0.7560    0.9610 n         1 CFX     -0.260000
      4 C2          1.7160    0.3300    2.3790 cy        1 CFX      0.040800
      5 S8          2.9540   -0.6940    3.0970 ss        1 CFX     -0.269200
      6 C9          4.3680   -0.1510    2.1350 c3        1 CFX      0.053900
      7 C10         4.0640   -0.3010    0.6990 c2        1 CFX     -0.185400
      8 C11         2.8360    0.0210    0.2060 ce        1 CFX     -0.087600
      9 C15         5.1180   -0.9050   -0.1610 c3        1 CFX      0.219600
     10 C12         2.3150   -0.6370   -1.0810 c         1 CFX      0.962800
     11 O13         1.2570   -1.3090   -0.9160 o         1 CFX     -0.818800
     12 O14         2.9590   -0.5420   -2.1560 o         1 CFX     -0.818800
     13 C3          0.2810   -0.2360    2.0150 cy        1 CFX      0.216000
     14 O16        -0.8030    0.2470    2.7320 os        1 CFX     -0.362600
     15 C17        -0.7540    0.0790    4.1540 c3        1 CFX      0.089700
     16 N18         0.2340   -1.7280    1.8020 ny        1 CFX     -0.714800
     17 C19        -1.1810   -2.2670    1.7450 c         1 CFX      0.574100
     18 O21        -1.6720   -2.5740    2.8200 o         1 CFX     -0.439100
     19 C20        -1.7840   -2.3900    0.3640 c3        1 CFX     -0.043100
     20 C23        -1.4870   -3.7120   -0.2000 cc        1 CFX     -0.223400
     21 S24        -2.4480   -5.0720    0.0210 ss        1 CFX      0.088200
     22 C25        -1.5090   -6.0330   -0.9530 cc        1 CFX     -0.146100
     23 C26        -0.4390   -5.3410   -1.4870 cd        1 CFX     -0.163000
     24 C27        -0.4270   -3.9840   -1.0560 cd        1 CFX     -0.116000
     25 O30         5.4400    0.0560   -1.2150 os        1 CFX     -0.406900
     26 C31         5.3260   -0.4040   -2.4820 c         1 CFX      0.672100
     27 O32         5.5900   -1.5280   -2.8740 o         1 CFX     -0.417000
     28 N33         4.9490    0.6970   -3.4230 nz        1 CFX     -0.718400
     29 HC2         1.5850    1.2500    3.0130 h2        1 CFX      0.142700
     30 HC91        5.2160   -0.8030    2.4660 h1        1 CFX      0.107700
     31 HC92        4.6100    0.9080    2.4000 h1        1 CFX      0.107700
     32 H151        4.7810   -1.8750   -0.6170 h1        1 CFX      0.096200
     33 H152        6.0900   -1.0340    0.3870 h1        1 CFX      0.096200
     34 H171       -1.6420    0.6680    4.5050 h1        1 CFX      0.071700
     35 H172       -0.8690   -1.0020    4.4150 h1        1 CFX      0.071700
     36 H173        0.1920    0.4990    4.5720 h1        1 CFX      0.071700
     37 H18         0.7000   -1.9330    0.8880 hn        1 CFX      0.481800
     38 H201       -1.3860   -1.5770   -0.3130 hc        1 CFX      0.119700
     39 H202       -2.8940   -2.2320    0.4840 hc        1 CFX      0.119700
     40 H25        -1.7330   -7.0850   -1.1410 h4        1 CFX      0.187000
     41 H26         0.3070   -5.7620   -2.1650 ha        1 CFX      0.169000
     42 H27         0.3170   -3.2480   -1.3870 ha        1 CFX      0.193000
     43 H331        3.9160    0.8070   -3.3380 hn        1 CFX      0.485800
     44 H332        5.1910    0.4250   -4.3800 hn        1 CFX      0.485800
     45 H182        0.7590   -2.1830    2.5580 hn        1 CFX      0.481800
     46 H333        5.4100    1.5700   -3.1600 hn        1 CFX      0.485800
@<TRIPOS>BOND
     1    1    2 2   
     2    1    3 1   
     3    1   13 1   
     4    3    4 1   
     5    3    8 1   
     6    4    5 1   
     7    4   13 1   
     8    4   29 1   
     9    5    6 1   
    10    6    7 1   
    11    6   30 1   
    12    6   31 1   
    13    7    8 2   
    14    7    9 1   
    15    8   10 1   
    16    9   25 1   
    17    9   32 1   
    18    9   33 1   
    19   10   11 1   
    20   10   12 1   
    21   13   14 1   
    22   13   16 1   
    23   14   15 1   
    24   15   34 1   
    25   15   35 1   
    26   15   36 1   
    27   16   17 1   
    28   16   37 1   
    29   16   45 1   
    30   17   18 2   
    31   17   19 1   
    32   19   20 1   
    33   19   38 1   
    34   19   39 1   
    35   20   21 1   
    36   20   24 2   
    37   21   22 1   
    38   22   23 2   
    39   22   40 1   
    40   23   24 1   
    41   23   41 1   
    42   24   42 1   
    43   25   26 1   
    44   26   27 2   
    45   26   28 1   
    46   28   43 1   
    47   28   44 1   
    48   28   46 1   
@<TRIPOS>SUBSTRUCTURE
     1 CFX         1 TEMP              0 ****  ****    0 ROOT
