@<TRIPOS>MOLECULE
CFX
   44    46     1     0     0
SMALL
bcc


@<TRIPOS>ATOM
      1 C4          3.8890   -1.2630   -0.1870 c         1 CFX      0.707500
      2 O5          3.3810   -2.3490   -0.0030 o         1 CFX     -0.482500
      3 N1          3.5110    0.0970    0.0550 n         1 CFX     -0.321000
      4 C2          4.8220    0.6680   -0.2850 cy        1 CFX      0.090800
      5 S8          4.8640    1.9430   -1.5150 ss        1 CFX     -0.359200
      6 C9          3.4100    2.8450   -1.0060 c3        1 CFX      0.084900
      7 C10         2.2370    1.9840   -0.7630 c2        1 CFX     -0.289400
      8 C11         2.3080    0.7010   -0.3080 ce        1 CFX     -0.004600
      9 C15         0.9230    2.6060   -1.0960 c3        1 CFX      0.191600
     10 C12         1.0120   -0.1550   -0.1930 c         1 CFX      0.928800
     11 O13         0.8350   -1.0240   -1.0760 o         1 CFX     -0.792300
     12 O14         0.2300    0.1400    0.7500 o         1 CFX     -0.792300
     13 C3          5.3390   -0.7900   -0.6650 cy        1 CFX      0.222200
     14 O16         6.2820   -1.2840    0.2560 os        1 CFX     -0.374600
     15 C17         7.6130   -0.8160    0.0810 c3        1 CFX      0.116700
     16 N18         5.6290   -0.9700   -2.0560 n         1 CFX     -0.565900
     17 C19         6.1480   -2.1230   -2.6190 c         1 CFX      0.662100
     18 O21         6.8090   -2.9570   -1.9720 o         1 CFX     -0.593100
     19 C20         5.9650   -2.3090   -4.1230 c3        1 CFX     -0.073100
     20 C23         4.6820   -1.8220   -4.6470 cc        1 CFX     -0.176400
     21 S24         3.2030   -2.5580   -4.3620 ss        1 CFX      0.117200
     22 C25         2.3460   -1.4590   -5.2600 cc        1 CFX     -0.165100
     23 C26         3.1660   -0.4900   -5.8080 cd        1 CFX     -0.170000
     24 C27         4.5290   -0.7000   -5.4490 cd        1 CFX     -0.152000
     25 O30         0.7480    3.8930   -0.4910 os        1 CFX     -0.426900
     26 C31         0.4890    3.9850    0.8630 c         1 CFX      0.730100
     27 O32         0.2020    5.1530    1.2010 o         1 CFX     -0.611000
     28 N33         0.6170    2.9170    1.7100 n         1 CFX     -0.661000
     29 HC2         5.3320    1.0360    0.6400 h2        1 CFX      0.099700
     30 HC91        3.2100    3.5680   -1.8370 h1        1 CFX      0.075700
     31 HC92        3.6590    3.4330   -0.0870 h1        1 CFX      0.075700
     32 H151        0.0590    1.9370   -0.8370 h1        1 CFX      0.072200
     33 H152        0.8860    2.8590   -2.1940 h1        1 CFX      0.072200
     34 H171        8.0860   -1.3220   -0.7960 h1        1 CFX      0.040367
     35 H172        8.1250   -1.1200    1.0290 h1        1 CFX      0.040367
     36 H173        7.6350    0.2940   -0.0420 h1        1 CFX      0.040367
     37 H18         5.1140   -0.3540   -2.6570 hn        1 CFX      0.343500
     38 H201        6.0830   -3.4080   -4.3300 hc        1 CFX      0.076200
     39 H202        6.8160   -1.7760   -4.6300 hc        1 CFX      0.076200
     40 H25         1.2620   -1.4960   -5.3600 h4        1 CFX      0.178000
     41 H26         2.8290    0.3440   -6.4250 ha        1 CFX      0.148000
     42 H27         5.3420   -0.0460   -5.7680 ha        1 CFX      0.145000
     43 H331        0.6990    1.9840    1.3520 hn        1 CFX      0.336500
     44 H332        0.2490    3.0300    2.6210 hn        1 CFX      0.336500
@<TRIPOS>BOND
     1    1    2 2   
     2    1    3 1   
     3    1   13 1   
     4    3    4 1   
     5    3    8 1   
     6    4    5 1   
     7    4   13 1   
     8    4   29 1   
     9    5    6 1   
    10    6    7 1   
    11    6   30 1   
    12    6   31 1   
    13    7    8 2   
    14    7    9 1   
    15    8   10 1   
    16    9   25 1   
    17    9   32 1   
    18    9   33 1   
    19   10   11 1   
    20   10   12 1   
    21   13   14 1   
    22   13   16 1   
    23   14   15 1   
    24   15   34 1   
    25   15   35 1   
    26   15   36 1   
    27   16   17 1   
    28   16   37 1   
    29   17   18 2   
    30   17   19 1   
    31   19   20 1   
    32   19   38 1   
    33   19   39 1   
    34   20   21 1   
    35   20   24 2   
    36   21   22 1   
    37   22   23 2   
    38   22   40 1   
    39   23   24 1   
    40   23   41 1   
    41   24   42 1   
    42   25   26 1   
    43   26   27 2   
    44   26   28 1   
    45   28   43 1   
    46   28   44 1   
@<TRIPOS>SUBSTRUCTURE
     1 CFX         1 TEMP              0 ****  ****    0 ROOT
