@<TRIPOS>MOLECULE
CFX
   44    42     1     0     0
SMALL
bcc


@<TRIPOS>ATOM
      1 C4         -0.7640    0.5670   -0.6540 c1        1 CFX      0.309000
      2 O5         -1.6420    0.6370   -1.5680 o         1 CFX     -0.273000
      3 N1          0.8150    0.5150   -0.6270 n2        1 CFX     -0.222000
      4 C2          0.8020    0.5560    0.9030 c3        1 CFX     -0.098000
      5 S8          1.4080   -0.5720    1.5690 ss        1 CFX      0.085000
      6 C9          3.1750   -0.9060    1.1070 c3        1 CFX     -0.217000
      7 C10         3.3370   -0.9440   -0.3710 c2        1 CFX     -0.261000
      8 C11         2.2060    0.2120   -1.3170 c2        1 CFX      0.015000
      9 C15         4.8460   -1.3090   -1.0300 c3        1 CFX      0.033000
     10 C12         2.3110    0.2670   -2.7060 c2        1 CFX      0.378000
     11 O13         2.8120    1.1670   -3.2070 o         1 CFX     -0.528000
     12 O14         2.0220   -0.7000   -3.3610 o         1 CFX     -0.528000
     13 C3         -0.7920    0.4800    0.9330 c3        1 CFX      0.149000
     14 O16        -1.3290   -0.6350    1.4890 os        1 CFX     -0.242000
     15 C17        -1.7610   -1.6020    0.5470 c3        1 CFX     -0.085000
     16 N18        -0.7940    0.4830    0.9360 n         1 CFX     -0.379000
     17 C19        -2.5920    0.3000    1.5310 c2        1 CFX      0.315000
     18 O21        -3.1990   -0.7330    1.3250 o         1 CFX     -0.354000
     19 C20        -3.3450    1.6060    2.6340 c3        1 CFX     -0.123000
     20 C23        -4.8570    1.8430    2.2100 c2        1 CFX     -0.383000
     21 S24        -5.8420    0.7310    1.8600 ss        1 CFX      0.573000
     22 C25        -7.0670    1.3840    1.1480 c1        1 CFX     -0.448000
     23 C26        -6.8330    2.8060    1.0750 c1        1 CFX     -0.153000
     24 C27        -5.4360    3.1140    1.7460 c1        1 CFX     -0.161000
     25 O30         4.6830   -1.8490   -2.2630 os        1 CFX     -0.264000
     26 C31         5.8210   -2.4550   -2.7670 c2        1 CFX      0.386000
     27 O32         6.4000   -3.3240   -2.1010 o         1 CFX     -0.423000
     28 N33         6.2210   -2.2140   -4.1470 n         1 CFX     -0.421000
     29 HC2         1.1220    1.4140    1.2480 h2        1 CFX      0.151000
     30 HC91        3.8040   -0.3200    1.7010 h1        1 CFX      0.116000
     31 HC92        3.4450   -1.7990    1.3960 h1        1 CFX      0.116000
     32 H151        5.3380   -1.9730   -0.4320 h1        1 CFX      0.111500
     33 H152        5.4330   -0.3940   -1.1140 h1        1 CFX      0.111500
     34 H171       -2.3390   -1.1360   -0.2140 h1        1 CFX      0.080667
     35 H172       -0.9530   -2.0500    0.1250 h1        1 CFX      0.080667
     36 H173       -2.3550   -2.3300    1.0510 h1        1 CFX      0.080667
     37 H18        -0.2990    1.4380    1.0440 hn        1 CFX      0.238000
     38 H201       -3.3130    1.2910    3.5800 hc        1 CFX      0.123000
     39 H202       -2.8370    2.4540    2.5480 hc        1 CFX      0.123000
     40 H25        -7.8510    0.9130    0.8130 DU        1 CFX      0.161333
     41 H26        -7.4420    3.4750    0.6770 DU        1 CFX      0.161333
     42 H27        -5.0510    3.9500    1.8290 DU        1 CFX      0.161333
     43 H331        6.8720   -2.7440   -4.5390 hn        1 CFX      0.251500
     44 H332        5.8200   -1.6190   -4.6060 hn        1 CFX      0.251500
@<TRIPOS>BOND
     1    1    2 1   
     2    1   13 1   
     3    3    4 1   
     4    3    8 1   
     5    4    5 1   
     6    4   13 1   
     7    4   29 1   
     8    5    6 1   
     9    6    7 1   
    10    6   30 1   
    11    6   31 1   
    12    7    8 1   
    13    7    9 1   
    14    8   10 1   
    15    9   25 1   
    16    9   32 1   
    17    9   33 1   
    18   10   11 1   
    19   10   12 1   
    20   13   14 1   
    21   13   16 1   
    22   14   15 1   
    23   15   34 1   
    24   15   35 1   
    25   15   36 1   
    26   16   17 1   
    27   16   37 1   
    28   17   18 1   
    29   17   19 1   
    30   19   20 1   
    31   19   38 1   
    32   19   39 1   
    33   20   21 1   
    34   20   24 1   
    35   21   22 1   
    36   22   23 1   
    37   23   24 1   
    38   25   26 1   
    39   26   27 1   
    40   26   28 1   
    41   28   43 1   
    42   28   44 1   
@<TRIPOS>SUBSTRUCTURE
     1 CFX         1 TEMP              0 ****  ****    0 ROOT
