@<TRIPOS>MOLECULE
CFX
   46    48     1     0     0
SMALL
bcc


@<TRIPOS>ATOM
      1 C4          0.4590    0.4980    0.7190 c         1 CFX      0.714500
      2 O5         -0.3340    0.8780   -0.1060 o         1 CFX     -0.415500
      3 N1          1.8680    0.7420    1.0190 n         1 CFX     -0.260000
      4 C2          1.7360    0.2660    2.4260 cy        1 CFX      0.040800
      5 S8          3.0130   -0.7550    3.0780 ss        1 CFX     -0.269200
      6 C9          4.3900   -0.1520    2.0990 c3        1 CFX      0.053900
      7 C10         4.0520   -0.2600    0.6660 c2        1 CFX     -0.185400
      8 C11         2.8060    0.0520    0.2160 ce        1 CFX     -0.087600
      9 C15         5.0950   -0.8130   -0.2400 c3        1 CFX      0.219600
     10 C12         2.2640   -0.5730   -1.0790 c         1 CFX      0.962800
     11 O13         1.2240   -1.2720   -0.9090 o         1 CFX     -0.818800
     12 O14         2.8770   -0.4300   -2.1660 o         1 CFX     -0.818800
     13 C3          0.3030   -0.3170    2.0800 cy        1 CFX      0.216000
     14 O16        -0.7700    0.1200    2.8410 os        1 CFX     -0.362600
     15 C17        -0.6810   -0.0950    4.2540 c3        1 CFX      0.089700
     16 N18         0.2810   -1.8020    1.8180 n4        1 CFX     -0.714800
     17 C19        -1.1240   -2.3680    1.7780 c         1 CFX      0.574100
     18 O21        -1.5810   -2.7200    2.8540 o         1 CFX     -0.439100
     19 C20        -1.7600   -2.4570    0.4100 c3        1 CFX     -0.043100
     20 C23        -1.4520   -3.7530   -0.2060 cc        1 CFX     -0.223400
     21 S24        -2.3800   -5.1400   -0.0060 ss        1 CFX      0.088200
     22 C25        -1.4470   -6.0490   -1.0340 cc        1 CFX     -0.146100
     23 C26        -0.4050   -5.3180   -1.5720 cd        1 CFX     -0.163000
     24 C27        -0.4090   -3.9760   -1.0960 cd        1 CFX     -0.116000
     25 O30         5.3700    0.1890   -1.2690 os        1 CFX     -0.406900
     26 C31         5.2320   -0.2310   -2.5480 c         1 CFX      0.672100
     27 O32         5.5090   -1.3360   -2.9830 o         1 CFX     -0.417000
     28 N33         4.8090    0.8920   -3.4410 n4        1 CFX     -0.718400
     29 HC2         1.6040    1.1620    3.0940 h2        1 CFX      0.142700
     30 HC91        4.6190    0.9030    2.3930 h1        1 CFX      0.107700
     31 HC92        5.2590   -0.7960    2.3860 h1        1 CFX      0.107700
     32 H151        6.0840   -0.9400    0.2790 h1        1 CFX      0.096200
     33 H152        4.7660   -1.7740   -0.7200 h1        1 CFX      0.096200
     34 H171       -0.7670   -1.1850    4.4810 h1        1 CFX      0.071700
     35 H172       -1.5700    0.4640    4.6460 h1        1 CFX      0.071700
     36 H173        0.2670    0.3300    4.6620 h1        1 CFX      0.071700
     37 H18         0.8340   -2.2710    2.5450 hn        1 CFX      0.481800
     38 H201       -1.3960   -1.6150   -0.2500 hc        1 CFX      0.120200
     39 H202       -2.8690   -2.3260    0.5620 hc        1 CFX      0.120200
     40 H25        -1.6550   -7.0980   -1.2520 h4        1 CFX      0.187000
     41 H26         0.3320   -5.7010   -2.2820 ha        1 CFX      0.169000
     42 H27         0.3120   -3.2140   -1.4210 ha        1 CFX      0.193000
     43 H331        3.7770    0.9780   -3.3260 hn        1 CFX      0.485800
     44 H332        5.0310    0.6580   -4.4120 hn        1 CFX      0.485800
     45 H182        0.7270   -1.9670    0.8860 hn        1 CFX      0.481800
     46 H333        5.2580    1.7660   -3.1600 hn        1 CFX      0.485800
@<TRIPOS>BOND
     1    1    2 2   
     2    1    3 1   
     3    1   13 1   
     4    3    4 1   
     5    3    8 1   
     6    4    5 1   
     7    4   13 1   
     8    4   29 1   
     9    5    6 1   
    10    6    7 1   
    11    6   30 1   
    12    6   31 1   
    13    7    8 2   
    14    7    9 1   
    15    8   10 1   
    16    9   25 1   
    17    9   32 1   
    18    9   33 1   
    19   10   11 1   
    20   10   12 1   
    21   13   14 1   
    22   13   16 1   
    23   14   15 1   
    24   15   34 1   
    25   15   35 1   
    26   15   36 1   
    27   16   17 1   
    28   16   37 1   
    29   16   45 1   
    30   17   18 2   
    31   17   19 1   
    32   19   20 1   
    33   19   38 1   
    34   19   39 1   
    35   20   21 1   
    36   20   24 2   
    37   21   22 1   
    38   22   23 2   
    39   22   40 1   
    40   23   24 1   
    41   23   41 1   
    42   24   42 1   
    43   25   26 1   
    44   26   27 2   
    45   26   28 1   
    46   28   43 1   
    47   28   44 1   
    48   28   46 1   
@<TRIPOS>SUBSTRUCTURE
     1 CFX         1 TEMP              0 ****  ****    0 ROOT
