@<TRIPOS>MOLECULE
CFY
   54    57     1     0     0
SMALL
bcc


@<TRIPOS>ATOM
      1 N           2.9380   -1.5180    0.9340 n3        1 CFY     -0.907800
      2 CA1         3.4980   -0.4020    0.2120 c3        1 CFY      0.207500
      3 C1          2.4540    0.4020   -0.6340 c3        1 CFY      0.480100
      4 O1          3.1220    1.5030   -1.1770 oh        1 CFY     -0.582800
      5 CB1         4.6330   -0.8220   -0.7400 c3        1 CFY     -0.043100
      6 CG1         5.8030   -1.3750   -0.0080 ca        1 CFY     -0.052300
      7 CD1         6.8780   -0.5430    0.3320 ca        1 CFY     -0.118000
      8 CE1         7.9860   -1.0620    1.0000 ca        1 CFY     -0.138500
      9 CZ1         8.0320   -2.4140    1.3360 ca        1 CFY     -0.144000
     10 CE2         6.9640   -3.2470    1.0040 ca        1 CFY     -0.138500
     11 CD2         5.8550   -2.7310    0.3350 ca        1 CFY     -0.118000
     12 N2          1.2470    0.7790    0.0980 n2        1 CFY     -0.611900
     13 CA2         0.1520    0.5680   -0.5610 ce        1 CFY      0.490000
     14 C2         -1.1760    1.0080   -0.0650 cc        1 CFY      0.457600
     15 CB2         0.1590   -0.1640   -1.8810 c3        1 CFY     -0.057600
     16 SG          1.8220   -0.7730   -2.0420 ss        1 CFY     -0.531200
     17 N3         -2.2130    0.1720    0.0890 nd        1 CFY     -0.638300
     18 CA3        -3.3050    0.9720    0.5340 cd        1 CFY      0.020400
     19 C3         -2.8130    2.4150    0.6440 c         1 CFY      0.663700
     20 O3         -3.4420    3.4120    1.0090 o         1 CFY     -0.594500
     21 CB3        -4.5770    0.6330    0.8190 ce        1 CFY     -0.042200
     22 CG2        -5.1860   -0.6790    0.7600 ca        1 CFY     -0.081800
     23 CD3        -6.5780   -0.7540    0.5730 ca        1 CFY     -0.070500
     24 CD4        -4.4550   -1.8690    0.9000 ca        1 CFY     -0.070500
     25 CE3        -7.2270   -1.9820    0.5130 ca        1 CFY     -0.195000
     26 CE4        -5.0900   -3.1070    0.8470 ca        1 CFY     -0.195000
     27 CZ2        -6.4780   -3.1590    0.6500 ca        1 CFY      0.120100
     28 OH         -7.0520   -4.4110    0.6070 oh        1 CFY     -0.503100
     29 N4         -1.4420    2.3540    0.2770 n         1 CFY     -0.365300
     30 CA4        -0.5910    3.4950    0.0860 c3        1 CFY     -0.040000
     31 C           0.0430    3.6760   -1.3230 c         1 CFY      0.914600
     32 O           0.4760    2.6520   -1.9340 o         1 CFY     -0.828800
     33 OXT         0.1300    4.8530   -1.7480 o         1 CFY     -0.828800
     34 HN1         2.2860   -1.2010    1.6250 hn        1 CFY      0.358800
     35 HN2         2.4750   -2.1470    0.3050 hn        1 CFY      0.358800
     36 HA1         3.9210    0.3260    0.9680 h1        1 CFY      0.082700
     37 HO1         2.4740    2.0820   -1.6330 ho        1 CFY      0.479000
     38 HB11        4.2440   -1.5780   -1.4760 hc        1 CFY      0.072700
     39 HB12        4.9410    0.0890   -1.3220 hc        1 CFY      0.072700
     40 HD1         6.8420    0.5250    0.0700 ha        1 CFY      0.136000
     41 HE1         8.8240   -0.4010    1.2630 ha        1 CFY      0.120500
     42 HZ1         8.9060   -2.8220    1.8620 ha        1 CFY      0.118000
     43 HE2         6.9940   -4.3120    1.2730 ha        1 CFY      0.120500
     44 HD2         5.0050   -3.3850    0.0870 ha        1 CFY      0.136000
     45 HB21       -0.5670   -1.0080   -1.8840 h1        1 CFY      0.114200
     46 HB22       -0.0830    0.5580   -2.7040 h1        1 CFY      0.114200
     47 HB31       -5.2540    1.4580    1.1180 ha        1 CFY      0.142000
     48 HD3        -7.1620    0.1730    0.4660 ha        1 CFY      0.150000
     49 HD4        -3.3660   -1.8360    1.0580 ha        1 CFY      0.150000
     50 HE3        -8.3130   -2.0300    0.3580 ha        1 CFY      0.137000
     51 HE4        -4.5200   -4.0400    0.9530 ha        1 CFY      0.137000
     52 HOH        -7.9980   -4.2950    0.4390 ho        1 CFY      0.413000
     53 HA41       -1.2040    4.4110    0.3180 h1        1 CFY      0.065700
     54 HA42        0.2600    3.4270    0.8220 h1        1 CFY      0.065700
@<TRIPOS>BOND
     1    1    2 1   
     2    1   34 1   
     3    1   35 1   
     4    2    3 1   
     5    2    5 1   
     6    2   36 1   
     7    3    4 1   
     8    3   12 1   
     9    3   16 1   
    10    4   37 1   
    11    5    6 1   
    12    5   38 1   
    13    5   39 1   
    14    6    7 ar  
    15    6   11 ar  
    16    7    8 ar  
    17    7   40 1   
    18    8    9 ar  
    19    8   41 1   
    20    9   10 ar  
    21    9   42 1   
    22   10   11 ar  
    23   10   43 1   
    24   11   44 1   
    25   12   13 2   
    26   13   14 1   
    27   13   15 1   
    28   14   17 2   
    29   14   29 1   
    30   15   16 1   
    31   15   45 1   
    32   15   46 1   
    33   17   18 1   
    34   18   19 1   
    35   18   21 2   
    36   19   20 2   
    37   19   29 1   
    38   21   22 1   
    39   21   47 1   
    40   22   23 ar  
    41   22   24 ar  
    42   23   25 ar  
    43   23   48 1   
    44   24   26 ar  
    45   24   49 1   
    46   25   27 ar  
    47   25   50 1   
    48   26   27 ar  
    49   26   51 1   
    50   27   28 1   
    51   28   52 1   
    52   29   30 1   
    53   30   31 1   
    54   30   53 1   
    55   30   54 1   
    56   31   32 1   
    57   31   33 1   
@<TRIPOS>SUBSTRUCTURE
     1 CFY         1 TEMP              0 ****  ****    0 ROOT
