@<TRIPOS>MOLECULE
CFY
   54    47     1     0     0
SMALL
bcc


@<TRIPOS>ATOM
      1 N          -1.1940    1.5470    2.7740 n3        1 CFY     -0.343000
      2 CA1        -0.2290    0.9050    3.5680 c3        1 CFY      0.010000
      3 C1          0.2730   -0.3670    2.8450 c3        1 CFY      0.088000
      4 O1          1.2620   -0.7420    3.7790 oh        1 CFY     -0.307000
      5 CB1        -0.8440    0.5190    4.8990 c3        1 CFY     -0.129000
      6 CG1        -0.7150    1.7090    5.8960 c1        1 CFY     -0.045000
      7 CD1         0.2850    1.6960    6.8700 c1        1 CFY     -0.134333
      8 CE1         0.3650    2.7310    7.8010 c1        1 CFY     -0.134333
      9 CZ1        -0.5500    3.7750    7.7590 c1        1 CFY     -0.134333
     10 CE2        -1.5480    3.7890    6.7870 c1        1 CFY     -0.134333
     11 CD2        -1.6290    2.7520    5.8540 c1        1 CFY     -0.107000
     12 N2          0.7280   -0.1720    1.5440 n2        1 CFY     -0.171000
     13 CA2        -0.2390   -0.6650    0.4100 c1        1 CFY      0.079000
     14 C2          0.1340   -0.4460   -1.0640 c2        1 CFY      0.152000
     15 CB2        -1.0780   -1.7200    0.7640 c2        1 CFY     -0.268000
     16 SG         -0.9960   -1.6200    2.5140 ss        1 CFY     -0.149000
     17 N3         -0.7930   -0.0810   -1.9360 n1        1 CFY     -0.199000
     18 CA3        -0.5230   -0.4590   -3.2190 c1        1 CFY     -0.102000
     19 C3          0.8580   -1.2270   -3.1230 c2        1 CFY      0.314000
     20 O3          1.6340   -1.4170   -4.0340 o         1 CFY     -0.324000
     21 CB3        -1.2830   -0.2240   -4.3460 c1        1 CFY     -0.043000
     22 CG2        -0.8040   -0.7370   -5.7210 c1        1 CFY     -0.004000
     23 CD3        -0.3370    0.1590   -6.6670 c1        1 CFY     -0.134333
     24 CD4        -0.9630   -2.0710   -6.0530 c1        1 CFY     -0.130500
     25 CE3        -0.0290   -0.2800   -7.9470 c1        1 CFY     -0.134333
     26 CE4        -0.6560   -2.5110   -7.3330 c1        1 CFY     -0.130500
     27 CZ2        -0.1890   -1.6140   -8.2780 c1        1 CFY     -0.004000
     28 OH          0.0350   -2.0400   -9.5980 o         1 CFY     -0.260000
     29 N4          1.2130   -1.1600   -1.6350 n         1 CFY     -0.251000
     30 CA4         2.5410   -1.3000   -1.0660 c3        1 CFY     -0.109000
     31 C           3.5860   -1.1530   -2.1700 c2        1 CFY      0.317000
     32 O           4.0400   -0.0190   -2.4550 o         1 CFY     -0.561000
     33 OXT         4.0480   -2.1820   -2.7460 o         1 CFY     -0.561000
     34 HN1        -0.7760    2.0190    2.1070 hn        1 CFY      0.155500
     35 HN2        -1.7470    0.9250    2.4060 hn        1 CFY      0.155500
     36 HA1         0.5230    1.5110    3.7210 h1        1 CFY      0.122000
     37 HO1         1.7070   -1.4570    3.4720 ho        1 CFY      0.285000
     38 HB11       -1.7930    0.3020    4.7700 hc        1 CFY      0.112500
     39 HB12       -0.3760   -0.2620    5.2600 hc        1 CFY      0.112500
     40 HD1         0.8810    0.9210    6.9490 ha        1 CFY      0.127833
     41 HE1         1.0710    2.7220    8.4890 ha        1 CFY      0.127833
     42 HZ1        -0.4940    4.5040    8.4160 ha        1 CFY      0.127833
     43 HE2        -2.1940    4.5270    6.7580 ha        1 CFY      0.127833
     44 HD2        -2.2890    2.7950    5.1310 ha        1 CFY      0.138000
     45 HB21       -0.8970   -2.5770    0.3320 h4        1 CFY      0.168500
     46 HB22       -2.0000   -1.5470    0.4720 h4        1 CFY      0.168500
     47 HB31       -2.1260    0.2680   -4.2740 ha        1 CFY      0.139000
     48 HD3        -0.2240    1.0950   -6.4350 ha        1 CFY      0.127833
     49 HD4        -1.2910   -2.7010   -5.3880 ha        1 CFY      0.150500
     50 HE3         0.3010    0.3540   -8.6160 ha        1 CFY      0.127833
     51 HE4        -0.7690   -3.4540   -7.5670 ha        1 CFY      0.150500
     52 HOH         0.7810   -2.5200   -9.6320 ho        1 CFY      0.215000
     53 HA41        2.6270   -2.1880   -0.6490 h1        1 CFY      0.102000
     54 HA42        2.6810   -0.6100   -0.3930 h1        1 CFY      0.102000
@<TRIPOS>BOND
     1    1    2 1   
     2    1   34 1   
     3    1   35 1   
     4    2    3 1   
     5    2    5 1   
     6    2   36 1   
     7    3    4 1   
     8    3   12 1   
     9    3   16 1   
    10    4   37 1   
    11    5    6 1   
    12    5   38 1   
    13    5   39 1   
    14    6   11 1   
    15    7    8 1   
    16    7   40 1   
    17    8   41 1   
    18    9   10 1   
    19    9   42 1   
    20   10   43 1   
    21   11   44 1   
    22   12   13 1   
    23   13   14 1   
    24   14   17 1   
    25   14   29 1   
    26   15   16 1   
    27   15   45 1   
    28   15   46 1   
    29   18   19 1   
    30   18   21 1   
    31   19   20 1   
    32   19   29 1   
    33   21   47 1   
    34   22   24 1   
    35   23   25 1   
    36   23   48 1   
    37   24   49 1   
    38   25   50 1   
    39   26   27 1   
    40   26   51 1   
    41   28   52 1   
    42   29   30 1   
    43   30   31 1   
    44   30   53 1   
    45   30   54 1   
    46   31   32 1   
    47   31   33 1   
@<TRIPOS>SUBSTRUCTURE
     1 CFY         1 TEMP              0 ****  ****    0 ROOT
