@<TRIPOS>MOLECULE
CFZ
   32    33     1     0     0
SMALL
bcc


@<TRIPOS>ATOM
      1 P           2.5970    0.9170    0.0210 p5        1 CFZ      1.340900
      2 N1         -2.4240   -0.5430   -0.0200 n         1 CFZ     -0.372000
      3 C2         -3.8640   -0.5330   -0.0160 c         1 CFZ      0.821900
      4 O2         -4.4760   -1.6190    0.1420 o         1 CFZ     -0.685500
      5 N3         -4.5740    0.6580   -0.2210 nc        1 CFZ     -0.764100
      6 C4         -3.8740    1.8000   -0.3770 cd        1 CFZ      0.708500
      7 N4         -4.5620    3.0190   -0.4900 nh        1 CFZ     -0.898800
      8 C5         -2.4330    1.8240   -0.3920 cd        1 CFZ     -0.457600
      9 C6         -1.7500    0.6360   -0.2030 cc        1 CFZ      0.083600
     10 C1'        -1.7180   -1.8040    0.2300 c3        1 CFZ      0.260500
     11 O1P         3.5780    1.9400    0.4870 o         1 CFZ     -0.924500
     12 C2'        -0.7430   -2.2000   -0.9400 c3        1 CFZ      0.129600
     13 F2'        -0.8690   -3.5480   -1.2160 f         1 CFZ     -0.245300
     14 O2P         1.1830    1.3800   -0.2790 o         1 CFZ     -0.924500
     15 C3'         0.6410   -1.7820   -0.3930 c3        1 CFZ      0.090100
     16 O3'         1.6340   -2.7060   -0.7550 oh        1 CFZ     -0.637800
     17 O3P         3.0230   -0.1610   -0.9470 o         1 CFZ     -0.924500
     18 C4'         0.4720   -1.6830    1.1340 c3        1 CFZ      0.063100
     19 O4'        -0.9460   -1.7450    1.4240 os        1 CFZ     -0.432600
     20 C5'         1.0350   -0.3790    1.7550 c3        1 CFZ      0.225400
     21 O5'         2.3240   -0.1180    1.3860 os        1 CFZ     -0.568200
     22 HN4        -5.5210    2.9600   -0.7470 hn        1 CFZ      0.391300
     23 HN4A       -4.0500    3.7170   -0.9790 hn        1 CFZ      0.391300
     24 H5         -1.8600    2.7480   -0.5250 ha        1 CFZ      0.171000
     25 H6         -0.6070    0.6460   -0.2150 h4        1 CFZ      0.305000
     26 H1'        -2.4960   -2.6050    0.4050 h2        1 CFZ      0.106700
     27 H2'        -0.9700   -1.6330   -1.8830 h1        1 CFZ      0.060700
     28 H3'         0.9150   -0.7490   -0.7980 h1        1 CFZ      0.155700
     29 HO3'        2.4420   -2.1620   -0.8930 ho        1 CFZ      0.482000
     30 H4'         0.9210   -2.5800    1.6350 h1        1 CFZ      0.050700
     31 H5'         0.3500    0.4750    1.4930 h1        1 CFZ     -0.001800
     32 H5'A        1.0000   -0.5280    2.8750 h1        1 CFZ     -0.001800
@<TRIPOS>BOND
     1    1   11 1   
     2    1   14 1   
     3    1   17 1   
     4    1   21 1   
     5    2    3 1   
     6    2    9 1   
     7    2   10 1   
     8    3    4 2   
     9    3    5 1   
    10    5    6 2   
    11    6    7 1   
    12    6    8 1   
    13    7   22 1   
    14    7   23 1   
    15    8    9 2   
    16    8   24 1   
    17    9   25 1   
    18   10   12 1   
    19   10   19 1   
    20   10   26 1   
    21   12   13 1   
    22   12   15 1   
    23   12   27 1   
    24   15   16 1   
    25   15   18 1   
    26   15   28 1   
    27   16   29 1   
    28   18   19 1   
    29   18   20 1   
    30   18   30 1   
    31   20   21 1   
    32   20   31 1   
    33   20   32 1   
@<TRIPOS>SUBSTRUCTURE
     1 CFZ         1 TEMP              0 ****  ****    0 ROOT
