@<TRIPOS>MOLECULE
CG
   34    35     1     0     0
SMALL
bcc


@<TRIPOS>ATOM
      1 C1          0.2140   -0.7700   -0.0590 ca        1 CG       0.013000
      2 C2          1.5810   -0.5010   -0.0290 ca        1 CG      -0.223900
      3 C3          2.2400   -0.1690    1.1910 ca        1 CG       0.018700
      4 C4          1.5110   -0.1200    2.3760 ca        1 CG      -0.236900
      5 C5          2.1690    0.1140    3.6860 ce        1 CG       0.565800
      6 N6          3.0350   -0.5820    4.3130 n2        1 CG      -0.662100
      7 N7          1.6950    1.3610    4.3790 n4        1 CG      -0.818600
      8 C8          0.1290   -0.3990    2.3380 ca        1 CG      -0.024000
      9 C9         -0.5070   -0.7110    1.1390 ca        1 CG      -0.115000
     10 C10         3.6970    0.0590    0.9610 c3        1 CG      -0.054100
     11 C11         3.9180   -0.1900   -0.5410 c3        1 CG      -0.195700
     12 C12         2.5590   -0.5390   -1.1200 ce        1 CG       0.603900
     13 N13         2.2320   -0.8610   -2.3600 n2        1 CG      -0.627400
     14 N14         3.2170   -0.9730   -3.3550 n4        1 CG      -0.424100
     15 C15         2.7670   -0.3270   -4.6700 c2        1 CG       0.643100
     16 N16         3.5480    0.5220   -5.1960 n2        1 CG      -0.611100
     17 N17         1.4220   -0.8020   -5.1450 n4        1 CG      -0.842600
     18 H11        -0.3010   -1.0350   -0.9980 ha        1 CG       0.171000
     19 HN61        3.3740   -1.4390    3.9260 hn        1 CG       0.496400
     20 HN71        2.1380    1.4680    5.3080 hn        1 CG       0.483467
     21 HN72        1.9260    2.1780    3.8040 hn        1 CG       0.483467
     22 H81        -0.4640   -0.3980    3.2720 ha        1 CG       0.176000
     23 H91        -1.5920   -0.9290    1.1360 ha        1 CG       0.203000
     24 H101        3.9970    1.1050    1.2330 hc        1 CG       0.109700
     25 H102        4.3240   -0.6450    1.5710 hc        1 CG       0.109700
     26 H111        4.6450   -1.0330   -0.6880 hc        1 CG       0.114200
     27 H112        4.3350    0.7310   -1.0300 hc        1 CG       0.114200
     28 H141        3.3630   -1.9870   -3.5460 hn        1 CG       0.491300
     29 H161        3.4080    1.0110   -6.0630 hn        1 CG       0.552400
     30 H171        1.3710   -1.8330   -5.1670 hn        1 CG       0.504133
     31 H172        0.6790   -0.4480   -4.5180 hn        1 CG       0.504133
     32 H73         0.6770    1.3060    4.5020 hn        1 CG       0.483467
     33 H142        4.1440   -0.5570   -3.1080 hn        1 CG       0.491300
     34 H173        1.2400   -0.4510   -6.1010 hn        1 CG       0.504133
@<TRIPOS>BOND
     1    1    2 ar  
     2    1    9 ar  
     3    1   18 1   
     4    2    3 ar  
     5    2   12 1   
     6    3    4 ar  
     7    3   10 1   
     8    4    5 1   
     9    4    8 ar  
    10    5    6 2   
    11    5    7 1   
    12    6   19 1   
    13    7   20 1   
    14    7   21 1   
    15    7   32 1   
    16    8    9 ar  
    17    8   22 1   
    18    9   23 1   
    19   10   11 1   
    20   10   24 1   
    21   10   25 1   
    22   11   12 1   
    23   11   26 1   
    24   11   27 1   
    25   12   13 2   
    26   13   14 1   
    27   14   15 1   
    28   14   28 1   
    29   14   33 1   
    30   15   16 2   
    31   15   17 1   
    32   16   29 1   
    33   17   30 1   
    34   17   31 1   
    35   17   34 1   
@<TRIPOS>SUBSTRUCTURE
     1 CG          1 TEMP              0 ****  ****    0 ROOT
