@<TRIPOS>MOLECULE
CG
   31    26     1     0     0
SMALL
bcc


@<TRIPOS>ATOM
      1 C1         -2.2600    0.1920    0.1560 c1        1 CG      -0.108500
      2 C2         -0.8470    0.1590    0.1690 c1        1 CG      -0.049000
      3 C3         -0.1610    0.1360    1.3850 c1        1 CG      -0.026000
      4 C4         -0.8810    0.1450    2.6020 c1        1 CG      -0.113000
      5 C5         -0.1390    0.0960    3.9230 c2        1 CG       0.118000
      6 N6          0.2320    1.2090    4.5090 n1        1 CG      -0.301000
      7 N7          0.1530   -1.1600    4.5290 n3        1 CG      -0.332000
      8 C8         -2.2790    0.1790    2.5870 c1        1 CG      -0.104000
      9 C9         -2.9700    0.2020    1.3620 c1        1 CG      -0.108500
     10 C10         1.3330    0.3620    1.0920 c3        1 CG      -0.120000
     11 C11         1.5890    0.0130   -0.3530 c3        1 CG      -0.159000
     12 C12         0.1850   -0.0380   -0.9690 c2        1 CG      -0.052000
     13 N13        -0.0870   -0.2370   -2.2090 n1        1 CG      -0.080000
     14 N14         0.9370   -0.4280   -3.1210 n2        1 CG      -0.210000
     15 C15         0.7830    0.0130   -4.4710 c2        1 CG       0.178000
     16 N16         0.4460    1.2540   -4.7200 n1        1 CG      -0.331000
     17 N17         1.0110   -0.9070   -5.5590 n3        1 CG      -0.352000
     18 H11        -2.7420    0.2090   -0.6960 ha        1 CG       0.143500
     19 HN61        0.0420    2.0260    4.1140 DU        1 CG       0.156500
     20 HN71       -0.2820   -1.9330    4.2340 hn        1 CG       0.194000
     21 HN72        0.7350   -1.2060    5.1970 hn        1 CG       0.194000
     22 H81        -2.7840    0.1860    3.4400 ha        1 CG       0.140000
     23 H91        -3.9600    0.2260    1.3520 ha        1 CG       0.143500
     24 H101        1.8800   -0.2180    1.6780 hc        1 CG       0.112500
     25 H102        1.5620    1.2970    1.2500 hc        1 CG       0.112500
     26 H111        2.1690   -0.7890   -0.3800 hc        1 CG       0.104000
     27 H112        2.1030    0.6930   -0.8460 hc        1 CG       0.104000
     28 H141        1.7160   -0.8130   -2.8550 hn        1 CG       0.199000
     29 H161        0.3470    1.5400   -5.5910 DU        1 CG       0.156500
     30 H171        1.3900   -1.7360   -5.3930 hn        1 CG       0.195000
     31 H172        0.7800   -0.6730   -6.4120 hn        1 CG       0.195000
@<TRIPOS>BOND
     1    1    9 1   
     2    1   18 1   
     3    2    3 1   
     4    2   12 1   
     5    3   10 1   
     6    4    5 1   
     7    4    8 1   
     8    5    6 1   
     9    5    7 1   
    10    7   20 1   
    11    7   21 1   
    12    8   22 1   
    13    9   23 1   
    14   10   11 1   
    15   10   24 1   
    16   10   25 1   
    17   11   12 1   
    18   11   26 1   
    19   11   27 1   
    20   12   13 1   
    21   14   15 1   
    22   14   28 1   
    23   15   16 1   
    24   15   17 1   
    25   17   30 1   
    26   17   31 1   
@<TRIPOS>SUBSTRUCTURE
     1 CG          1 TEMP              0 ****  ****    0 ROOT
