@<TRIPOS>MOLECULE
CG
   31    32     1     0     0
SMALL
bcc


@<TRIPOS>ATOM
      1 C1         23.3720   -1.8630  -38.1560 ca        1 CG      -0.074000
      2 C2         23.2110   -3.0270  -38.8910 ca        1 CG      -0.126900
      3 C3         23.9650   -3.2580  -40.0710 ca        1 CG      -0.044300
      4 C4         24.8780   -2.3080  -40.5070 ca        1 CG      -0.186900
      5 C5         25.7030   -2.5300  -41.7360 ce        1 CG       0.644800
      6 N6         26.5900   -3.4740  -41.8600 n2        1 CG      -0.836100
      7 N7         25.3960   -1.6590  -42.7990 nh        1 CG      -0.895800
      8 C8         25.0350   -1.1250  -39.7640 ca        1 CG      -0.106000
      9 C9         24.2960   -0.9090  -38.6060 ca        1 CG      -0.139000
     10 C10        23.6120   -4.5750  -40.6820 c3        1 CG      -0.037100
     11 C11        22.5300   -5.1700  -39.7700 c3        1 CG      -0.154700
     12 C12        22.3180   -4.1740  -38.6450 ce        1 CG       0.392900
     13 N13        21.5150   -4.2370  -37.6170 n2        1 CG      -0.442400
     14 N14        20.6400   -5.2430  -37.4780 nh        1 CG      -0.480300
     15 C15        20.1930   -5.5350  -36.1060 c2        1 CG       0.771100
     16 N16        20.1890   -6.7920  -35.7460 n2        1 CG      -0.868100
     17 N17        19.8100   -4.4310  -35.2950 nh        1 CG      -0.918800
     18 H11        22.7880   -1.6880  -37.2400 ha        1 CG       0.153000
     19 HN61       26.6450   -4.0860  -41.0750 hn        1 CG       0.394400
     20 HN71       26.0460   -1.6490  -43.5550 hn        1 CG       0.400300
     21 HN72       25.1080   -0.7540  -42.5020 hn        1 CG       0.400300
     22 H81        25.7580   -0.3670  -40.1010 ha        1 CG       0.134000
     23 H91        24.4350    0.0200  -38.0330 ha        1 CG       0.138000
     24 H101       23.2290   -4.4380  -41.7250 hc        1 CG       0.070200
     25 H102       24.5070   -5.2450  -40.7300 hc        1 CG       0.070200
     26 H111       21.5770   -5.3240  -40.3370 hc        1 CG       0.065200
     27 H112       22.8560   -6.1590  -39.3590 hc        1 CG       0.065200
     28 H141       20.8700   -6.1030  -37.9660 hn        1 CG       0.401800
     29 H161       19.7900   -6.9900  -34.8550 hn        1 CG       0.403400
     30 H171       18.9550   -4.5800  -34.8040 hn        1 CG       0.401800
     31 H172       19.8540   -3.5330  -35.7240 hn        1 CG       0.401800
@<TRIPOS>BOND
     1    1    2 ar  
     2    1    9 ar  
     3    1   18 1   
     4    2    3 ar  
     5    2   12 1   
     6    3    4 ar  
     7    3   10 1   
     8    4    5 1   
     9    4    8 ar  
    10    5    6 2   
    11    5    7 1   
    12    6   19 1   
    13    7   20 1   
    14    7   21 1   
    15    8    9 ar  
    16    8   22 1   
    17    9   23 1   
    18   10   11 1   
    19   10   24 1   
    20   10   25 1   
    21   11   12 1   
    22   11   26 1   
    23   11   27 1   
    24   12   13 2   
    25   13   14 1   
    26   14   15 1   
    27   14   28 1   
    28   15   16 2   
    29   15   17 1   
    30   16   29 1   
    31   17   30 1   
    32   17   31 1   
@<TRIPOS>SUBSTRUCTURE
     1 CG          1 TEMP              0 ****  ****    0 ROOT
