@<TRIPOS>MOLECULE
CG
   34    35     1     0     0
SMALL
bcc


@<TRIPOS>ATOM
      1 C1          0.2190   -0.7780   -0.0620 ca        1 CG       0.013000
      2 C2          1.5850   -0.5030   -0.0310 ca        1 CG      -0.223900
      3 C3          2.2390   -0.1580    1.1890 ca        1 CG       0.018700
      4 C4          1.5070   -0.1020    2.3710 ca        1 CG      -0.236900
      5 C5          2.1600    0.1460    3.6800 ce        1 CG       0.565800
      6 N6          3.0280   -0.5410    4.3160 n2        1 CG      -0.662100
      7 N7          1.6780    1.3960    4.3620 n4        1 CG      -0.818600
      8 C8          0.1260   -0.3880    2.3320 ca        1 CG      -0.024000
      9 C9         -0.5050   -0.7130    1.1340 ca        1 CG      -0.115000
     10 C10         3.6960    0.0760    0.9600 c3        1 CG      -0.054100
     11 C11         3.9220   -0.1840   -0.5380 c3        1 CG      -0.195700
     12 C12         2.5660   -0.5440   -1.1190 ce        1 CG       0.603900
     13 N13         2.2440   -0.8780   -2.3560 n2        1 CG      -0.627400
     14 N14         3.2320   -0.9940   -3.3490 n4        1 CG      -0.424100
     15 C15         2.7820   -0.3610   -4.6700 c2        1 CG       0.643100
     16 N16         3.5600    0.4870   -5.2020 n2        1 CG      -0.610100
     17 N17         1.4400   -0.8480   -5.1440 n4        1 CG      -0.842600
     18 H11        -0.2920   -1.0530   -1.0000 ha        1 CG       0.171000
     19 HN61        3.3720   -1.3990    3.9360 hn        1 CG       0.496400
     20 HN71        2.1180    1.5130    5.2920 hn        1 CG       0.483467
     21 HN72        1.9060    2.2090    3.7810 hn        1 CG       0.483467
     22 H81        -0.4690   -0.3830    3.2640 ha        1 CG       0.176000
     23 H91        -1.5890   -0.9370    1.1300 ha        1 CG       0.203000
     24 H101        3.9900    1.1260    1.2250 hc        1 CG       0.109700
     25 H102        4.3250   -0.6190    1.5780 hc        1 CG       0.109700
     26 H111        4.3350    0.7350   -1.0340 hc        1 CG       0.114200
     27 H112        4.6530   -1.0240   -0.6770 hc        1 CG       0.114200
     28 H141        4.1560   -0.5700   -3.1020 hn        1 CG       0.491300
     29 H161        3.4190    0.9670   -6.0740 hn        1 CG       0.552400
     30 H171        0.6940   -0.4910   -4.5220 hn        1 CG       0.504133
     31 H172        1.2590   -0.5070   -6.1040 hn        1 CG       0.504133
     32 H73         0.6600    1.3370    4.4830 hn        1 CG       0.483467
     33 H142        3.3850   -2.0080   -3.5300 hn        1 CG       0.491300
     34 H173        1.3950   -1.8790   -5.1560 hn        1 CG       0.504133
@<TRIPOS>BOND
     1    1    2 ar  
     2    1    9 ar  
     3    1   18 1   
     4    2    3 ar  
     5    2   12 1   
     6    3    4 ar  
     7    3   10 1   
     8    4    5 1   
     9    4    8 ar  
    10    5    6 2   
    11    5    7 1   
    12    6   19 1   
    13    7   20 1   
    14    7   21 1   
    15    7   32 1   
    16    8    9 ar  
    17    8   22 1   
    18    9   23 1   
    19   10   11 1   
    20   10   24 1   
    21   10   25 1   
    22   11   12 1   
    23   11   26 1   
    24   11   27 1   
    25   12   13 2   
    26   13   14 1   
    27   14   15 1   
    28   14   28 1   
    29   14   33 1   
    30   15   16 2   
    31   15   17 1   
    32   16   29 1   
    33   17   30 1   
    34   17   31 1   
    35   17   34 1   
@<TRIPOS>SUBSTRUCTURE
     1 CG          1 TEMP              0 ****  ****    0 ROOT
