@<TRIPOS>MOLECULE
CG
   34    35     1     0     0
SMALL
bcc


@<TRIPOS>ATOM
      1 C1          0.2020   -0.7260   -0.0590 ca        1 CG       0.013000
      2 C2          1.5760   -0.4880   -0.0290 ca        1 CG      -0.223900
      3 C3          2.2420   -0.1700    1.1920 ca        1 CG       0.018700
      4 C4          1.5140   -0.1030    2.3760 ca        1 CG      -0.236900
      5 C5          2.1780    0.1170    3.6850 ce        1 CG       0.565800
      6 N6          3.0270   -0.5980    4.3130 n2        1 CG      -0.662100
      7 N7          1.7320    1.3750    4.3780 nz        1 CG      -0.818600
      8 C8          0.1260   -0.3510    2.3380 ca        1 CG      -0.024000
      9 C9         -0.5170   -0.6500    1.1400 ca        1 CG      -0.115000
     10 C10         3.7040    0.0250    0.9610 c3        1 CG      -0.054100
     11 C11         3.9190   -0.2300   -0.5410 c3        1 CG      -0.195700
     12 C12         2.5520   -0.5480   -1.1200 ce        1 CG       0.603900
     13 N13         2.2180   -0.8640   -2.3590 n2        1 CG      -0.627400
     14 N14         3.2000   -1.0000   -3.3550 ny        1 CG      -0.424100
     15 C15         2.7640   -0.3460   -4.6700 c2        1 CG       0.643100
     16 N16         3.5640    0.4840   -5.1990 n2        1 CG      -0.611100
     17 N17         1.4080   -0.7910   -5.1430 nz        1 CG      -0.842600
     18 H11        -0.3180   -0.9800   -0.9970 ha        1 CG       0.171000
     19 HN61        3.3480   -1.4620    3.9270 hn        1 CG       0.496400
     20 HN71        0.7130    1.3420    4.5010 hn        1 CG       0.483467
     21 HN72        2.1770    1.4730    5.3070 hn        1 CG       0.483467
     22 H81        -0.4660   -0.3360    3.2720 ha        1 CG       0.176000
     23 H91        -1.6070   -0.8430    1.1370 ha        1 CG       0.203000
     24 H101        4.3150   -0.6920    1.5710 hc        1 CG       0.109700
     25 H102        4.0270    1.0650    1.2320 hc        1 CG       0.109700
     26 H111        4.6270   -1.0890   -0.6870 hc        1 CG       0.114200
     27 H112        4.3560    0.6810   -1.0310 hc        1 CG       0.114200
     28 H141        3.3250   -2.0160   -3.5430 hn        1 CG       0.491300
     29 H161        3.4340    0.9740   -6.0670 hn        1 CG       0.552400
     30 H171        1.2340   -0.4400   -6.1010 hn        1 CG       0.504133
     31 H172        0.6740   -0.4170   -4.5170 hn        1 CG       0.504133
     32 H73         1.9800    2.1860    3.8020 hn        1 CG       0.483467
     33 H142        4.1360   -0.6030   -3.1080 hn        1 CG       0.491300
     34 H173        1.3340   -1.8210   -5.1610 hn        1 CG       0.504133
@<TRIPOS>BOND
     1    1    2 ar  
     2    1    9 ar  
     3    1   18 1   
     4    2    3 ar  
     5    2   12 1   
     6    3    4 ar  
     7    3   10 1   
     8    4    5 1   
     9    4    8 ar  
    10    5    6 2   
    11    5    7 1   
    12    6   19 1   
    13    7   20 1   
    14    7   21 1   
    15    7   32 1   
    16    8    9 ar  
    17    8   22 1   
    18    9   23 1   
    19   10   11 1   
    20   10   24 1   
    21   10   25 1   
    22   11   12 1   
    23   11   26 1   
    24   11   27 1   
    25   12   13 2   
    26   13   14 1   
    27   14   15 1   
    28   14   28 1   
    29   14   33 1   
    30   15   16 2   
    31   15   17 1   
    32   16   29 1   
    33   17   30 1   
    34   17   31 1   
    35   17   34 1   
@<TRIPOS>SUBSTRUCTURE
     1 CG          1 TEMP              0 ****  ****    0 ROOT
