@<TRIPOS>MOLECULE
CG1
   40    42     1     0     0
SMALL
bcc


@<TRIPOS>ATOM
      1 OP3        -4.2250    1.3130    0.9840 os        1 CG1     -0.586200
      2 P          -4.4040   -0.3190    0.8420 p5        1 CG1      1.430800
      3 OP1        -5.8350   -0.6320    0.7100 o         1 CG1     -0.823000
      4 OP2        -3.4260   -0.9330    1.7650 o         1 CG1     -0.823000
      5 O5'        -3.7020   -0.4600   -0.6590 os        1 CG1     -0.563200
      6 C5'        -2.3420   -0.1930   -0.7250 c3        1 CG1      0.187400
      7 C4'        -1.5600   -1.4620   -1.1010 c3        1 CG1      0.108100
      8 O4'        -0.3390   -1.0740   -1.7750 os        1 CG1     -0.417600
      9 C3'        -1.1560   -2.3070    0.1200 c3        1 CG1      0.106100
     10 O3'        -1.2100   -3.6670   -0.2700 oh        1 CG1     -0.592800
     11 C2'         0.2920   -1.8600    0.4230 c3        1 CG1      0.073100
     12 O2'         1.0670   -2.9970    0.7370 oh        1 CG1     -0.591800
     13 C1'         0.7860   -1.2140   -0.9130 c3        1 CG1      0.216800
     14 N9          1.4410    0.0710   -0.7420 na        1 CG1     -0.201900
     15 C8          0.9300    1.3630   -1.0020 cc        1 CG1      0.435400
     16 N7          1.8400    2.3410   -0.8190 nd        1 CG1     -0.610000
     17 C5          3.0040    1.6790   -0.4240 cd        1 CG1      0.190800
     18 C6          4.3110    2.1940   -0.0760 c         1 CG1      0.650000
     19 O6          4.7060    3.3700   -0.0630 o         1 CG1     -0.615500
     20 N1          5.2520    1.1890    0.2810 n         1 CG1     -0.506400
     21 C2          4.9220   -0.1800    0.3310 cd        1 CG1      0.647800
     22 N2          5.9250   -1.0630    0.8290 nh        1 CG1     -0.879800
     23 N3          3.7210   -0.6910   -0.0100 nc        1 CG1     -0.662100
     24 C4          2.7750    0.2560   -0.3690 cc        1 CG1      0.077800
     25 H5'        -2.1690    0.5650   -1.5440 h1        1 CG1      0.032200
     26 H5'A       -1.9670    0.2200    0.2520 h1        1 CG1      0.032200
     27 H4'        -2.1280   -2.0710   -1.8530 h1        1 CG1      0.106700
     28 H3'        -1.8300   -2.1190    1.0060 h1        1 CG1      0.154700
     29 H2'         0.3000   -1.1290    1.2750 h1        1 CG1      0.076700
     30 C          -5.2700    2.1210    0.5490 c3        1 CG1      0.175700
     31 HO3'       -0.9050   -4.1780    0.4900 ho        1 CG1      0.410000
     32 HO2'        1.9420   -2.6750    0.9850 ho        1 CG1      0.411000
     33 H1'         1.5160   -1.9010   -1.4390 h2        1 CG1      0.093700
     34 H8         -0.1160    1.4960   -1.3160 h5        1 CG1      0.091100
     35 HN1         6.1440    1.4960    0.6010 hn        1 CG1      0.328500
     36 HN2         6.8240   -0.9090    0.4230 hn        1 CG1      0.403300
     37 HN2A        5.6540   -2.0250    0.7950 hn        1 CG1      0.403300
     38 H          -6.1350    1.5060    0.1890 h1        1 CG1      0.011033
     39 HA         -5.5990    2.7770    1.4000 h1        1 CG1      0.011033
     40 HB         -4.9000    2.7870   -0.2780 h1        1 CG1      0.011033
@<TRIPOS>BOND
     1    1    2 1   
     2    1   30 1   
     3    2    3 1   
     4    2    4 1   
     5    2    5 1   
     6    5    6 1   
     7    6    7 1   
     8    6   25 1   
     9    6   26 1   
    10    7    8 1   
    11    7    9 1   
    12    7   27 1   
    13    8   13 1   
    14    9   10 1   
    15    9   11 1   
    16    9   28 1   
    17   10   31 1   
    18   11   12 1   
    19   11   13 1   
    20   11   29 1   
    21   12   32 1   
    22   13   14 1   
    23   13   33 1   
    24   14   15 1   
    25   14   24 1   
    26   15   16 2   
    27   15   34 1   
    28   16   17 1   
    29   17   18 1   
    30   17   24 2   
    31   18   19 2   
    32   18   20 1   
    33   20   21 1   
    34   20   35 1   
    35   21   22 1   
    36   21   23 2   
    37   22   36 1   
    38   22   37 1   
    39   23   24 1   
    40   30   38 1   
    41   30   39 1   
    42   30   40 1   
@<TRIPOS>SUBSTRUCTURE
     1 CG1         1 TEMP              0 ****  ****    0 ROOT
