@<TRIPOS>MOLECULE
CG1
   40    39     1     0     0
SMALL
bcc


@<TRIPOS>ATOM
      1 OP3        -3.6730   -0.0500    4.6420 os        1 CG1     -0.752000
      2 P          -3.4530   -0.9320    3.3250 p5        1 CG1      1.911000
      3 OP1        -2.2810   -1.8270    3.5170 o         1 CG1     -0.832500
      4 OP2        -4.6600   -1.7500    3.0690 o         1 CG1     -0.832500
      5 O5'        -3.1870    0.0320    2.0750 os        1 CG1     -0.729000
      6 C5'        -1.9600   -0.1030    1.3700 c3        1 CG1      0.043000
      7 C4'        -1.7550    1.1350    0.4360 c3        1 CG1     -0.046000
      8 O4'        -0.2660    1.6020    0.4780 os        1 CG1     -0.274000
      9 C3'        -1.9670    0.8150   -0.7680 c3        1 CG1      0.003000
     10 O3'        -2.5010    1.9730   -1.5150 oh        1 CG1     -0.367000
     11 C2'        -0.5050    0.3700   -1.3860 c3        1 CG1     -0.001000
     12 O2'        -0.5100    0.5120   -2.8660 oh        1 CG1     -0.320000
     13 C1'         0.3460    1.1590   -0.8780 c3        1 CG1      0.121000
     14 N9          1.6280    0.4550   -0.6530 n3        1 CG1     -0.154000
     15 C8          2.1270    0.4820    0.6070 c1        1 CG1     -0.065000
     16 N7          3.4410    0.1750    0.5430 n2        1 CG1     -0.082000
     17 C5          3.7590   -0.0430   -0.7550 c1        1 CG1     -0.234000
     18 C6          5.0350   -0.4980   -1.4190 c1        1 CG1      0.396000
     19 O6          5.9760   -0.8170   -0.7490 o         1 CG1     -0.345000
     20 N1          5.0760   -0.6680   -2.8080 n3        1 CG1     -0.345000
     21 C2          3.9030   -0.4080   -3.5950 c2        1 CG1      0.194000
     22 N2          3.9120   -0.6610   -5.0120 n3        1 CG1     -0.314000
     23 N3          2.6990    0.0230   -2.9580 n1        1 CG1     -0.214000
     24 C4          2.6370    0.1310   -1.4950 c1        1 CG1      0.042000
     25 H5'        -1.9820   -0.9270    0.8260 h1        1 CG1      0.072000
     26 H5'A       -1.2090   -0.1550    2.0190 h1        1 CG1      0.072000
     27 H4'        -2.3820    1.9090    0.7210 h1        1 CG1      0.133000
     28 H3'        -2.6030    0.0540   -0.8120 h1        1 CG1      0.138000
     29 H2'        -0.3000   -0.5470   -1.1380 h1        1 CG1      0.126000
     30 C          -4.1180   -0.7050    5.8410 c3        1 CG1     -0.017000
     31 HO3'       -3.4050    1.8710   -1.6330 ho        1 CG1      0.282000
     32 HO2'       -0.9480   -0.1600   -3.2240 ho        1 CG1      0.227000
     33 H1'         0.4800    1.9290   -1.4570 h2        1 CG1      0.146000
     34 H8          1.6090    0.6300    1.4300 DU        1 CG1      0.223000
     35 HN1         5.8270   -0.9890   -3.2050 hn        1 CG1      0.242000
     36 HN2         4.6690   -0.9950   -5.4150 hn        1 CG1      0.196000
     37 HN2A        3.1660   -0.4630   -5.5220 hn        1 CG1      0.196000
     38 H          -5.0820   -0.6590    5.8960 h1        1 CG1      0.053667
     39 HA         -3.7130   -0.2450    6.6460 h1        1 CG1      0.053667
     40 HB         -3.8340   -1.6550    5.8240 h1        1 CG1      0.053667
@<TRIPOS>BOND
     1    1    2 1   
     2    1   30 1   
     3    2    3 1   
     4    2    4 1   
     5    2    5 1   
     6    5    6 1   
     7    6    7 1   
     8    6   25 1   
     9    6   26 1   
    10    7    8 1   
    11    7    9 1   
    12    7   27 1   
    13    8   13 1   
    14    9   10 1   
    15    9   11 1   
    16    9   28 1   
    17   10   31 1   
    18   11   12 1   
    19   11   13 1   
    20   11   29 1   
    21   12   32 1   
    22   13   14 1   
    23   13   33 1   
    24   14   15 1   
    25   14   24 1   
    26   15   16 1   
    27   16   17 1   
    28   17   24 1   
    29   18   19 1   
    30   18   20 1   
    31   20   21 1   
    32   20   35 1   
    33   21   22 1   
    34   21   23 1   
    35   22   36 1   
    36   22   37 1   
    37   30   38 1   
    38   30   39 1   
    39   30   40 1   
@<TRIPOS>SUBSTRUCTURE
     1 CG1         1 TEMP              0 ****  ****    0 ROOT
