@<TRIPOS>MOLECULE
CG3
   16    13     1     0     0
SMALL
bcc


@<TRIPOS>ATOM
      1 NBG         1.0570   -0.0030    1.7000 n2        1 CG3      0.521000
      2 OBH         2.4190   -0.1250    1.7240 o         1 CG3     -0.201000
      3 OBI         0.4400    0.1600    2.7420 o         1 CG3     -0.147000
      4 CBB         0.3600   -0.0880    0.4670 c2        1 CG3     -0.172000
      5 CAW        -0.8200    0.6170    0.2890 c2        1 CG3      0.219000
      6 CAX        -1.5180    0.5110   -0.9030 c1        1 CG3     -0.233000
      7 CAY        -1.0360   -0.3000   -1.9180 c1        1 CG3     -0.058500
      8 CAZ         0.1440   -1.0050   -1.7410 c1        1 CG3     -0.058500
      9 CBA         0.8420   -0.8990   -0.5480 c1        1 CG3     -0.013000
     10 OAO        -1.3050    1.4490    1.3160 oh        1 CG3     -0.203000
     11 HBA         1.6730   -1.3960   -0.4220 ha        1 CG3      0.189000
     12 HAZ         0.4840   -1.5770   -2.4550 ha        1 CG3      0.187500
     13 HAY        -1.5270   -0.3750   -2.7590 ha        1 CG3      0.187500
     14 HAX        -2.3490    1.0080   -1.0290 ha        1 CG3      0.186000
     15 HAO        -1.5600    2.2280    0.9720 ho        1 CG3      0.279000
     16 HBO         2.6950   -0.2060    2.5660 ho        1 CG3      0.317000
@<TRIPOS>BOND
     1    1    3 1   
     2    1    4 1   
     3    2   16 1   
     4    4    5 1   
     5    4    9 1   
     6    5    6 1   
     7    5   10 1   
     8    6   14 1   
     9    7    8 1   
    10    7   13 1   
    11    8   12 1   
    12    9   11 1   
    13   10   15 1   
@<TRIPOS>SUBSTRUCTURE
     1 CG3         1 TEMP              0 ****  ****    0 ROOT
