@<TRIPOS>MOLECULE
CG3
   16    16     1     0     0
SMALL
bcc


@<TRIPOS>ATOM
      1 NBG         0.0110    0.0380    0.0930 nh        1 CG3      0.387700
      2 OBH         1.3170   -0.0470    0.0080 oh        1 CG3     -0.350300
      3 OBI        -0.4530    0.1010    1.1750 o         1 CG3     -0.147000
      4 CBB        -0.6870    0.0420   -1.1510 ca        1 CG3     -0.090400
      5 CAW        -2.1170    0.1310   -1.1660 ca        1 CG3      0.264100
      6 CAX        -2.7900    0.1350   -2.4040 ca        1 CG3     -0.233000
      7 CAY        -2.0760    0.0520   -3.5870 ca        1 CG3      0.038000
      8 CAZ        -0.6670   -0.0350   -3.5740 ca        1 CG3     -0.155000
      9 CBA         0.0280   -0.0420   -2.3870 ca        1 CG3     -0.013000
     10 OAO        -2.7470    0.2090    0.0270 oh        1 CG3     -0.449100
     11 HBA         1.1310   -0.1110   -2.3810 ha        1 CG3      0.189000
     12 HAZ        -0.1200   -0.1000   -4.5310 ha        1 CG3      0.189000
     13 HAY        -2.6100    0.0560   -4.5550 ha        1 CG3      0.186000
     14 HAX        -3.8910    0.2030   -2.4150 ha        1 CG3      0.186000
     15 HAO        -3.7130    0.2650   -0.1090 ho        1 CG3      0.480000
     16 HBO         1.7340   -0.0450    0.9140 ho        1 CG3      0.518000
@<TRIPOS>BOND
     1    1    2 1   
     2    1    3 1   
     3    1    4 1   
     4    2   16 1   
     5    4    5 ar  
     6    4    9 ar  
     7    5    6 ar  
     8    5   10 1   
     9    6    7 ar  
    10    6   14 1   
    11    7    8 ar  
    12    7   13 1   
    13    8    9 ar  
    14    8   12 1   
    15    9   11 1   
    16   10   15 1   
@<TRIPOS>SUBSTRUCTURE
     1 CG3         1 TEMP              0 ****  ****    0 ROOT
