@<TRIPOS>MOLECULE
CG3
   16    16     1     0     0
SMALL
bcc


@<TRIPOS>ATOM
      1 NBG        -1.6400    0.3180   -0.0410 nh        1 CG3      0.387700
      2 OBH        -2.1780    1.5120    0.0360 oh        1 CG3     -0.350300
      3 OBI        -2.3770   -0.6000   -0.1010 o         1 CG3     -0.147000
      4 CBB        -0.2140    0.2850   -0.0430 ca        1 CG3     -0.090400
      5 CAW         0.4700   -0.9710   -0.1230 ca        1 CG3      0.264100
      6 CAX         1.8790   -0.9850   -0.1230 ca        1 CG3     -0.233000
      7 CAY         2.5890    0.2010   -0.0460 ca        1 CG3      0.038000
      8 CAZ         1.9160    1.4400    0.0330 ca        1 CG3     -0.155000
      9 CBA         0.5420    1.4960    0.0360 ca        1 CG3     -0.013000
     10 OAO        -0.2870   -2.0880   -0.1960 oh        1 CG3     -0.449100
     11 HBA         0.0190    2.4680    0.0990 ha        1 CG3      0.189000
     12 HAZ         2.5050    2.3720    0.0940 ha        1 CG3      0.189000
     13 HAY         3.6950    0.1830   -0.0470 ha        1 CG3      0.186000
     14 HAX         2.4050   -1.9530   -0.1860 ha        1 CG3      0.186000
     15 HAO         0.2860   -2.8780   -0.2460 ho        1 CG3      0.480000
     16 HBO        -3.1730    1.4550    0.0310 ho        1 CG3      0.518000
@<TRIPOS>BOND
     1    1    2 1   
     2    1    3 1   
     3    1    4 1   
     4    2   16 1   
     5    4    5 ar  
     6    4    9 ar  
     7    5    6 ar  
     8    5   10 1   
     9    6    7 ar  
    10    6   14 1   
    11    7    8 ar  
    12    7   13 1   
    13    8    9 ar  
    14    8   12 1   
    15    9   11 1   
    16   10   15 1   
@<TRIPOS>SUBSTRUCTURE
     1 CG3         1 TEMP              0 ****  ****    0 ROOT
