@<TRIPOS>MOLECULE
CG3
   16    16     1     0     0
SMALL
bcc


@<TRIPOS>ATOM
      1 NBG         0.0080    0.0330    0.0950 nh        1 CG3      0.387700
      2 OBH         1.3150   -0.0380    0.0120 oh        1 CG3     -0.350300
      3 OBI        -0.4590    0.0830    1.1770 o         1 CG3     -0.147000
      4 CBB        -0.6870    0.0420   -1.1510 ca        1 CG3     -0.090400
      5 CAW        -2.1180    0.1180   -1.1680 ca        1 CG3      0.264100
      6 CAX        -2.7890    0.1250   -2.4060 ca        1 CG3     -0.233000
      7 CAY        -2.0720    0.0600   -3.5880 ca        1 CG3      0.038000
      8 CAZ        -0.6620   -0.0150   -3.5740 ca        1 CG3     -0.155000
      9 CBA         0.0300   -0.0240   -2.3850 ca        1 CG3     -0.013000
     10 OAO        -2.7520    0.1790    0.0250 oh        1 CG3     -0.449100
     11 HBA         1.1340   -0.0830   -2.3780 ha        1 CG3      0.189000
     12 HAZ        -0.1130   -0.0660   -4.5310 ha        1 CG3      0.189000
     13 HAY        -2.6040    0.0660   -4.5580 ha        1 CG3      0.186000
     14 HAX        -3.8910    0.1830   -2.4190 ha        1 CG3      0.186000
     15 HAO        -3.7180    0.2270   -0.1130 ho        1 CG3      0.480000
     16 HBO         1.7290   -0.0390    0.9180 ho        1 CG3      0.518000
@<TRIPOS>BOND
     1    1    2 1   
     2    1    3 1   
     3    1    4 1   
     4    2   16 1   
     5    4    5 ar  
     6    4    9 ar  
     7    5    6 ar  
     8    5   10 1   
     9    6    7 ar  
    10    6   14 1   
    11    7    8 ar  
    12    7   13 1   
    13    8    9 ar  
    14    8   12 1   
    15    9   11 1   
    16   10   15 1   
@<TRIPOS>SUBSTRUCTURE
     1 CG3         1 TEMP              0 ****  ****    0 ROOT
