@<TRIPOS>MOLECULE
CG4
   60    64     1     0     0
SMALL
bcc


@<TRIPOS>ATOM
      1 O18         0.4050    1.4190    0.0680 o         1 CG4     -0.830300
      2 C16         1.3120    0.5410    0.0090 c         1 CG4      0.908200
      3 O17         1.6480   -0.2020    0.9750 o         1 CG4     -0.830300
      4 C7          2.0480    0.3650   -1.3110 ca        1 CG4     -0.134600
      5 C5          3.0670   -0.5860   -1.4270 ca        1 CG4     -0.091500
      6 C3          3.7460   -0.7640   -2.6260 ca        1 CG4     -0.184500
      7 C6          1.7230    1.1410   -2.4230 ca        1 CG4     -0.091500
      8 C4          2.3910    0.9850   -3.6370 ca        1 CG4     -0.184500
      9 C2          3.4140    0.0250   -3.7530 ca        1 CG4      0.010600
     10 N1          4.1520   -0.1750   -4.9440 n         1 CG4     -0.450100
     11 C8          3.7960    0.2050   -6.2200 c         1 CG4      0.665700
     12 O9          2.8240    0.9320   -6.5010 o         1 CG4     -0.591100
     13 C15         4.6900   -0.3130   -7.3100 ca        1 CG4     -0.142600
     14 C13         6.0770   -0.1680   -7.2440 ca        1 CG4     -0.096000
     15 C11         6.8730   -0.6620   -8.2780 ca        1 CG4     -0.145000
     16 C14         4.0950   -0.9360   -8.4120 ca        1 CG4     -0.043000
     17 C12         4.8970   -1.4390   -9.4440 ca        1 CG4     -0.153500
     18 C10         6.2910   -1.3030   -9.3690 ca        1 CG4     -0.111000
     19 C24         4.2900   -2.1210  -10.5990 cc        1 CG4      0.483800
     20 C22         4.8460   -1.9220  -11.8610 cd        1 CG4     -0.248600
     21 N23         3.1910   -2.9270  -10.3600 nc        1 CG4     -0.721000
     22 C21         2.6300   -3.5780  -11.3890 cd        1 CG4      0.718200
     23 C19         3.1580   -3.4270  -12.7570 cd        1 CG4     -0.198600
     24 N27         2.7550   -3.9590  -13.9510 nc        1 CG4     -0.275600
     25 C26         3.6230   -3.4480  -14.8930 cc        1 CG4     -0.003400
     26 C25         4.5810   -2.5870  -14.2960 cd        1 CG4     -0.219100
     27 N20         4.2870   -2.5750  -12.9410 na        1 CG4      0.060700
     28 N28         1.5730   -4.4770  -11.2280 nh        1 CG4     -0.703300
     29 C33         0.7140   -4.4400  -10.1010 ca        1 CG4      0.114600
     30 C31        -0.6850   -4.3760  -10.3120 ca        1 CG4     -0.213000
     31 C29        -1.5550   -4.3860   -9.2270 ca        1 CG4      0.110100
     32 O36        -2.9330   -4.3630   -9.3330 os        1 CG4     -0.303900
     33 C37        -3.4520   -4.0070  -10.6080 c3        1 CG4      0.111700
     34 C34         1.2070   -4.5320   -8.7900 ca        1 CG4     -0.103000
     35 C32         0.3310   -4.5280   -7.7040 ca        1 CG4     -0.167000
     36 C30        -1.0470   -4.4500   -7.9020 ca        1 CG4      0.105100
     37 O35        -1.9890   -4.4600   -6.8960 os        1 CG4     -0.308900
     38 C38        -1.4950   -4.1910   -5.5860 c3        1 CG4      0.107700
     39 H2          3.3160   -1.1930   -0.5410 ha        1 CG4      0.155000
     40 H3          4.5420   -1.5200   -2.6880 ha        1 CG4      0.125000
     41 H4          0.9180    1.8880   -2.3210 ha        1 CG4      0.155000
     42 H5          2.1090    1.6080   -4.4980 ha        1 CG4      0.125000
     43 H6          4.9100   -0.8160   -4.8620 hn        1 CG4      0.305500
     44 H7          6.5430    0.3390   -6.3850 ha        1 CG4      0.145000
     45 H8          7.9660   -0.5500   -8.2290 ha        1 CG4      0.133000
     46 H9          2.9960   -1.0210   -8.4550 ha        1 CG4      0.173000
     47 H10         6.9280   -1.7120  -10.1670 ha        1 CG4      0.129000
     48 H11         5.7010   -1.2600  -12.0560 h4        1 CG4      0.174000
     49 H12         3.5370   -3.7070  -15.9480 h4        1 CG4      0.180000
     50 H13         5.4010   -2.0180  -14.7260 h4        1 CG4      0.184000
     51 H14         1.1210   -4.7400  -12.0810 hn        1 CG4      0.444800
     52 H15        -1.0870   -4.3140  -11.3340 ha        1 CG4      0.136000
     53 H16        -3.0240   -3.0380  -10.9620 h1        1 CG4      0.041033
     54 H17        -3.2510   -4.8170  -11.3520 h1        1 CG4      0.041033
     55 H18        -4.5520   -3.9100  -10.4220 h1        1 CG4      0.041033
     56 H19         2.2880   -4.6010   -8.5940 ha        1 CG4      0.159000
     57 H20         0.7430   -4.5780   -6.6850 ha        1 CG4      0.151000
     58 H21        -2.4270   -4.0790   -4.9760 h1        1 CG4      0.050033
     59 H22        -0.8860   -5.0520   -5.2180 h1        1 CG4      0.050033
     60 H23        -0.8950   -3.2490   -5.5670 h1        1 CG4      0.050033
@<TRIPOS>BOND
     1    1    2 1   
     2    2    3 1   
     3    2    4 1   
     4    4    5 ar  
     5    4    7 ar  
     6    5    6 ar  
     7    5   39 1   
     8    6    9 ar  
     9    6   40 1   
    10    7    8 ar  
    11    7   41 1   
    12    8    9 ar  
    13    8   42 1   
    14    9   10 1   
    15   10   11 1   
    16   10   43 1   
    17   11   12 2   
    18   11   13 1   
    19   13   14 ar  
    20   13   16 ar  
    21   14   15 ar  
    22   14   44 1   
    23   15   18 ar  
    24   15   45 1   
    25   16   17 ar  
    26   16   46 1   
    27   17   18 ar  
    28   17   19 1   
    29   18   47 1   
    30   19   20 2   
    31   19   21 1   
    32   20   27 1   
    33   20   48 1   
    34   21   22 2   
    35   22   23 1   
    36   22   28 1   
    37   23   24 2   
    38   23   27 1   
    39   24   25 1   
    40   25   26 2   
    41   25   49 1   
    42   26   27 1   
    43   26   50 1   
    44   28   29 1   
    45   28   51 1   
    46   29   30 ar  
    47   29   34 ar  
    48   30   31 ar  
    49   30   52 1   
    50   31   32 1   
    51   31   36 ar  
    52   32   33 1   
    53   33   53 1   
    54   33   54 1   
    55   33   55 1   
    56   34   35 ar  
    57   34   56 1   
    58   35   36 ar  
    59   35   57 1   
    60   36   37 1   
    61   37   38 1   
    62   38   58 1   
    63   38   59 1   
    64   38   60 1   
@<TRIPOS>SUBSTRUCTURE
     1 CG4         1 TEMP              0 ****  ****    0 ROOT
