@<TRIPOS>MOLECULE
CG4
   60    64     1     0     0
SMALL
bcc


@<TRIPOS>ATOM
      1 O18         0.3820    1.4560    0.0480 o         1 CG4     -0.830300
      2 C16         1.3000    0.5910   -0.0070 c         1 CG4      0.908200
      3 O17         1.6500   -0.1400    0.9630 o         1 CG4     -0.830300
      4 C7          2.0350    0.4130   -1.3280 ca        1 CG4     -0.134600
      5 C5          3.0670   -0.5240   -1.4400 ca        1 CG4     -0.091500
      6 C3          3.7440   -0.7030   -2.6390 ca        1 CG4     -0.184500
      7 C6          1.6950    1.1760   -2.4460 ca        1 CG4     -0.091500
      8 C4          2.3620    1.0190   -3.6600 ca        1 CG4     -0.184500
      9 C2          3.3980    0.0730   -3.7720 ca        1 CG4      0.010600
     10 N1          4.1340   -0.1270   -4.9630 ns        1 CG4     -0.450100
     11 C8          3.7690    0.2370   -6.2410 c         1 CG4      0.665700
     12 O9          2.7850    0.9480   -6.5260 o         1 CG4     -0.591100
     13 C15         4.6670   -0.2760   -7.3310 ca        1 CG4     -0.142600
     14 C13         6.0520   -0.1120   -7.2700 ca        1 CG4     -0.096000
     15 C11         6.8520   -0.6020   -8.3020 ca        1 CG4     -0.145000
     16 C14         4.0770   -0.9160   -8.4250 ca        1 CG4     -0.043000
     17 C12         4.8830   -1.4160   -9.4560 ca        1 CG4     -0.153500
     18 C10         6.2750   -1.2590   -9.3870 ca        1 CG4     -0.111000
     19 C24         4.2820   -2.1140  -10.6050 cc        1 CG4      0.483800
     20 C22         4.8320   -1.9170  -11.8690 cd        1 CG4     -0.248600
     21 N23         3.1960   -2.9340  -10.3560 nc        1 CG4     -0.721000
     22 C21         2.6400   -3.6010  -11.3790 cd        1 CG4      0.718200
     23 C19         3.1630   -3.4520  -12.7490 cd        1 CG4     -0.198600
     24 N27         2.7640   -3.9990  -13.9380 nc        1 CG4     -0.275600
     25 C26         3.6220   -3.4830  -14.8860 cc        1 CG4     -0.003400
     26 C25         4.5700   -2.6040  -14.2990 cd        1 CG4     -0.219100
     27 N20         4.2790   -2.5870  -12.9430 na        1 CG4      0.060700
     28 N28         1.5970   -4.5130  -11.2070 nu        1 CG4     -0.703300
     29 C33         0.7410   -4.4800  -10.0780 ca        1 CG4      0.114600
     30 C31        -0.6600   -4.4380  -10.2860 ca        1 CG4     -0.213000
     31 C29        -1.5270   -4.4530   -9.1980 ca        1 CG4      0.110100
     32 O36        -2.9050   -4.4500   -9.3000 os        1 CG4     -0.303900
     33 C37        -3.4320   -4.1120  -10.5770 c3        1 CG4      0.111700
     34 C34         1.2390   -4.5550   -8.7680 ca        1 CG4     -0.103000
     35 C32         0.3650   -4.5550   -7.6800 ca        1 CG4     -0.167000
     36 C30        -1.0130   -4.4990   -7.8750 ca        1 CG4      0.105100
     37 O35        -1.9530   -4.5160   -6.8660 os        1 CG4     -0.308900
     38 C38        -1.4590   -4.2300   -5.5590 c3        1 CG4      0.107700
     39 H2          3.3260   -1.1210   -0.5490 ha        1 CG4      0.155000
     40 H3          4.5500   -1.4480   -2.6980 ha        1 CG4      0.125000
     41 H4          0.8810    1.9130   -2.3470 ha        1 CG4      0.155000
     42 H5          2.0680    1.6310   -4.5260 ha        1 CG4      0.125000
     43 H6          4.9020   -0.7560   -4.8790 hn        1 CG4      0.305500
     44 H7          6.5140    0.4090   -6.4160 ha        1 CG4      0.145000
     45 H8          7.9430   -0.4740   -8.2570 ha        1 CG4      0.133000
     46 H9          2.9800   -1.0170   -8.4640 ha        1 CG4      0.173000
     47 H10         6.9160   -1.6660  -10.1830 ha        1 CG4      0.129000
     48 H11         5.6780   -1.2450  -12.0720 h4        1 CG4      0.174000
     49 H12         3.5370   -3.7510  -15.9400 h4        1 CG4      0.180000
     50 H13         5.3810   -2.0270  -14.7350 h4        1 CG4      0.184000
     51 H14         1.1460   -4.7890  -12.0570 hn        1 CG4      0.444800
     52 H15        -1.0650   -4.3890  -11.3080 ha        1 CG4      0.136000
     53 H16        -3.2220   -4.9250  -11.3150 h1        1 CG4      0.041033
     54 H17        -3.0200   -3.1400  -10.9400 h1        1 CG4      0.041033
     55 H18        -4.5330   -4.0300  -10.3890 h1        1 CG4      0.041033
     56 H19         2.3220   -4.6060   -8.5750 ha        1 CG4      0.159000
     57 H20         0.7810   -4.5920   -6.6620 ha        1 CG4      0.151000
     58 H21        -0.8360   -5.0800   -5.1870 h1        1 CG4      0.050033
     59 H22        -2.3910   -4.1280   -4.9470 h1        1 CG4      0.050033
     60 H23        -0.8730   -3.2800   -5.5480 h1        1 CG4      0.050033
@<TRIPOS>BOND
     1    1    2 1   
     2    2    3 1   
     3    2    4 1   
     4    4    5 ar  
     5    4    7 ar  
     6    5    6 ar  
     7    5   39 1   
     8    6    9 ar  
     9    6   40 1   
    10    7    8 ar  
    11    7   41 1   
    12    8    9 ar  
    13    8   42 1   
    14    9   10 1   
    15   10   11 1   
    16   10   43 1   
    17   11   12 2   
    18   11   13 1   
    19   13   14 ar  
    20   13   16 ar  
    21   14   15 ar  
    22   14   44 1   
    23   15   18 ar  
    24   15   45 1   
    25   16   17 ar  
    26   16   46 1   
    27   17   18 ar  
    28   17   19 1   
    29   18   47 1   
    30   19   20 2   
    31   19   21 1   
    32   20   27 1   
    33   20   48 1   
    34   21   22 2   
    35   22   23 1   
    36   22   28 1   
    37   23   24 2   
    38   23   27 1   
    39   24   25 1   
    40   25   26 2   
    41   25   49 1   
    42   26   27 1   
    43   26   50 1   
    44   28   29 1   
    45   28   51 1   
    46   29   30 ar  
    47   29   34 ar  
    48   30   31 ar  
    49   30   52 1   
    50   31   32 1   
    51   31   36 ar  
    52   32   33 1   
    53   33   53 1   
    54   33   54 1   
    55   33   55 1   
    56   34   35 ar  
    57   34   56 1   
    58   35   36 ar  
    59   35   57 1   
    60   36   37 1   
    61   37   38 1   
    62   38   58 1   
    63   38   59 1   
    64   38   60 1   
@<TRIPOS>SUBSTRUCTURE
     1 CG4         1 TEMP              0 ****  ****    0 ROOT
