@<TRIPOS>MOLECULE
CG4
   62    66     1     0     0
SMALL
bcc


@<TRIPOS>ATOM
      1 O18         5.0080    3.9190   -2.1640 o         1 CG4     -0.808300
      2 C16         4.9390    2.6760   -1.9470 c         1 CG4      0.910200
      3 O17         5.4860    2.0800   -0.9830 o         1 CG4     -0.808300
      4 C7          4.2220    1.8420   -3.0010 ca        1 CG4     -0.071600
      5 C5          4.4880    0.4730   -3.1130 ca        1 CG4     -0.088000
      6 C3          4.0190   -0.2500   -4.2040 ca        1 CG4     -0.122000
      7 C6          3.3810    2.4690   -3.9290 ca        1 CG4     -0.088000
      8 C4          2.8930    1.7690   -5.0250 ca        1 CG4     -0.122000
      9 C2          3.2610    0.4190   -5.1840 ca        1 CG4     -0.102400
     10 N1          2.8890   -0.2800   -6.4180 n4        1 CG4     -0.531200
     11 C8          3.7000    0.2720   -7.5790 c         1 CG4      0.577700
     12 O9          3.0670    0.8940   -8.4180 o         1 CG4     -0.410100
     13 C15         5.1460    0.0010   -7.5240 ca        1 CG4     -0.172600
     14 C13         5.6210   -1.3110   -7.6390 ca        1 CG4     -0.079000
     15 C11         6.9940   -1.5460   -7.6020 ca        1 CG4     -0.114000
     16 C14         6.0300    1.0770   -7.3760 ca        1 CG4     -0.020000
     17 C12         7.4080    0.8300   -7.3330 ca        1 CG4     -0.136500
     18 C10         7.8850   -0.4840   -7.4420 ca        1 CG4     -0.068000
     19 C24         8.3700    1.9330   -7.1650 cc        1 CG4      0.401800
     20 C22         9.5090    1.9540   -7.9770 cd        1 CG4     -0.112600
     21 N23         8.1150    2.8810   -6.1880 nc        1 CG4     -0.588000
     22 C21         9.0190    3.8380   -6.0000 cd        1 CG4      0.542200
     23 C19        10.2330    3.9460   -6.7870 cd        1 CG4     -0.175600
     24 N27        11.2620    4.8370   -6.7690 nc        1 CG4     -0.262600
     25 C26        12.1260    4.4260   -7.7690 cc        1 CG4      0.050600
     26 C25        11.6420    3.2650   -8.4250 cd        1 CG4     -0.174100
     27 N20        10.4350    2.9490   -7.8090 na        1 CG4      0.033700
     28 N28         8.8260    4.8540   -4.9390 n4        1 CG4     -0.591100
     29 C33         9.0040    4.3030   -3.5910 ca        1 CG4     -0.113400
     30 C31        10.2960    3.9340   -3.1520 ca        1 CG4     -0.177000
     31 C29        10.4400    3.4010   -1.8790 ca        1 CG4      0.106100
     32 O36        11.6340    2.9820   -1.3360 os        1 CG4     -0.288900
     33 C37        12.8120    3.3350   -2.0520 c3        1 CG4      0.105700
     34 C34         7.8850    4.1650   -2.7640 ca        1 CG4     -0.061000
     35 C32         8.0390    3.6320   -1.4860 ca        1 CG4     -0.170000
     36 C30         9.2950    3.2220   -1.0360 ca        1 CG4      0.175100
     37 O35         9.5290    2.6370    0.1730 os        1 CG4     -0.291900
     38 C38         8.3740    2.4040    0.9930 c3        1 CG4      0.093700
     39 H2          5.0900   -0.0120   -2.3240 ha        1 CG4      0.187500
     40 H3          4.2550   -1.3210   -4.2930 ha        1 CG4      0.140000
     41 H4          3.1400    3.5380   -3.7830 ha        1 CG4      0.187500
     42 H5          2.2460    2.2740   -5.7590 ha        1 CG4      0.140000
     43 H6          1.8870   -0.1360   -6.6000 hn        1 CG4      0.457300
     44 H7          4.9260   -2.1540   -7.7730 ha        1 CG4      0.146000
     45 H8          7.3770   -2.5750   -7.6940 ha        1 CG4      0.169000
     46 H9          5.6440    2.1060   -7.2850 ha        1 CG4      0.171000
     47 H10         8.9670   -0.6860   -7.3880 ha        1 CG4      0.157000
     48 H11         9.6990    1.2010   -8.7640 h4        1 CG4      0.199000
     49 H12        13.0520    4.9700   -7.9820 h4        1 CG4      0.215000
     50 H13        12.0580    2.6810   -9.2470 h4        1 CG4      0.213000
     51 H14         9.5090    5.6110   -5.0820 hn        1 CG4      0.476300
     52 H15        11.1730    4.0670   -3.8040 ha        1 CG4      0.151000
     53 H16        12.8550    2.7910   -3.0270 h1        1 CG4      0.049700
     54 H17        12.8680    4.4390   -2.2140 h1        1 CG4      0.049700
     55 H18        13.6350    2.9910   -1.3730 h1        1 CG4      0.049700
     56 H19         6.8570    4.4500   -3.0730 ha        1 CG4      0.204000
     57 H20         7.1210    3.5090   -0.8680 ha        1 CG4      0.239000
     58 H21         8.7930    1.8090    1.8440 h1        1 CG4      0.070700
     59 H22         7.5940    1.8260    0.4350 h1        1 CG4      0.070700
     60 H23         7.9620    3.3780    1.3490 h1        1 CG4      0.070700
     61 H121        3.0780   -1.2810   -6.3130 hn        1 CG4      0.457300
     62 H282        7.8700    5.2380   -5.0080 hn        1 CG4      0.476300
@<TRIPOS>BOND
     1    1    2 1   
     2    2    3 1   
     3    2    4 1   
     4    4    5 ar  
     5    4    7 ar  
     6    5    6 ar  
     7    5   39 1   
     8    6    9 ar  
     9    6   40 1   
    10    7    8 ar  
    11    7   41 1   
    12    8    9 ar  
    13    8   42 1   
    14    9   10 1   
    15   10   11 1   
    16   10   43 1   
    17   10   61 1   
    18   11   12 2   
    19   11   13 1   
    20   13   14 ar  
    21   13   16 ar  
    22   14   15 ar  
    23   14   44 1   
    24   15   18 ar  
    25   15   45 1   
    26   16   17 ar  
    27   16   46 1   
    28   17   18 ar  
    29   17   19 1   
    30   18   47 1   
    31   19   20 2   
    32   19   21 1   
    33   20   27 1   
    34   20   48 1   
    35   21   22 2   
    36   22   23 1   
    37   22   28 1   
    38   23   24 2   
    39   23   27 1   
    40   24   25 1   
    41   25   26 2   
    42   25   49 1   
    43   26   27 1   
    44   26   50 1   
    45   28   29 1   
    46   28   51 1   
    47   28   62 1   
    48   29   30 ar  
    49   29   34 ar  
    50   30   31 ar  
    51   30   52 1   
    52   31   32 1   
    53   31   36 ar  
    54   32   33 1   
    55   33   53 1   
    56   33   54 1   
    57   33   55 1   
    58   34   35 ar  
    59   34   56 1   
    60   35   36 ar  
    61   35   57 1   
    62   36   37 1   
    63   37   38 1   
    64   38   58 1   
    65   38   59 1   
    66   38   60 1   
@<TRIPOS>SUBSTRUCTURE
     1 CG4         1 TEMP              0 ****  ****    0 ROOT
