@<TRIPOS>MOLECULE
CG9
   52    57     1     0     0
SMALL
bcc


@<TRIPOS>ATOM
      1 C01        -0.1130    0.1220   -0.2340 c3        1 CG9      0.123900
      2 C02         1.4190    0.1910   -0.1840 c3        1 CG9      0.147800
      3 N03         1.9070    0.4340    1.1650 nh        1 CG9     -0.628000
      4 C04         1.2450    1.5690    1.7950 c3        1 CG9      0.147800
      5 C05        -0.2830    1.4730    1.6940 c3        1 CG9      0.123900
      6 O06        -0.7100    1.2730    0.3520 os        1 CG9     -0.413600
      7 C07         3.3150    0.3850    1.3400 ca        1 CG9      0.122600
      8 C08         4.2150    0.2470    0.2620 ca        1 CG9     -0.154500
      9 C09         5.5780    0.1010    0.4790 ca        1 CG9     -0.116000
     10 C10         6.1090    0.1090    1.7860 ca        1 CG9      0.104600
     11 N11         7.5080    0.0430    1.9740 nh        1 CG9     -0.712300
     12 C12         8.1210   -0.8720    2.8280 cc        1 CG9      0.722200
     13 N13         7.4470   -1.5650    3.7590 nd        1 CG9     -0.731000
     14 C14         8.1580   -2.3810    4.6210 cd        1 CG9      0.466800
     15 C15         9.5400   -2.5490    4.5730 cc        1 CG9     -0.235600
     16 N16        10.2570   -1.8610    3.6160 na        1 CG9      0.054700
     17 C17        11.6040   -1.8180    3.2890 cc        1 CG9     -0.211100
     18 C18        11.7060   -0.9310    2.1840 cd        1 CG9      0.001600
     19 N19        10.4700   -0.4340    1.8270 nd        1 CG9     -0.269600
     20 C20         9.5830   -1.0000    2.6990 cc        1 CG9     -0.198600
     21 C21         7.3990   -3.1240    5.6450 ca        1 CG9     -0.110500
     22 C22         7.9340   -3.2170    6.9520 ca        1 CG9     -0.151000
     23 C23         7.2800   -3.9120    7.9560 ca        1 CG9     -0.066000
     24 C24         6.0640   -4.5230    7.6600 ca        1 CG9     -0.206900
     25 C25         5.0790   -5.3200    8.3810 cc        1 CG9      0.344800
     26 N26         4.0610   -5.6470    7.5610 nd        1 CG9     -0.507100
     27 N27         4.3240   -5.1670    6.3370 na        1 CG9     -0.018100
     28 C28         5.5170   -4.4200    6.3260 ca        1 CG9     -0.061200
     29 C29         6.1850   -3.7190    5.3130 ca        1 CG9     -0.096000
     30 C30         5.2180    0.2650    2.8670 ca        1 CG9     -0.116000
     31 C31         3.8540    0.3910    2.6470 ca        1 CG9     -0.154500
     32 H1         -0.4630    0.1360   -1.2990 h1        1 CG9      0.056200
     33 H2         -0.4870   -0.8010    0.2840 h1        1 CG9      0.056200
     34 H3          1.7590    0.9950   -0.9000 h1        1 CG9      0.047450
     35 H4          1.8320   -0.7960   -0.5350 h1        1 CG9      0.047450
     36 H5          1.5270    1.5940    2.8840 h1        1 CG9      0.047450
     37 H6          1.5730    2.5420    1.3260 h1        1 CG9      0.047450
     38 H7         -0.6720    0.6420    2.3400 h1        1 CG9      0.056200
     39 H8         -0.7490    2.4480    1.9940 h1        1 CG9      0.056200
     40 H9          3.8540    0.2460   -0.7780 ha        1 CG9      0.137000
     41 H10         6.2440   -0.0120   -0.3920 ha        1 CG9      0.145000
     42 H11         8.0530    0.3090    1.1780 hn        1 CG9      0.453800
     43 H12        10.1000   -3.2100    5.2510 h4        1 CG9      0.177000
     44 H13        12.3610   -2.3840    3.8270 h4        1 CG9      0.188000
     45 H14        12.6130   -0.6440    1.6510 h4        1 CG9      0.185000
     46 H15         8.8870   -2.7120    7.1740 ha        1 CG9      0.135000
     47 H16         7.7070   -3.9800    8.9670 ha        1 CG9      0.141000
     48 H17         5.1160   -5.6330    9.4250 h4        1 CG9      0.055800
     49 H19         5.7630   -3.6400    4.3010 ha        1 CG9      0.159000
     50 H20         5.5930    0.2830    3.9030 ha        1 CG9      0.145000
     51 H21         3.1910    0.4880    3.5210 ha        1 CG9      0.137000
     52 H18         3.6020   -5.1180    5.6580 hn        1 CG9      0.322700
@<TRIPOS>BOND
     1    1    2 1   
     2    1    6 1   
     3    1   32 1   
     4    1   33 1   
     5    2    3 1   
     6    2   34 1   
     7    2   35 1   
     8    3    4 1   
     9    3    7 1   
    10    4    5 1   
    11    4   36 1   
    12    4   37 1   
    13    5    6 1   
    14    5   38 1   
    15    5   39 1   
    16    7    8 ar  
    17    7   31 ar  
    18    8    9 ar  
    19    8   40 1   
    20    9   10 ar  
    21    9   41 1   
    22   10   11 1   
    23   10   30 ar  
    24   11   12 1   
    25   11   42 1   
    26   12   13 2   
    27   12   20 1   
    28   13   14 1   
    29   14   15 2   
    30   14   21 1   
    31   15   16 1   
    32   15   43 1   
    33   16   17 1   
    34   16   20 1   
    35   17   18 2   
    36   17   44 1   
    37   18   19 1   
    38   18   45 1   
    39   19   20 2   
    40   21   22 ar  
    41   21   29 ar  
    42   22   23 ar  
    43   22   46 1   
    44   23   24 ar  
    45   23   47 1   
    46   24   25 1   
    47   24   28 ar  
    48   25   26 2   
    49   25   48 1   
    50   26   27 1   
    51   27   28 1   
    52   27   52 1   
    53   28   29 ar  
    54   29   49 1   
    55   30   31 ar  
    56   30   50 1   
    57   31   51 1   
@<TRIPOS>SUBSTRUCTURE
     1 CG9         1 TEMP              0 ****  ****    0 ROOT
