@<TRIPOS>MOLECULE
CG9
   52    57     1     0     0
SMALL
bcc


@<TRIPOS>ATOM
      1 C01        -0.1130    0.1170   -0.2360 c3        1 CG9      0.123900
      2 C02         1.4200    0.1890   -0.1850 c3        1 CG9      0.147800
      3 N03         1.9060    0.4300    1.1640 nh        1 CG9     -0.628000
      4 C04         1.2410    1.5640    1.7960 c3        1 CG9      0.147800
      5 C05        -0.2860    1.4640    1.6930 c3        1 CG9      0.123900
      6 O06        -0.7120    1.2660    0.3500 os        1 CG9     -0.413600
      7 C07         3.3140    0.3850    1.3410 ca        1 CG9      0.122600
      8 C08         4.2150    0.2500    0.2630 ca        1 CG9     -0.154500
      9 C09         5.5790    0.1060    0.4810 ca        1 CG9     -0.116000
     10 C10         6.1080    0.1130    1.7890 ca        1 CG9      0.104600
     11 N11         7.5070    0.0490    1.9780 nu        1 CG9     -0.712300
     12 C12         8.1200   -0.8660    2.8320 cc        1 CG9      0.722200
     13 N13         7.4470   -1.5620    3.7610 nd        1 CG9     -0.731000
     14 C14         8.1590   -2.3780    4.6220 cd        1 CG9      0.466800
     15 C15         9.5410   -2.5430    4.5750 cc        1 CG9     -0.235600
     16 N16        10.2580   -1.8530    3.6200 na        1 CG9      0.054700
     17 C17        11.6050   -1.8060    3.2940 cc        1 CG9     -0.211100
     18 C18        11.7070   -0.9180    2.1910 cd        1 CG9      0.001600
     19 N19        10.4700   -0.4230    1.8330 nd        1 CG9     -0.269600
     20 C20         9.5830   -0.9910    2.7040 cc        1 CG9     -0.198600
     21 C21         7.4000   -3.1240    5.6440 ca        1 CG9     -0.110500
     22 C22         7.9340   -3.2180    6.9510 ca        1 CG9     -0.151000
     23 C23         7.2800   -3.9160    7.9540 ca        1 CG9     -0.066000
     24 C24         6.0650   -4.5290    7.6560 ca        1 CG9     -0.206900
     25 C25         5.0810   -5.3280    8.3740 cc        1 CG9      0.344800
     26 N26         4.0650   -5.6560    7.5530 nd        1 CG9     -0.507100
     27 N27         4.3290   -5.1730    6.3300 na        1 CG9     -0.018100
     28 C28         5.5200   -4.4240    6.3210 ca        1 CG9     -0.061200
     29 C29         6.1870   -3.7210    5.3100 ca        1 CG9     -0.096000
     30 C30         5.2160    0.2650    2.8700 ca        1 CG9     -0.116000
     31 C31         3.8520    0.3890    2.6480 ca        1 CG9     -0.154500
     32 H1         -0.4610    0.1320   -1.3020 h1        1 CG9      0.056200
     33 H2         -0.4850   -0.8070    0.2800 h1        1 CG9      0.056200
     34 H3          1.8350   -0.7970   -0.5380 h1        1 CG9      0.047450
     35 H4          1.7580    0.9940   -0.9000 h1        1 CG9      0.047450
     36 H5          1.5680    2.5380    1.3280 h1        1 CG9      0.047450
     37 H6          1.5220    1.5880    2.8850 h1        1 CG9      0.047450
     38 H7         -0.7540    2.4380    1.9940 h1        1 CG9      0.056200
     39 H8         -0.6740    0.6320    2.3370 h1        1 CG9      0.056200
     40 H9          3.8550    0.2500   -0.7770 ha        1 CG9      0.137000
     41 H10         6.2450   -0.0040   -0.3890 ha        1 CG9      0.145000
     42 H11         8.0520    0.3180    1.1830 hn        1 CG9      0.453800
     43 H12        10.1010   -3.2040    5.2520 h4        1 CG9      0.177000
     44 H13        12.3620   -2.3720    3.8320 h4        1 CG9      0.188000
     45 H14        12.6140   -0.6280    1.6590 h4        1 CG9      0.185000
     46 H15         8.8850   -2.7110    7.1750 ha        1 CG9      0.135000
     47 H16         7.7060   -3.9840    8.9650 ha        1 CG9      0.141000
     48 H17         5.1180   -5.6420    9.4180 h4        1 CG9      0.055800
     49 H19         5.7670   -3.6410    4.2980 ha        1 CG9      0.159000
     50 H20         5.5890    0.2820    3.9060 ha        1 CG9      0.145000
     51 H21         3.1880    0.4830    3.5220 ha        1 CG9      0.137000
     52 H18         3.6070   -5.1260    5.6500 hn        1 CG9      0.322700
@<TRIPOS>BOND
     1    1    2 1   
     2    1    6 1   
     3    1   32 1   
     4    1   33 1   
     5    2    3 1   
     6    2   34 1   
     7    2   35 1   
     8    3    4 1   
     9    3    7 1   
    10    4    5 1   
    11    4   36 1   
    12    4   37 1   
    13    5    6 1   
    14    5   38 1   
    15    5   39 1   
    16    7    8 ar  
    17    7   31 ar  
    18    8    9 ar  
    19    8   40 1   
    20    9   10 ar  
    21    9   41 1   
    22   10   11 1   
    23   10   30 ar  
    24   11   12 1   
    25   11   42 1   
    26   12   13 2   
    27   12   20 1   
    28   13   14 1   
    29   14   15 2   
    30   14   21 1   
    31   15   16 1   
    32   15   43 1   
    33   16   17 1   
    34   16   20 1   
    35   17   18 2   
    36   17   44 1   
    37   18   19 1   
    38   18   45 1   
    39   19   20 2   
    40   21   22 ar  
    41   21   29 ar  
    42   22   23 ar  
    43   22   46 1   
    44   23   24 ar  
    45   23   47 1   
    46   24   25 1   
    47   24   28 ar  
    48   25   26 2   
    49   25   48 1   
    50   26   27 1   
    51   27   28 1   
    52   27   52 1   
    53   28   29 ar  
    54   29   49 1   
    55   30   31 ar  
    56   30   50 1   
    57   31   51 1   
@<TRIPOS>SUBSTRUCTURE
     1 CG9         1 TEMP              0 ****  ****    0 ROOT
