@<TRIPOS>MOLECULE
CG9
   53    58     1     0     0
SMALL
bcc


@<TRIPOS>ATOM
      1 C01         0.8340    0.4940   -1.6140 c3        1 CG9      0.116900
      2 C02         2.1900    0.7580   -0.9480 c3        1 CG9      0.163800
      3 N03         2.2280    0.4920    0.4790 nh        1 CG9     -0.635000
      4 C04         1.0000    0.6550    1.2370 c3        1 CG9      0.163800
      5 C05        -0.2850    0.3980    0.4400 c3        1 CG9      0.116900
      6 O06        -0.2430    1.0040   -0.8430 os        1 CG9     -0.389600
      7 C07         3.4350    0.6100    1.1420 ca        1 CG9      0.249600
      8 C08         4.6700    0.7000    0.4320 ca        1 CG9     -0.203500
      9 C09         5.8830    0.7270    1.0920 ca        1 CG9     -0.037000
     10 C10         5.9210    0.6940    2.4980 ca        1 CG9     -0.150400
     11 N11         7.2030    0.7540    3.1990 n4        1 CG9     -0.585100
     12 C12         7.7470   -0.5880    3.5120 cc        1 CG9      0.513200
     13 N13         7.3690   -1.2100    4.6250 nd        1 CG9     -0.603000
     14 C14         7.9070   -2.4580    4.8810 cd        1 CG9      0.432800
     15 C15         8.8090   -3.0910    4.0140 cc        1 CG9     -0.119600
     16 N16         9.2010   -2.4560    2.8640 na        1 CG9      0.044700
     17 C17        10.0580   -2.7820    1.8180 cc        1 CG9     -0.178100
     18 C18        10.0290   -1.6780    0.9260 cd        1 CG9      0.048600
     19 N19         9.1830   -0.6830    1.3810 nd        1 CG9     -0.279600
     20 C20         8.6760   -1.1500    2.5570 cc        1 CG9     -0.172600
     21 C21         7.5250   -3.1480    6.1230 ca        1 CG9     -0.141500
     22 C22         8.5480   -3.7440    6.8980 ca        1 CG9     -0.157000
     23 C23         8.2610   -4.4250    8.0710 ca        1 CG9     -0.046000
     24 C24         6.9340   -4.5170    8.4810 ca        1 CG9     -0.192900
     25 C25         6.2150   -5.1150    9.5980 cc        1 CG9      0.350800
     26 N26         4.8940   -4.8770    9.4730 nd        1 CG9     -0.480100
     27 N27         4.6900   -4.1620    8.3600 na        1 CG9     -0.017100
     28 C28         5.8910   -3.9010    7.6860 ca        1 CG9     -0.057200
     29 C29         6.1870   -3.2100    6.5030 ca        1 CG9     -0.095000
     30 C30         4.7210    0.6170    3.2290 ca        1 CG9     -0.037000
     31 C31         3.5090    0.5910    2.5680 ca        1 CG9     -0.203500
     32 H1          0.6900   -0.6050   -1.7920 h1        1 CG9      0.071450
     33 H2          0.7770    1.0530   -2.5860 h1        1 CG9      0.071450
     34 H3          2.9420    0.0870   -1.4560 h1        1 CG9      0.058950
     35 H4          2.4830    1.8320   -1.1360 h1        1 CG9      0.058950
     36 H5          0.9590    1.7000    1.6630 h1        1 CG9      0.058950
     37 H6          1.0090   -0.0800    2.0930 h1        1 CG9      0.058950
     38 H7         -1.1530    0.8870    0.9570 h1        1 CG9      0.071450
     39 H8         -0.4690   -0.7050    0.3350 h1        1 CG9      0.071450
     40 H9          4.6850    0.7520   -0.6690 ha        1 CG9      0.161000
     41 H10         6.8150    0.7790    0.5000 ha        1 CG9      0.158000
     42 H11         7.0740    1.2820    4.0750 hn        1 CG9      0.473300
     43 H12         9.2240   -4.0950    4.2200 h4        1 CG9      0.208000
     44 H13        10.6070   -3.7230    1.7740 h4        1 CG9      0.214000
     45 H14        10.5820   -1.5720   -0.0120 h4        1 CG9      0.211000
     46 H15         9.5940   -3.6500    6.5690 ha        1 CG9      0.135000
     47 H16         9.0640   -4.8810    8.6700 ha        1 CG9      0.156000
     48 H17         6.6350   -5.6780   10.4340 h4        1 CG9      0.069800
     49 H19         5.3940   -2.7430    5.9040 ha        1 CG9      0.146000
     50 H20         4.7320    0.5820    4.3320 ha        1 CG9      0.158000
     51 H21         2.5920    0.5560    3.1780 ha        1 CG9      0.161000
     52 H18         3.7720   -3.9110    8.0800 hn        1 CG9      0.332700
     53 H112        7.8890    1.2440    2.6050 hn        1 CG9      0.473300
@<TRIPOS>BOND
     1    1    2 1   
     2    1    6 1   
     3    1   32 1   
     4    1   33 1   
     5    2    3 1   
     6    2   34 1   
     7    2   35 1   
     8    3    4 1   
     9    3    7 1   
    10    4    5 1   
    11    4   36 1   
    12    4   37 1   
    13    5    6 1   
    14    5   38 1   
    15    5   39 1   
    16    7    8 ar  
    17    7   31 ar  
    18    8    9 ar  
    19    8   40 1   
    20    9   10 ar  
    21    9   41 1   
    22   10   11 1   
    23   10   30 ar  
    24   11   12 1   
    25   11   42 1   
    26   11   53 1   
    27   12   13 2   
    28   12   20 1   
    29   13   14 1   
    30   14   15 2   
    31   14   21 1   
    32   15   16 1   
    33   15   43 1   
    34   16   17 1   
    35   16   20 1   
    36   17   18 2   
    37   17   44 1   
    38   18   19 1   
    39   18   45 1   
    40   19   20 2   
    41   21   22 ar  
    42   21   29 ar  
    43   22   23 ar  
    44   22   46 1   
    45   23   24 ar  
    46   23   47 1   
    47   24   25 1   
    48   24   28 ar  
    49   25   26 2   
    50   25   48 1   
    51   26   27 1   
    52   27   28 1   
    53   27   52 1   
    54   28   29 ar  
    55   29   49 1   
    56   30   31 ar  
    57   30   50 1   
    58   31   51 1   
@<TRIPOS>SUBSTRUCTURE
     1 CG9         1 TEMP              0 ****  ****    0 ROOT
