@<TRIPOS>MOLECULE
CGA
   23    22     1     0     0
SMALL
bcc


@<TRIPOS>ATOM
      1 N           3.0120    1.8370   -0.5230 n3        1 CGA     -0.894800
      2 CA          2.8680    0.6590    0.3250 c3        1 CGA      0.023500
      3 C           4.1520   -0.2290    0.4050 c         1 CGA      0.888600
      4 O           5.1550    0.1000   -0.2970 o         1 CGA     -0.852800
      5 CB          1.6770   -0.2250   -0.0550 c3        1 CGA     -0.063400
      6 CG          0.3550    0.4690    0.1960 c3        1 CGA     -0.126400
      7 CD         -0.8100   -0.2800   -0.3800 c         1 CGA      0.621100
      8 OE1        -0.8140   -1.1070   -1.3020 o         1 CGA     -0.595000
      9 OE2        -1.9950    0.0550    0.2030 os        1 CGA     -0.409900
     10 C1         -4.4110    0.0860    0.3380 c         1 CGA      0.918600
     11 C2         -3.1750   -0.5760   -0.3160 c3        1 CGA      0.020400
     12 O1         -4.8200    1.1830   -0.1330 o         1 CGA     -0.841800
     13 O2         -4.9910   -0.5530    1.2600 o         1 CGA     -0.841800
     14 H1          3.9720    2.1350   -0.4620 hn        1 CGA      0.328800
     15 H2          2.8610    1.5660   -1.4790 hn        1 CGA      0.328800
     16 H4          2.6920    1.0480    1.3720 h1        1 CGA      0.041700
     17 H6          1.7420   -0.5320   -1.1320 hc        1 CGA      0.057700
     18 H7          1.7420   -1.1600    0.5620 hc        1 CGA      0.057700
     19 H8          0.1910    0.6080    1.2970 hc        1 CGA      0.070700
     20 H9          0.3490    1.4890   -0.2750 hc        1 CGA      0.070700
     21 H10        -3.2040   -0.4410   -1.4270 h1        1 CGA      0.025200
     22 H11        -3.1260   -1.6670   -0.0690 h1        1 CGA      0.025200
     23 OXT         4.1430   -1.2140    1.1940 o         1 CGA     -0.852800
@<TRIPOS>BOND
     1    1    2 1   
     2    1   14 1   
     3    1   15 1   
     4    2    3 1   
     5    2    5 1   
     6    2   16 1   
     7    3    4 1   
     8    3   23 1   
     9    5    6 1   
    10    5   17 1   
    11    5   18 1   
    12    6    7 1   
    13    6   19 1   
    14    6   20 1   
    15    7    8 2   
    16    7    9 1   
    17    9   11 1   
    18   10   11 1   
    19   10   12 1   
    20   10   13 1   
    21   11   21 1   
    22   11   22 1   
@<TRIPOS>SUBSTRUCTURE
     1 CGA         1 TEMP              0 ****  ****    0 ROOT
