@<TRIPOS>MOLECULE
CGB
   25    26     1     0     0
SMALL
bcc


@<TRIPOS>ATOM
      1 O2          2.6790   -0.2310    0.0090 oh        1 CGB     -0.591800
      2 C2          1.2710   -0.2310    0.0090 c3        1 CGB      0.315000
      3 N1          0.8890   -0.2310    1.0540 n3        1 CGB     -0.802200
      4 C8          0.9190   -1.1310   -0.3490 c3        1 CGB     -0.102400
      5 C7         -0.5250   -1.3640    0.5670 c3        1 CGB     -0.112400
      6 C6         -0.4970   -0.4950    1.1690 c3        1 CGB      0.155500
      7 C3          0.8990    0.5400   -0.6520 c3        1 CGB      0.098100
      8 O3          1.0090    0.0230   -2.1040 oh        1 CGB     -0.610800
      9 C4         -0.8590    1.0530   -0.3540 c3        1 CGB      0.112100
     10 O4         -0.8800    2.5010   -0.0500 oh        1 CGB     -0.608800
     11 C5         -1.3730    0.4830    0.5240 c3        1 CGB      0.156100
     12 O5         -2.6850   -0.3070   -0.0680 oh        1 CGB     -0.601800
     13 HO          2.9750    0.3460    0.6150 ho        1 CGB      0.417000
     14 H1          1.3570   -0.8390    1.5490 hn        1 CGB      0.367800
     15 H8C1        1.5590   -1.8480   -0.1740 hc        1 CGB      0.068700
     16 H8C2        0.7180   -1.0700   -1.3020 hc        1 CGB      0.068700
     17 H7C1       -0.4730   -2.1730    1.1100 hc        1 CGB      0.064200
     18 H7C2       -1.3120   -1.3700   -0.0090 hc        1 CGB      0.064200
     19 H6         -0.7610   -0.6830    2.0900 h1        1 CGB      0.086700
     20 H3          1.4700    1.3270   -0.5600 h1        1 CGB      0.064700
     21 HA          1.3120    0.6720   -2.6280 ho        1 CGB      0.422000
     22 H4         -1.3720    0.8980   -1.1690 h1        1 CGB      0.061700
     23 HB         -1.2300    2.9430   -0.7350 ho        1 CGB      0.420000
     24 H5         -1.6690    1.1320    1.1920 h1        1 CGB      0.068700
     25 HC         -3.4240    0.0550    0.2660 ho        1 CGB      0.419000
@<TRIPOS>BOND
     1    1    2 1   
     2    1   13 1   
     3    2    3 1   
     4    2    4 1   
     5    2    7 1   
     6    3    6 1   
     7    3   14 1   
     8    4    5 1   
     9    4   15 1   
    10    4   16 1   
    11    5    6 1   
    12    5   17 1   
    13    5   18 1   
    14    6   11 1   
    15    6   19 1   
    16    7    8 1   
    17    7    9 1   
    18    7   20 1   
    19    8   21 1   
    20    9   10 1   
    21    9   11 1   
    22    9   22 1   
    23   10   23 1   
    24   11   12 1   
    25   11   24 1   
    26   12   25 1   
@<TRIPOS>SUBSTRUCTURE
     1 CGB         1 TEMP              0 ****  ****    0 ROOT
