@<TRIPOS>MOLECULE
CGB
   25    26     1     0     0
SMALL
bcc


@<TRIPOS>ATOM
      1 O2          1.4020   -0.1890    0.1900 oh        1 CGB     -0.573800
      2 C2          0.0010   -0.0520    0.0970 c3        1 CGB      0.361000
      3 N1         -0.6520    0.0580    1.4380 n3        1 CGB     -0.804200
      4 C8         -0.5750   -1.3440   -0.5700 c3        1 CGB     -0.102400
      5 C7         -1.9200   -1.5520    0.1230 c3        1 CGB     -0.117400
      6 C6         -2.0270   -0.3620    1.1180 c3        1 CGB      0.121500
      7 C3         -0.4380    1.2130   -0.7000 c3        1 CGB      0.133100
      8 O3          0.2130    1.1610   -1.9560 oh        1 CGB     -0.596800
      9 C4         -1.9700    1.2160   -0.8800 c3        1 CGB      0.117100
     10 O4         -2.3110    2.5320   -1.2860 oh        1 CGB     -0.610800
     11 C5         -2.7180    0.8350    0.4140 c3        1 CGB      0.114100
     12 O5         -4.0390    0.5050    0.0100 oh        1 CGB     -0.607800
     13 HO          1.7870    0.6950    0.1430 ho        1 CGB      0.419000
     14 H1         -0.2200   -0.5770    2.0830 hn        1 CGB      0.371800
     15 H8C1       -0.6750   -1.1920   -1.6690 hc        1 CGB      0.072200
     16 H8C2        0.1230   -2.1980   -0.3930 hc        1 CGB      0.072200
     17 H7C1       -1.9440   -2.5220    0.6750 hc        1 CGB      0.059200
     18 H7C2       -2.7720   -1.5360   -0.5980 hc        1 CGB      0.059200
     19 H6         -2.5930   -0.6400    2.0420 h1        1 CGB      0.066700
     20 H3         -0.1210    2.1460   -0.1540 h1        1 CGB      0.067700
     21 HA         -0.1310    1.9040   -2.4700 ho        1 CGB      0.421000
     22 H4         -2.2550    0.4910   -1.6970 h1        1 CGB      0.063700
     23 HB         -3.2740    2.5540   -1.3660 ho        1 CGB      0.421000
     24 H5         -2.7520    1.7210    1.1080 h1        1 CGB      0.064700
     25 HC         -4.5120    0.2180    0.7990 ho        1 CGB      0.409000
@<TRIPOS>BOND
     1    1    2 1   
     2    1   13 1   
     3    2    3 1   
     4    2    4 1   
     5    2    7 1   
     6    3    6 1   
     7    3   14 1   
     8    4    5 1   
     9    4   15 1   
    10    4   16 1   
    11    5    6 1   
    12    5   17 1   
    13    5   18 1   
    14    6   11 1   
    15    6   19 1   
    16    7    8 1   
    17    7    9 1   
    18    7   20 1   
    19    8   21 1   
    20    9   10 1   
    21    9   11 1   
    22    9   22 1   
    23   10   23 1   
    24   11   12 1   
    25   11   24 1   
    26   12   25 1   
@<TRIPOS>SUBSTRUCTURE
     1 CGB         1 TEMP              0 ****  ****    0 ROOT
