@<TRIPOS>MOLECULE
CGB
   25    26     1     0     0
SMALL
bcc


@<TRIPOS>ATOM
      1 O2          1.3970   -0.1880    0.2270 oh        1 CGB     -0.573800
      2 C2         -0.0020   -0.0510    0.1150 c3        1 CGB      0.361000
      3 N1         -0.6720    0.0630    1.4480 n3        1 CGB     -0.804200
      4 C8         -0.5690   -1.3450   -0.5540 c3        1 CGB     -0.102400
      5 C7         -1.9230   -1.5510    0.1220 c3        1 CGB     -0.117400
      6 C6         -2.0420   -0.3580    1.1110 c3        1 CGB      0.121500
      7 C3         -0.4310    1.2120   -0.6920 c3        1 CGB      0.133100
      8 O3          0.2350    1.1550   -1.9390 oh        1 CGB     -0.596800
      9 C4         -1.9610    1.2130   -0.8910 c3        1 CGB      0.117100
     10 O4         -2.2970    2.5280   -1.3050 oh        1 CGB     -0.610800
     11 C5         -2.7250    0.8360    0.3950 c3        1 CGB      0.114100
     12 O5         -4.0410    0.5050   -0.0250 oh        1 CGB     -0.607800
     13 HO          1.7830    0.6970    0.1820 ho        1 CGB      0.419000
     14 H1         -0.2480   -0.5690    2.1000 hn        1 CGB      0.371800
     15 H8C1        0.1270   -2.1980   -0.3660 hc        1 CGB      0.072200
     16 H8C2       -0.6560   -1.1960   -1.6560 hc        1 CGB      0.072200
     17 H7C1       -1.9540   -2.5190    0.6770 hc        1 CGB      0.059200
     18 H7C2       -2.7650   -1.5380   -0.6100 hc        1 CGB      0.059200
     19 H6         -2.6200   -0.6340    2.0300 h1        1 CGB      0.066700
     20 H3         -0.1220    2.1470   -0.1440 h1        1 CGB      0.067700
     21 HA         -0.1020    1.8970   -2.4590 ho        1 CGB      0.421000
     22 H4         -2.2350    0.4860   -1.7090 h1        1 CGB      0.063700
     23 HB         -3.2590    2.5500   -1.3970 ho        1 CGB      0.421000
     24 H5         -2.7680    1.7250    1.0850 h1        1 CGB      0.064700
     25 HC         -4.5230    0.2200    0.7600 ho        1 CGB      0.409000
@<TRIPOS>BOND
     1    1    2 1   
     2    1   13 1   
     3    2    3 1   
     4    2    4 1   
     5    2    7 1   
     6    3    6 1   
     7    3   14 1   
     8    4    5 1   
     9    4   15 1   
    10    4   16 1   
    11    5    6 1   
    12    5   17 1   
    13    5   18 1   
    14    6   11 1   
    15    6   19 1   
    16    7    8 1   
    17    7    9 1   
    18    7   20 1   
    19    8   21 1   
    20    9   10 1   
    21    9   11 1   
    22    9   22 1   
    23   10   23 1   
    24   11   12 1   
    25   11   24 1   
    26   12   25 1   
@<TRIPOS>SUBSTRUCTURE
     1 CGB         1 TEMP              0 ****  ****    0 ROOT
