@<TRIPOS>MOLECULE
CGB
   25    26     1     0     0
SMALL
bcc


@<TRIPOS>ATOM
      1 O2          1.4000   -0.1890    0.2050 oh        1 CGB     -0.573800
      2 C2         -0.0010   -0.0520    0.1050 c3        1 CGB      0.361000
      3 N1         -0.6600    0.0600    1.4420 n7        1 CGB     -0.804200
      4 C8         -0.5720   -1.3450   -0.5630 c3        1 CGB     -0.102400
      5 C7         -1.9210   -1.5520    0.1230 c3        1 CGB     -0.117400
      6 C6         -2.0330   -0.3600    1.1150 c3        1 CGB      0.121500
      7 C3         -0.4350    1.2120   -0.6970 c3        1 CGB      0.133100
      8 O3          0.2220    1.1580   -1.9490 oh        1 CGB     -0.596800
      9 C4         -1.9660    1.2140   -0.8850 c3        1 CGB      0.117100
     10 O4         -2.3050    2.5300   -1.2950 oh        1 CGB     -0.610800
     11 C5         -2.7210    0.8360    0.4060 c3        1 CGB      0.114100
     12 O5         -4.0400    0.5050   -0.0050 oh        1 CGB     -0.607800
     13 HO          1.7850    0.6960    0.1590 ho        1 CGB      0.419000
     14 H1         -0.2310   -0.5730    2.0900 hn        1 CGB      0.371800
     15 H8C1       -0.6670   -1.1940   -1.6630 hc        1 CGB      0.072200
     16 H8C2        0.1240   -2.1980   -0.3810 hc        1 CGB      0.072200
     17 H7C1       -2.7690   -1.5370   -0.6030 hc        1 CGB      0.059200
     18 H7C2       -1.9490   -2.5200    0.6770 hc        1 CGB      0.059200
     19 H6         -2.6040   -0.6370    2.0380 h1        1 CGB      0.066700
     20 H3         -0.1210    2.1460   -0.1510 h1        1 CGB      0.067700
     21 HA         -0.1190    1.9000   -2.4660 ho        1 CGB      0.421000
     22 H4         -2.2470    0.4890   -1.7020 h1        1 CGB      0.063700
     23 HB         -3.2670    2.5520   -1.3800 ho        1 CGB      0.421000
     24 H5         -2.7580    1.7230    1.0980 h1        1 CGB      0.064700
     25 HC         -4.5160    0.2190    0.7830 ho        1 CGB      0.409000
@<TRIPOS>BOND
     1    1    2 1   
     2    1   13 1   
     3    2    3 1   
     4    2    4 1   
     5    2    7 1   
     6    3    6 1   
     7    3   14 1   
     8    4    5 1   
     9    4   15 1   
    10    4   16 1   
    11    5    6 1   
    12    5   17 1   
    13    5   18 1   
    14    6   11 1   
    15    6   19 1   
    16    7    8 1   
    17    7    9 1   
    18    7   20 1   
    19    8   21 1   
    20    9   10 1   
    21    9   11 1   
    22    9   22 1   
    23   10   23 1   
    24   11   12 1   
    25   11   24 1   
    26   12   25 1   
@<TRIPOS>SUBSTRUCTURE
     1 CGB         1 TEMP              0 ****  ****    0 ROOT
