@<TRIPOS>MOLECULE
CGB
   25    26     1     0     0
SMALL
bcc


@<TRIPOS>ATOM
      1 O2         -2.6730    0.0470   -0.5230 oh        1 CGB     -0.559800
      2 C2         -1.3320   -0.2290   -0.1770 c3        1 CGB      0.359000
      3 N1         -0.6750   -1.2020   -1.1020 n3        1 CGB     -0.804200
      4 C8         -1.1630   -0.8170    1.2630 c3        1 CGB     -0.137400
      5 C7          0.0720   -1.7110    1.1580 c3        1 CGB     -0.112400
      6 C6          0.5160   -1.5820   -0.3260 c3        1 CGB      0.158500
      7 C3         -0.5470    1.1130   -0.2960 c3        1 CGB      0.179100
      8 O3         -1.1260    2.0200    0.6260 oh        1 CGB     -0.590800
      9 C4          0.9360    0.8920    0.0820 c3        1 CGB      0.073100
     10 O4          1.6320    2.0130   -0.4480 oh        1 CGB     -0.603800
     11 C5          1.5300   -0.4180   -0.4740 c3        1 CGB      0.117100
     12 O5          2.6830   -0.7760    0.2740 oh        1 CGB     -0.599800
     13 HO         -3.2110   -0.6960   -0.2200 ho        1 CGB      0.402000
     14 H1         -1.2710   -1.9910   -1.2630 hn        1 CGB      0.360800
     15 H8C1       -1.0290    0.0110    1.9990 hc        1 CGB      0.064700
     16 H8C2       -2.0690   -1.4000    1.5530 hc        1 CGB      0.064700
     17 H7C1        0.8910   -1.3830    1.8410 hc        1 CGB      0.061200
     18 H7C2       -0.1760   -2.7730    1.3950 hc        1 CGB      0.061200
     19 H6          0.9760   -2.5290   -0.7070 h1        1 CGB      0.080700
     20 H3         -0.6290    1.5100   -1.3440 h1        1 CGB      0.081700
     21 HA         -0.7410    2.8830    0.4260 ho        1 CGB      0.414000
     22 H4          1.0290    0.8870    1.2060 h1        1 CGB      0.060700
     23 HB          2.5220    1.9860   -0.0770 ho        1 CGB      0.400000
     24 H5          1.7970   -0.2790   -1.5580 h1        1 CGB      0.067700
     25 HC          3.4050   -0.2300   -0.0580 ho        1 CGB      0.401000
@<TRIPOS>BOND
     1    1    2 1   
     2    1   13 1   
     3    2    3 1   
     4    2    4 1   
     5    2    7 1   
     6    3    6 1   
     7    3   14 1   
     8    4    5 1   
     9    4   15 1   
    10    4   16 1   
    11    5    6 1   
    12    5   17 1   
    13    5   18 1   
    14    6   11 1   
    15    6   19 1   
    16    7    8 1   
    17    7    9 1   
    18    7   20 1   
    19    8   21 1   
    20    9   10 1   
    21    9   11 1   
    22    9   22 1   
    23   10   23 1   
    24   11   12 1   
    25   11   24 1   
    26   12   25 1   
@<TRIPOS>SUBSTRUCTURE
     1 CGB         1 TEMP              0 ****  ****    0 ROOT
