@<TRIPOS>MOLECULE
CGC
   43    44     1     0     0
SMALL
bcc


@<TRIPOS>ATOM
      1 C1          0.0000    0.0140    0.1720 c3        1 CGC      0.298900
      2 O1         -0.5170    0.2580   -1.1110 os        1 CGC     -0.406600
      3 C2          1.5370    0.0830    0.0440 c3        1 CGC      0.087100
      4 C3          2.1520    0.0750    1.4480 c3        1 CGC      0.107100
      5 O2          2.0420   -1.0530   -0.6360 oh        1 CGC     -0.615800
      6 O5         -0.4870    1.1110    0.9410 os        1 CGC     -0.433600
      7 C5          0.0180    1.1250    2.2750 c3        1 CGC      0.108100
      8 C4          1.5520    1.2280    2.2710 c3        1 CGC      0.118100
      9 O4          1.9830    1.1500    3.6200 oh        1 CGC     -0.601800
     10 O3          3.5540    0.2900    1.4030 oh        1 CGC     -0.616800
     11 C6         -0.6070    2.3550    2.9390 c3        1 CGC      0.144400
     12 O6         -2.0090    2.2360    3.0180 oh        1 CGC     -0.605800
     13 O61        -4.6100   -1.5860   -1.0990 oh        1 CGC     -0.667800
     14 C61        -3.5540   -1.7820   -2.0220 c3        1 CGC      0.306900
     15 C51        -2.2230   -1.4500   -1.3240 c3        1 CGC      0.090100
     16 O51        -2.1920   -2.0370   -0.0340 oh        1 CGC     -0.616800
     17 C41        -1.9350    0.0580   -1.2440 c3        1 CGC      0.116100
     18 C31        -2.3250    0.7830   -2.5460 c3        1 CGC      0.155100
     19 O31        -2.2500    2.1700   -2.2710 oh        1 CGC     -0.626800
     20 C21        -3.7480    0.3950   -2.9610 c3        1 CGC     -0.036900
     21 O21        -3.8370   -1.0160   -3.1610 os        1 CGC     -0.397600
     22 C11        -4.1810    1.0720   -4.3030 c         1 CGC      0.937600
     23 O1A        -5.2990    0.7600   -4.7770 o         1 CGC     -0.815800
     24 O1B        -3.3870    1.9320   -4.7790 o         1 CGC     -0.815800
     25 H1         -0.3480   -0.9650    0.6060 h2        1 CGC      0.078700
     26 H2          1.8290    1.0180   -0.5100 h1        1 CGC      0.077700
     27 H3          1.9490   -0.9120    1.9520 h1        1 CGC      0.060700
     28 H4          1.5460   -1.1160   -1.4640 ho        1 CGC      0.431000
     29 H5         -0.3000    0.1880    2.8100 h1        1 CGC      0.063700
     30 H6          1.8760    2.2100    1.8270 h1        1 CGC      0.061700
     31 H7          2.9470    1.0950    3.5920 ho        1 CGC      0.418000
     32 H8          3.9030   -0.3180    0.7390 ho        1 CGC      0.425000
     33 H9         -0.2460    2.4230    4.0000 h1        1 CGC      0.056700
     34 H10        -0.3240    3.2800    2.3700 h1        1 CGC      0.056700
     35 H11        -2.3350    2.1340    2.1130 ho        1 CGC      0.422000
     36 H12        -5.3870   -1.3060   -1.6020 ho        1 CGC      0.440000
     37 H13        -3.5550   -2.8560   -2.3700 h2        1 CGC      0.065700
     38 H14        -1.3860   -1.9540   -1.8860 h1        1 CGC      0.080700
     39 H15        -2.9980   -1.7640    0.4260 ho        1 CGC      0.421000
     40 H16        -2.4660    0.5180   -0.3680 h1        1 CGC      0.074700
     41 H17        -1.6020    0.5160   -3.3650 h1        1 CGC      0.060700
     42 H18        -2.4890    2.6190   -3.1010 ho        1 CGC      0.453000
     43 H19        -4.4720    0.7090   -2.1620 h1        1 CGC      0.038700
@<TRIPOS>BOND
     1    1    2 1   
     2    1    3 1   
     3    1    6 1   
     4    1   25 1   
     5    2   17 1   
     6    3    4 1   
     7    3    5 1   
     8    3   26 1   
     9    4    8 1   
    10    4   10 1   
    11    4   27 1   
    12    5   28 1   
    13    6    7 1   
    14    7    8 1   
    15    7   11 1   
    16    7   29 1   
    17    8    9 1   
    18    8   30 1   
    19    9   31 1   
    20   10   32 1   
    21   11   12 1   
    22   11   33 1   
    23   11   34 1   
    24   12   35 1   
    25   13   14 1   
    26   13   36 1   
    27   14   15 1   
    28   14   21 1   
    29   14   37 1   
    30   15   16 1   
    31   15   17 1   
    32   15   38 1   
    33   16   39 1   
    34   17   18 1   
    35   17   40 1   
    36   18   19 1   
    37   18   20 1   
    38   18   41 1   
    39   19   42 1   
    40   20   21 1   
    41   20   22 1   
    42   20   43 1   
    43   22   23 1   
    44   22   24 1   
@<TRIPOS>SUBSTRUCTURE
     1 CGC         1 TEMP              0 ****  ****    0 ROOT
