@<TRIPOS>MOLECULE
CGE
   37    39     1     0     0
SMALL
bcc


@<TRIPOS>ATOM
      1 C           1.1550   -1.5150    0.8660 c         1 CGE      0.632100
      2 N          -0.5270    0.1050    0.0950 n3        1 CGE     -0.711600
      3 O           1.2160   -1.5700    2.0920 o         1 CGE     -0.523000
      4 CL1         2.8470    0.6610   -2.2450 cl        1 CGE     -0.094400
      5 CA          0.8720   -0.3270   -0.0550 c3        1 CGE      0.189800
      6 CAA         1.6900   -3.8360    0.8950 c3        1 CGE      0.124700
      7 CAD         3.6460    2.8100    0.9890 ca        1 CGE     -0.111000
      8 CAE         2.7320    2.3280    1.9270 ca        1 CGE     -0.136000
      9 CAF        -5.1290   -0.9360   -0.5460 cc        1 CGE     -0.168100
     10 CAG         3.6690    2.2790   -0.2980 ca        1 CGE     -0.135000
     11 CAH         1.8430    1.3160    1.5750 ca        1 CGE     -0.078000
     12 CAI        -3.9520   -1.5760   -0.2290 cd        1 CGE     -0.141000
     13 CAJ        -2.2760    1.7250   -0.6580 c3        1 CGE      0.002900
     14 CAK        -0.8540    1.1790   -0.8370 c3        1 CGE      0.170800
     15 CAL        -1.4410   -1.0370    0.0350 c3        1 CGE      0.221100
     16 OAM         1.3670   -2.6610    0.1490 os        1 CGE     -0.440900
     17 SAN        -4.8960    0.6910   -0.8580 ss        1 CGE      0.026200
     18 CAP         2.7720    1.2640   -0.6520 ca        1 CGE      0.028400
     19 CAQ        -2.8490   -0.6660   -0.2540 cd        1 CGE     -0.117300
     20 CAR        -3.2450    0.6200   -0.5890 cc        1 CGE     -0.113400
     21 CAS         1.8510    0.7720    0.2840 ca        1 CGE     -0.096300
     22 HA          1.0650   -0.6870   -1.1160 h1        1 CGE      0.076700
     23 HAA         1.8270   -4.6190    0.1100 h1        1 CGE      0.051700
     24 HAAA        2.6280   -3.6710    1.4780 h1        1 CGE      0.051700
     25 HAAB        0.8510   -4.0890    1.5870 h1        1 CGE      0.051700
     26 HAD         4.3520    3.6080    1.2630 ha        1 CGE      0.138000
     27 HAE         2.7150    2.7430    2.9450 ha        1 CGE      0.141000
     28 HAF        -6.1100   -1.4050   -0.5960 h4        1 CGE      0.171000
     29 HAG         4.3920    2.6570   -1.0380 ha        1 CGE      0.148000
     30 HAH         1.1290    0.9150    2.3160 ha        1 CGE      0.170000
     31 HAI        -3.8490   -2.6350    0.0140 ha        1 CGE      0.154000
     32 HAJ        -2.3290    2.3340    0.2850 hc        1 CGE      0.059200
     33 HAJA       -2.4980    2.4080   -1.5200 hc        1 CGE      0.059200
     34 HAK        -0.1260    2.0190   -0.6550 h1        1 CGE      0.042700
     35 HAKA       -0.7350    0.8440   -1.9100 h1        1 CGE      0.042700
     36 HAL        -1.1100   -1.7990   -0.7360 h1        1 CGE      0.055200
     37 HALA       -1.3900   -1.5350    1.0480 h1        1 CGE      0.055200
@<TRIPOS>BOND
     1    1    3 2   
     2    1    5 1   
     3    1   16 1   
     4    2    5 1   
     5    2   14 1   
     6    2   15 1   
     7    4   18 1   
     8    5   21 1   
     9    5   22 1   
    10    6   16 1   
    11    6   23 1   
    12    6   24 1   
    13    6   25 1   
    14    7    8 ar  
    15    7   10 ar  
    16    7   26 1   
    17    8   11 ar  
    18    8   27 1   
    19    9   12 2   
    20    9   17 1   
    21    9   28 1   
    22   10   18 ar  
    23   10   29 1   
    24   11   21 ar  
    25   11   30 1   
    26   12   19 1   
    27   12   31 1   
    28   13   14 1   
    29   13   20 1   
    30   13   32 1   
    31   13   33 1   
    32   14   34 1   
    33   14   35 1   
    34   15   19 1   
    35   15   36 1   
    36   15   37 1   
    37   17   20 1   
    38   18   21 ar  
    39   19   20 2   
@<TRIPOS>SUBSTRUCTURE
     1 CGE         1 TEMP              0 ****  ****    0 ROOT
