@<TRIPOS>MOLECULE
CGE
   37    39     1     0     0
SMALL
bcc


@<TRIPOS>ATOM
      1 C          -0.0870    0.4290    0.4840 c         1 CGE      0.632100
      2 N           2.0110    1.2910   -0.4650 n3        1 CGE     -0.711600
      3 O          -0.6900    1.2860    1.1280 o         1 CGE     -0.523000
      4 Cl1         2.8440   -2.4500    1.1080 cl        1 CGE     -0.094400
      5 CA          1.4150    0.1970    0.3180 c3        1 CGE      0.189800
      6 CAA        -2.2370   -0.4140   -0.0980 c3        1 CGE      0.124700
      7 CAD         3.1300   -0.0740    4.2680 ca        1 CGE     -0.111000
      8 CAE         2.4810    1.0890    3.8540 ca        1 CGE     -0.136000
      9 CAF         2.3210    3.4940   -4.6760 cc        1 CGE     -0.168100
     10 CAG         3.2300   -1.1620    3.4050 ca        1 CGE     -0.135000
     11 CAH         1.9330    1.1620    2.5750 ca        1 CGE     -0.078000
     12 CAI         1.3820    2.8380   -3.9110 cd        1 CGE     -0.141000
     13 CAJ         4.1150    2.2070   -1.4580 c3        1 CGE      0.002900
     14 CAK         3.4270    1.0500   -0.7220 c3        1 CGE      0.170800
     15 CAL         1.2260    1.5670   -1.6700 c3        1 CGE      0.221100
     16 OAM        -0.8160   -0.4950   -0.2130 os        1 CGE     -0.440900
     17 SAN         3.8330    3.4830   -3.9600 ss        1 CGE      0.026200
     18 CAP         2.6820   -1.0870    2.1190 ca        1 CGE      0.028400
     19 CAQ         1.9640    2.3280   -2.7080 cd        1 CGE     -0.117300
     20 CAR         3.3150    2.6210   -2.6220 cc        1 CGE     -0.113400
     21 CAS         2.0270    0.0770    1.6930 ca        1 CGE     -0.096300
     22 HA          1.5300   -0.7930   -0.2310 h1        1 CGE      0.076700
     23 HAA        -2.6030   -1.2600   -0.7310 h1        1 CGE      0.051700
     24 HAAA       -2.5940    0.5710   -0.4850 h1        1 CGE      0.051700
     25 HAAB       -2.5410   -0.5390    0.9690 h1        1 CGE      0.051700
     26 HAD         3.5630   -0.1370    5.2780 ha        1 CGE      0.138000
     27 HAE         2.3970    1.9480    4.5350 ha        1 CGE      0.141000
     28 HAF         2.1320    3.9720   -5.6360 h4        1 CGE      0.171000
     29 HAG         3.7400   -2.0810    3.7330 ha        1 CGE      0.148000
     30 HAH         1.4010    2.0710    2.2450 ha        1 CGE      0.170000
     31 HAI         0.3280    2.7140   -4.1660 ha        1 CGE      0.154000
     32 HAJ         4.2420    3.0760   -0.7580 hc        1 CGE      0.059200
     33 HAJA        5.1380    1.8630   -1.7680 hc        1 CGE      0.059200
     34 HAK         3.9330    0.9150    0.2760 h1        1 CGE      0.042700
     35 HAKA        3.5830    0.1050   -1.3200 h1        1 CGE      0.042700
     36 HAL         0.3330    2.1720   -1.3320 h1        1 CGE      0.055200
     37 HALA        0.8320    0.6140   -2.1410 h1        1 CGE      0.055200
@<TRIPOS>BOND
     1    1    3 2   
     2    1    5 1   
     3    1   16 1   
     4    2    5 1   
     5    2   14 1   
     6    2   15 1   
     7    4   18 1   
     8    5   21 1   
     9    5   22 1   
    10    6   16 1   
    11    6   23 1   
    12    6   24 1   
    13    6   25 1   
    14    7    8 ar  
    15    7   10 ar  
    16    7   26 1   
    17    8   11 ar  
    18    8   27 1   
    19    9   12 2   
    20    9   17 1   
    21    9   28 1   
    22   10   18 ar  
    23   10   29 1   
    24   11   21 ar  
    25   11   30 1   
    26   12   19 1   
    27   12   31 1   
    28   13   14 1   
    29   13   20 1   
    30   13   32 1   
    31   13   33 1   
    32   14   34 1   
    33   14   35 1   
    34   15   19 1   
    35   15   36 1   
    36   15   37 1   
    37   17   20 1   
    38   18   21 ar  
    39   19   20 2   
@<TRIPOS>SUBSTRUCTURE
     1 CGE         1 TEMP              0 ****  ****    0 ROOT
