@<TRIPOS>MOLECULE
CGE
   37    33     1     0     0
SMALL
bcc


@<TRIPOS>ATOM
      1 C          -1.7220   -0.7370    0.3320 c1        1 CGE      0.303000
      2 N           0.2560    0.4540   -0.4130 n3        1 CGE     -0.237000
      3 O          -2.3040    0.2550    0.6880 o         1 CGE     -0.334000
      4 CL1         1.3550   -3.4870    1.1420 cl        1 CGE     -0.016000
      5 CA         -0.2260   -0.7480    0.2920 c2        1 CGE      0.035000
      6 CAA        -3.8680   -1.7360    0.1210 c3        1 CGE     -0.065000
      7 CAD         1.0930   -1.4750    4.2450 c1        1 CGE     -0.115000
      8 CAE         0.4880   -0.2380    4.0210 c1        1 CGE     -0.115000
      9 CAF         0.6370    3.1690   -4.5220 c1        1 CGE     -0.438000
     10 CAG         1.3010   -2.3470    3.1850 c1        1 CGE     -0.115000
     11 CAH         0.0940    0.1190    2.7370 c1        1 CGE     -0.115000
     12 CAI        -0.4050    2.2530   -3.9990 c1        1 CGE     -0.141000
     13 CAJ         2.2960    1.5280   -1.1890 c3        1 CGE     -0.083000
     14 CAK         1.6630    0.4210   -0.4980 c3        1 CGE     -0.066000
     15 CAL        -0.4660    0.6220   -1.5950 c3        1 CGE     -0.023000
     16 OAM        -2.4410   -1.9110    0.0650 os        1 CGE     -0.279000
     17 SAN         1.8900    3.1030   -3.5360 ss        1 CGE      0.566000
     18 CAP         0.9050   -1.9870    1.9000 c1        1 CGE     -0.050000
     19 CAQ         0.1510    1.5710   -2.6590 c2        1 CGE     -0.110000
     20 CAR         1.5410    2.0990   -2.3980 c2        1 CGE     -0.376000
     21 CAS         0.3030   -0.7560    1.6780 c1        1 CGE     -0.089000
     22 HA          0.0900   -1.5690   -0.1920 h4        1 CGE      0.116000
     23 HAA        -4.1300   -1.4490    1.0350 h1        1 CGE      0.091000
     24 HAAA       -4.3100   -2.5820   -0.0950 h1        1 CGE      0.091000
     25 HAAB       -4.1410   -1.0440   -0.5330 h1        1 CGE      0.091000
     26 HAD         1.3760   -1.7320    5.1620 ha        1 CGE      0.149250
     27 HAE         0.3410    0.3800    4.7680 ha        1 CGE      0.149250
     28 HAF         0.5550    3.7380   -5.2940 DU        1 CGE      0.162500
     29 HAG         1.7350   -3.2360    3.3450 ha        1 CGE      0.149250
     30 HAH        -0.3380    1.0000    2.5760 ha        1 CGE      0.149250
     31 HAI        -1.2930    2.0900   -4.4080 DU        1 CGE      0.162500
     32 HAJ         3.1650    1.2330   -1.4900 hc        1 CGE      0.098500
     33 HAJA        2.4280    2.2600   -0.5340 hc        1 CGE      0.098500
     34 HAK         1.8990   -0.3950   -0.9960 h1        1 CGE      0.082000
     35 HAKA        2.0080    0.4270    0.4330 h1        1 CGE      0.082000
     36 HAL        -0.5790   -0.2560   -2.0050 h1        1 CGE      0.094500
     37 HALA       -1.3440    0.9630   -1.3650 h1        1 CGE      0.094500
@<TRIPOS>BOND
     1    1    3 1   
     2    1   16 1   
     3    2    5 1   
     4    2   14 1   
     5    2   15 1   
     6    4   18 1   
     7    5   21 1   
     8    5   22 1   
     9    6   16 1   
    10    6   23 1   
    11    6   24 1   
    12    6   25 1   
    13    7   10 1   
    14    7   26 1   
    15    8   11 1   
    16    8   27 1   
    17    9   12 1   
    18    9   17 1   
    19   10   29 1   
    20   11   30 1   
    21   12   19 1   
    22   13   14 1   
    23   13   20 1   
    24   13   32 1   
    25   13   33 1   
    26   14   34 1   
    27   14   35 1   
    28   15   19 1   
    29   15   36 1   
    30   15   37 1   
    31   17   20 1   
    32   18   21 1   
    33   19   20 1   
@<TRIPOS>SUBSTRUCTURE
     1 CGE         1 TEMP              0 ****  ****    0 ROOT
