@<TRIPOS>MOLECULE
CGE
   37    39     1     0     0
SMALL
bcc


@<TRIPOS>ATOM
      1 C          -0.0800    0.4180    0.4930 c         1 CGE      0.632100
      2 N           2.0070    1.2940   -0.4670 n3        1 CGE     -0.711600
      3 O          -0.6830    1.2690    1.1440 o         1 CGE     -0.523000
      4 CL1         2.8690   -2.4500    1.0860 cl        1 CGE     -0.094400
      5 CA          1.4220    0.1930    0.3150 c3        1 CGE      0.189800
      6 CAA        -2.2300   -0.4330   -0.0800 c3        1 CGE      0.124700
      7 CAD         3.1640   -0.0850    4.2530 ca        1 CGE     -0.111000
      8 CAE         2.5070    1.0760    3.8480 ca        1 CGE     -0.136000
      9 CAF         2.2790    3.5140   -4.6720 cc        1 CGE     -0.168100
     10 CAG         3.2640   -1.1690    3.3850 ca        1 CGE     -0.135000
     11 CAH         1.9500    1.1520    2.5740 ca        1 CGE     -0.078000
     12 CAI         1.3490    2.8510   -3.9030 cd        1 CGE     -0.141000
     13 CAJ         4.1010    2.2250   -1.4700 c3        1 CGE      0.002900
     14 CAK         3.4230    1.0620   -0.7330 c3        1 CGE      0.170800
     15 CAL         1.2130    1.5700   -1.6660 c3        1 CGE      0.221100
     16 OAM        -0.8090   -0.5070   -0.2040 os        1 CGE     -0.440900
     17 SAN         3.7960    3.5090   -3.9650 ss        1 CGE      0.026200
     18 CAP         2.7070   -1.0920    2.1030 ca        1 CGE      0.028400
     19 CAQ         1.9410    2.3390   -2.7060 cd        1 CGE     -0.117300
     20 CAR         3.2910    2.6390   -2.6260 cc        1 CGE     -0.113400
     21 CAS         2.0430    0.0710    1.6860 ca        1 CGE     -0.096300
     22 HA          1.5380   -0.7930   -0.2380 h1        1 CGE      0.076700
     23 HAA        -2.5260   -0.5650    0.9880 h1        1 CGE      0.051700
     24 HAAA       -2.5930    0.5520   -0.4600 h1        1 CGE      0.051700
     25 HAAB       -2.5950   -1.2780   -0.7140 h1        1 CGE      0.051700
     26 HAD         3.6040   -0.1500    5.2600 ha        1 CGE      0.138000
     27 HAE         2.4240    1.9330    4.5330 ha        1 CGE      0.141000
     28 HAF         2.0820    3.9950   -5.6280 h4        1 CGE      0.171000
     29 HAG         3.7800   -2.0870    3.7060 ha        1 CGE      0.148000
     30 HAH         1.4120    2.0600    2.2510 ha        1 CGE      0.170000
     31 HAI         0.2940    2.7220   -4.1520 ha        1 CGE      0.154000
     32 HAJ         4.2270    3.0930   -0.7660 hc        1 CGE      0.059200
     33 HAJA        5.1230    1.8880   -1.7860 hc        1 CGE      0.059200
     34 HAK         3.5810    0.1200   -1.3360 h1        1 CGE      0.042700
     35 HAKA        3.9360    0.9250    0.2610 h1        1 CGE      0.042700
     36 HAL         0.3190    2.1690   -1.3200 h1        1 CGE      0.055200
     37 HALA        0.8220    0.6170   -2.1380 h1        1 CGE      0.055200
@<TRIPOS>BOND
     1    1    3 2   
     2    1    5 1   
     3    1   16 1   
     4    2    5 1   
     5    2   14 1   
     6    2   15 1   
     7    4   18 1   
     8    5   21 1   
     9    5   22 1   
    10    6   16 1   
    11    6   23 1   
    12    6   24 1   
    13    6   25 1   
    14    7    8 ar  
    15    7   10 ar  
    16    7   26 1   
    17    8   11 ar  
    18    8   27 1   
    19    9   12 2   
    20    9   17 1   
    21    9   28 1   
    22   10   18 ar  
    23   10   29 1   
    24   11   21 ar  
    25   11   30 1   
    26   12   19 1   
    27   12   31 1   
    28   13   14 1   
    29   13   20 1   
    30   13   32 1   
    31   13   33 1   
    32   14   34 1   
    33   14   35 1   
    34   15   19 1   
    35   15   36 1   
    36   15   37 1   
    37   17   20 1   
    38   18   21 ar  
    39   19   20 2   
@<TRIPOS>SUBSTRUCTURE
     1 CGE         1 TEMP              0 ****  ****    0 ROOT
