@<TRIPOS>MOLECULE
CGE
   37    39     1     0     0
SMALL
bcc


@<TRIPOS>ATOM
      1 C          -0.0790    0.3980    0.4760 c         1 CGE      0.632100
      2 N           2.0050    1.3010   -0.4670 n3        1 CGE     -0.711600
      3 O          -0.6920    1.2390    1.1310 o         1 CGE     -0.523000
      4 CL1         2.8940   -2.4470    1.0590 cl        1 CGE     -0.094400
      5 CA          1.4260    0.1890    0.3040 c3        1 CGE      0.189800
      6 CAA        -2.2180   -0.4690   -0.1120 c3        1 CGE      0.124700
      7 CAD         3.1540   -0.1050    4.2470 ca        1 CGE     -0.111000
      8 CAE         2.4870    1.0530    3.8480 ca        1 CGE     -0.136000
      9 CAF         2.2750    3.5560   -4.6530 cc        1 CGE     -0.168100
     10 CAG         3.2680   -1.1820    3.3700 ca        1 CGE     -0.135000
     11 CAH         1.9350    1.1340    2.5720 ca        1 CGE     -0.078000
     12 CAI         1.3470    2.8780   -3.8940 cd        1 CGE     -0.141000
     13 CAJ         4.0940    2.2590   -1.4530 c3        1 CGE      0.002900
     14 CAK         3.4240    1.0840   -0.7280 c3        1 CGE      0.170800
     15 CAL         1.2130    1.5790   -1.6680 c3        1 CGE      0.222100
     16 OAM        -0.7960   -0.5290   -0.2300 os        1 CGE     -0.440900
     17 SAN         3.7880    3.5600   -3.9390 ss        1 CGE      0.026200
     18 CAP         2.7160   -1.0990    2.0860 ca        1 CGE      0.028400
     19 CAQ         1.9390    2.3620   -2.6980 cd        1 CGE     -0.117300
     20 CAR         3.2860    2.6750   -2.6100 cc        1 CGE     -0.113400
     21 CAS         2.0430    0.0610    1.6760 ca        1 CGE     -0.096300
     22 HA          1.5540   -0.7930   -0.2570 h1        1 CGE      0.076700
     23 HAA        -2.5730   -1.3120   -0.7530 h1        1 CGE      0.051700
     24 HAAA       -2.5890    0.5160   -0.4860 h1        1 CGE      0.051700
     25 HAAB       -2.5170   -0.6100    0.9550 h1        1 CGE      0.051700
     26 HAD         3.5900   -0.1740    5.2550 ha        1 CGE      0.138000
     27 HAE         2.3930    1.9030    4.5400 ha        1 CGE      0.141000
     28 HAF         2.0780    4.0420   -5.6070 h4        1 CGE      0.171000
     29 HAG         3.7910   -2.0970    3.6860 ha        1 CGE      0.148000
     30 HAH         1.3900    2.0390    2.2540 ha        1 CGE      0.170000
     31 HAI         0.2950    2.7410   -4.1490 ha        1 CGE      0.154000
     32 HAJ         5.1200    1.9350   -1.7670 hc        1 CGE      0.059200
     33 HAJA        4.2090    3.1230   -0.7430 hc        1 CGE      0.059200
     34 HAK         3.5930    0.1480   -1.3380 h1        1 CGE      0.042700
     35 HAKA        3.9330    0.9450    0.2670 h1        1 CGE      0.042700
     36 HAL         0.3120    2.1670   -1.3210 h1        1 CGE      0.055200
     37 HALA        0.8330    0.6260   -2.1490 h1        1 CGE      0.055200
@<TRIPOS>BOND
     1    1    3 2   
     2    1    5 1   
     3    1   16 1   
     4    2    5 1   
     5    2   14 1   
     6    2   15 1   
     7    4   18 1   
     8    5   21 1   
     9    5   22 1   
    10    6   16 1   
    11    6   23 1   
    12    6   24 1   
    13    6   25 1   
    14    7    8 ar  
    15    7   10 ar  
    16    7   26 1   
    17    8   11 ar  
    18    8   27 1   
    19    9   12 2   
    20    9   17 1   
    21    9   28 1   
    22   10   18 ar  
    23   10   29 1   
    24   11   21 ar  
    25   11   30 1   
    26   12   19 1   
    27   12   31 1   
    28   13   14 1   
    29   13   20 1   
    30   13   32 1   
    31   13   33 1   
    32   14   34 1   
    33   14   35 1   
    34   15   19 1   
    35   15   36 1   
    36   15   37 1   
    37   17   20 1   
    38   18   21 ar  
    39   19   20 2   
@<TRIPOS>SUBSTRUCTURE
     1 CGE         1 TEMP              0 ****  ****    0 ROOT
