@<TRIPOS>MOLECULE
CGF
   31    31     1     0     0
SMALL
bcc


@<TRIPOS>ATOM
      1 O5         -0.7270    0.3460   -0.4170 os        1 CGF     -0.419600
      2 C1          0.7150    0.3780   -0.4050 c3        1 CGF      0.269000
      3 C7          1.2710    1.6070   -1.2560 c3        1 CGF      0.400300
      4 N7          0.2280    2.0080   -2.3150 n3        1 CGF     -0.929800
      5 O7          2.4090    1.2810   -1.8580 oh        1 CGF     -0.610800
      6 N1          1.2850   -0.7990   -1.2030 n2        1 CGF     -0.479200
      7 N2          0.9140   -0.9780   -2.5080 n1        1 CGF      0.241000
      8 N3          0.4390   -1.2050   -4.1780 n1        1 CGF     -0.023000
      9 C2          1.1550    0.3760    0.9420 c3        1 CGF      0.121100
     10 O2          2.8550    0.2120    0.9820 oh        1 CGF     -0.587800
     11 C3          0.5650   -0.6680    1.7070 c3        1 CGF      0.077100
     12 O3          0.8960   -0.4040    3.1280 oh        1 CGF     -0.573800
     13 C4         -0.8200   -0.7000    1.6160 c3        1 CGF      0.084100
     14 O4         -1.2090   -1.9520    2.1560 oh        1 CGF     -0.580800
     15 C5         -1.2880   -0.6720    0.3490 c3        1 CGF      0.082100
     16 C6         -2.9150   -0.3270    0.4480 c3        1 CGF      0.129400
     17 O6         -3.5750   -0.6980   -0.7140 oh        1 CGF     -0.587800
     18 H7          1.4110    2.2550   -0.7480 h2        1 CGF      0.068700
     19 HN71        0.7290    2.3770   -3.1690 hn        1 CGF      0.382800
     20 HN72       -0.3350    1.2240   -2.5680 hn        1 CGF      0.382800
     21 HO7         3.1670    1.6730   -1.3610 ho        1 CGF      0.440000
     22 H2          0.9140    1.2450    1.3540 h1        1 CGF      0.087700
     23 HO2         3.1980    0.8980    0.7310 ho        1 CGF      0.428000
     24 H3          0.9700   -1.6300    1.4050 h1        1 CGF      0.098700
     25 HO3         0.1320    0.1140    3.5660 ho        1 CGF      0.408000
     26 H4         -1.1920   -0.0060    2.1030 h1        1 CGF      0.084700
     27 HO4        -0.4280   -2.9510    1.5740 ho        1 CGF      0.410000
     28 H5         -1.1610   -1.6550   -0.1280 h1        1 CGF      0.056700
     29 H61        -3.2650   -0.7600    1.1290 h1        1 CGF      0.071700
     30 H62        -3.0260    0.6890    0.5900 h1        1 CGF      0.071700
     31 HO6        -3.3110   -1.2760   -0.9520 ho        1 CGF      0.398000
@<TRIPOS>BOND
     1    1    2 1   
     2    1   15 1   
     3    2    3 1   
     4    2    6 1   
     5    2    9 1   
     6    3    4 1   
     7    3    5 1   
     8    3   18 1   
     9    4   19 1   
    10    4   20 1   
    11    5   21 1   
    12    6    7 1   
    13    7    8 3   
    14    9   10 1   
    15    9   11 1   
    16    9   22 1   
    17   10   23 1   
    18   11   12 1   
    19   11   13 1   
    20   11   24 1   
    21   12   25 1   
    22   13   14 1   
    23   13   15 1   
    24   13   26 1   
    25   14   27 1   
    26   15   16 1   
    27   15   28 1   
    28   16   17 1   
    29   16   29 1   
    30   16   30 1   
    31   17   31 1   
@<TRIPOS>SUBSTRUCTURE
     1 CGF         1 TEMP              0 ****  ****    0 ROOT
