@<TRIPOS>MOLECULE
CGF
   31    31     1     0     0
SMALL
bcc


@<TRIPOS>ATOM
      1 O5          0.1600   -1.0410   -0.2910 os        1 CGF     -0.440600
      2 C1          0.7900    0.2120    0.0500 c3        1 CGF      0.318000
      3 C7          0.9050    0.3390    1.6360 c3        1 CGF      0.403300
      4 N7          1.8250    1.3320    2.1270 n3        1 CGF     -0.925800
      5 O7          1.1470   -0.9560    2.1560 oh        1 CGF     -0.585800
      6 N1          2.1570    0.1580   -0.4790 n2        1 CGF     -0.444200
      7 N2          2.3850   -0.0190   -1.7010 n1        1 CGF      0.237000
      8 N3          2.7870   -0.1810   -2.7490 n1        1 CGF     -0.024000
      9 C2         -0.0760    1.3550   -0.5610 c3        1 CGF      0.116100
     10 O2          0.4920    2.5890   -0.1670 oh        1 CGF     -0.597800
     11 C3         -1.5390    1.2610   -0.0980 c3        1 CGF      0.110100
     12 O3         -2.2400    2.2470   -0.8410 oh        1 CGF     -0.609800
     13 C4         -2.1000   -0.1390   -0.3880 c3        1 CGF      0.081100
     14 O4         -3.3770   -0.1590    0.2310 oh        1 CGF     -0.599800
     15 C5         -1.1710   -1.2120    0.1930 c3        1 CGF      0.073100
     16 C6         -1.5640   -2.6190   -0.2790 c3        1 CGF      0.139400
     17 O6         -0.9290   -3.6130    0.4910 oh        1 CGF     -0.590800
     18 H7         -0.1260    0.6010    2.0230 h2        1 CGF      0.090700
     19 HN71        2.7790    1.0580    2.0100 hn        1 CGF      0.378300
     20 HN72        1.6620    2.2150    1.6820 hn        1 CGF      0.378300
     21 HO7         2.0200   -1.2520    1.8670 ho        1 CGF      0.415000
     22 H2         -0.0670    1.2810   -1.6870 h1        1 CGF      0.054700
     23 HO2        -0.1110    3.2810   -0.4740 ho        1 CGF      0.432000
     24 H3         -1.6330    1.4920    1.0000 h1        1 CGF      0.071700
     25 HO3        -3.1720    2.1630   -0.5970 ho        1 CGF      0.430000
     26 H4         -2.2120   -0.2820   -1.4990 h1        1 CGF      0.060700
     27 HO4        -3.7660   -1.0250    0.0640 ho        1 CGF      0.415000
     28 H5         -1.1780   -1.1730    1.3180 h1        1 CGF      0.092700
     29 H61        -2.6630   -2.7870   -0.1220 h1        1 CGF      0.051200
     30 H62        -1.3060   -2.7430   -1.3650 h1        1 CGF      0.051200
     31 HO6         0.0150   -3.4040    0.5060 ho        1 CGF      0.420000
@<TRIPOS>BOND
     1    1    2 1   
     2    1   15 1   
     3    2    3 1   
     4    2    6 1   
     5    2    9 1   
     6    3    4 1   
     7    3    5 1   
     8    3   18 1   
     9    4   19 1   
    10    4   20 1   
    11    5   21 1   
    12    6    7 1   
    13    7    8 3   
    14    9   10 1   
    15    9   11 1   
    16    9   22 1   
    17   10   23 1   
    18   11   12 1   
    19   11   13 1   
    20   11   24 1   
    21   12   25 1   
    22   13   14 1   
    23   13   15 1   
    24   13   26 1   
    25   14   27 1   
    26   15   16 1   
    27   15   28 1   
    28   16   17 1   
    29   16   29 1   
    30   16   30 1   
    31   17   31 1   
@<TRIPOS>SUBSTRUCTURE
     1 CGF         1 TEMP              0 ****  ****    0 ROOT
