@<TRIPOS>MOLECULE
CGH
   28    28     1     0     0
SMALL
bcc


@<TRIPOS>ATOM
      1 C14        -2.5650    0.8750    0.3200 c         1 CGH      0.885600
      2 O32        -2.3870    0.6060    1.5440 o         1 CGH     -0.848300
      3 C5         -1.8540    0.0060   -0.7490 c3        1 CGH      0.024800
      4 N21        -0.8740   -0.9530   -0.2750 n3        1 CGH     -0.811200
      5 C49         0.4980   -0.4490   -0.2250 c3        1 CGH      0.183500
      6 C48         1.4860   -1.6290   -0.1300 c3        1 CGH     -0.099900
      7 C47         2.8770   -1.2680   -0.6020 c3        1 CGH     -0.068400
      8 C46         3.5160   -0.1260    0.1600 c3        1 CGH     -0.070400
      9 C52         2.9620    1.2260   -0.2400 c3        1 CGH     -0.070400
     10 C51         1.7350    1.6520    0.5380 c3        1 CGH     -0.068400
     11 C50         0.7830    0.5420    0.9180 c3        1 CGH     -0.099900
     12 H5         -2.6530   -0.5960   -1.2660 h1        1 CGH      0.031700
     13 H5A        -1.4000    0.6950   -1.5120 h1        1 CGH      0.031700
     14 HN21       -1.1450   -1.2400    0.6540 hn        1 CGH      0.365800
     15 H49         0.6930    0.0790   -1.2060 h1        1 CGH      0.039700
     16 H48         1.5290   -1.9960    0.9280 hc        1 CGH      0.051950
     17 H48A        1.1170   -2.4820   -0.7610 hc        1 CGH      0.051950
     18 H47         3.5310   -2.1770   -0.4950 hc        1 CGH      0.027450
     19 H47A        2.8440   -1.0140   -1.6950 hc        1 CGH      0.027450
     20 H46         3.3820   -0.2820    1.2620 hc        1 CGH      0.025950
     21 H46A        4.6200   -0.1380   -0.0460 hc        1 CGH      0.025950
     22 H52         3.7610    2.0030   -0.0950 hc        1 CGH      0.025950
     23 H52A        2.7210    1.2160   -1.3370 hc        1 CGH      0.025950
     24 H51         2.0630    2.1660    1.4820 hc        1 CGH      0.027450
     25 H51A        1.1800    2.4150   -0.0720 hc        1 CGH      0.027450
     26 H50        -0.1890    1.0080    1.2590 hc        1 CGH      0.051950
     27 H50A        1.1920   -0.0160    1.8010 hc        1 CGH      0.051950
     28 OXT        -3.2990    1.8120   -0.1020 o         1 CGH     -0.848300
@<TRIPOS>BOND
     1    1    2 1   
     2    1    3 1   
     3    1   28 1   
     4    3    4 1   
     5    3   12 1   
     6    3   13 1   
     7    4    5 1   
     8    4   14 1   
     9    5    6 1   
    10    5   11 1   
    11    5   15 1   
    12    6    7 1   
    13    6   16 1   
    14    6   17 1   
    15    7    8 1   
    16    7   18 1   
    17    7   19 1   
    18    8    9 1   
    19    8   20 1   
    20    8   21 1   
    21    9   10 1   
    22    9   22 1   
    23    9   23 1   
    24   10   11 1   
    25   10   24 1   
    26   10   25 1   
    27   11   26 1   
    28   11   27 1   
@<TRIPOS>SUBSTRUCTURE
     1 CGH         1 TEMP              0 ****  ****    0 ROOT
