@<TRIPOS>MOLECULE
CGH
   28    27     1     0     0
SMALL
bcc


@<TRIPOS>ATOM
      1 C14         1.1520   -2.2440   -2.8970 c1        1 CGH      0.771000
      2 O32         2.4130   -2.2440   -2.8970 o         1 CGH     -0.817000
      3 C5          0.3900   -2.2440   -1.5750 c2        1 CGH      0.147100
      4 N21         0.2340   -0.8830   -1.1080 nh        1 CGH     -0.369100
      5 C49        -0.5110   -0.8790    0.1100 c3        1 CGH     -0.005000
      6 C48         0.4230   -0.5820    1.2640 c3        1 CGH     -0.070400
      7 C47         1.2250    0.6780    1.0000 c3        1 CGH     -0.069900
      8 C46         0.6410    1.8590    1.7560 c3        1 CGH     -0.067400
      9 C52        -0.7750    2.1460    1.2970 c3        1 CGH     -0.067400
     10 C51        -1.0250    1.5630   -0.0820 c3        1 CGH     -0.069900
     11 C50        -1.6120    0.1660    0.0210 c3        1 CGH     -0.070400
     12 H5         -0.4900   -2.6460   -1.7070 h4        1 CGH     -0.057700
     13 H5A         0.8870   -2.7610   -0.9130 h4        1 CGH     -0.057700
     14 HN21       -0.2090   -0.3950   -1.7380 hn        1 CGH      0.208700
     15 H49        -0.9140   -1.7590    0.2420 h1        1 CGH      0.042700
     16 H48         1.0350   -1.3330    1.3830 hc        1 CGH      0.034200
     17 H48A       -0.1020   -0.4640    2.0790 hc        1 CGH      0.034200
     18 H47         1.2130    0.8720    0.0430 hc        1 CGH      0.038950
     19 H47A        2.1470    0.5380    1.2870 hc        1 CGH      0.038950
     20 H46         0.6340    1.6570    2.7110 hc        1 CGH      0.019950
     21 H46A        1.1960    2.6470    1.5980 hc        1 CGH      0.019950
     22 H52        -1.4040    1.7530    1.9310 hc        1 CGH      0.019950
     23 H52A       -0.9120    3.1120    1.2670 hc        1 CGH      0.019950
     24 H51        -0.1810    1.5220   -0.5710 hc        1 CGH      0.038950
     25 H51A       -1.6480    2.1380   -0.5650 hc        1 CGH      0.038950
     26 H50        -2.1590   -0.0110   -0.7680 hc        1 CGH      0.034200
     27 H50A       -2.1720    0.1110    0.8180 hc        1 CGH      0.034200
     28 OXT         0.5220   -2.3170   -3.9880 o         1 CGH     -0.817000
@<TRIPOS>BOND
     1    1    2 2   
     2    1   28 2   
     3    3    4 2   
     4    3   12 1   
     5    3   13 1   
     6    4    5 1   
     7    4   14 1   
     8    5    6 1   
     9    5   11 1   
    10    5   15 1   
    11    6    7 1   
    12    6   16 1   
    13    6   17 1   
    14    7    8 1   
    15    7   18 1   
    16    7   19 1   
    17    8    9 1   
    18    8   20 1   
    19    8   21 1   
    20    9   10 1   
    21    9   22 1   
    22    9   23 1   
    23   10   11 1   
    24   10   24 1   
    25   10   25 1   
    26   11   26 1   
    27   11   27 1   
@<TRIPOS>SUBSTRUCTURE
     1 CGH         1 TEMP              0 ****  ****    0 ROOT
