@<TRIPOS>MOLECULE
CGL
   50    44     1     0     0
SMALL
bcc


@<TRIPOS>ATOM
      1 N           1.9960   -2.1150   -2.0190 n3        1 CGL     -1.037400
      2 CA          1.0350   -1.1470    1.3650 ce        1 CGL     -0.254200
      3 CB          0.3290   -0.3540    2.1840 c2        1 CGL     -0.020400
      4 SG          0.2920    1.3110    1.9420 ss        1 CGL     -0.069600
      5 C           1.2240   -2.5780    1.6340 c         1 CGL      0.673300
      6 O           1.6490   -3.3980    0.6440 oh        1 CGL     -0.585100
      7 OXT         1.0580   -3.1640    2.7160 o         1 CGL     -0.603000
      8 N1         -0.8030    5.9130    9.8540 n4        1 CGL     -0.704400
      9 CA1        -1.0980    5.2710    8.5820 c2        1 CGL     -0.177000
     10 C1         -1.5810    9.8400    9.3200 c1        1 CGL      0.926000
     11 O11        -1.3790    8.6830    9.5640 o         1 CGL     -0.462500
     12 O12        -1.7850   10.9800    9.0890 o         1 CGL     -0.462500
     13 CB1        -1.2240    5.9640    7.4380 c2        1 CGL     -0.035200
     14 CG1        -1.5200    5.2790    6.1580 c3        1 CGL     -0.158200
     15 OE1        -0.8670    7.3650    5.1300 o         1 CGL     -0.631100
     16 N2         -1.0540    5.5650    3.7440 n         1 CGL     -0.654000
     17 CA2        -0.2040    1.5760    5.2970 ce        1 CGL     -0.213200
     18 C2         -0.2050    1.5140    6.7650 c         1 CGL      0.600100
     19 O2         -0.5790    2.4540    7.4820 o         1 CGL     -0.631100
     20 CB2        -1.1990    2.0920    4.5700 c2        1 CGL     -0.084400
     21 SG2        -1.4390    2.0810    2.9130 ss        1 CGL     -0.080600
     22 N3          1.5110   -3.9780    5.4450 nh        1 CGL     -0.313100
     23 CA3         0.4680   -3.2400    5.2120 ce        1 CGL      0.345200
     24 C3          0.2890   -1.8270    5.8400 c         1 CGL      0.805300
     25 O31         0.9670   -1.5550    6.8560 o         1 CGL     -0.760300
     26 O32        -0.5140   -1.0910    5.2220 o         1 CGL     -0.760300
     27 H           1.9080   -1.1270   -2.1370 hn        1 CGL      0.352800
     28 HN          1.7480   -2.9090   -0.2000 ho        1 CGL      0.475000
     29 HA          2.9070   -2.4000   -2.3130 hn        1 CGL      0.352800
     30 HB2         1.5270   -0.7670    0.4530 ha        1 CGL      0.156000
     31 HB3        -0.1820   -0.7780    3.0760 h4        1 CGL      0.208000
     32 HA1        -0.9010    9.2870    7.0700 ha        1 CGL      0.002000
     33 HB12       -1.1900    4.1660    8.6550 hx        1 CGL      0.233000
     34 HB13       -1.1150    7.0690    7.3780 ha        1 CGL      0.182000
     35 HG12       -0.8000    9.3060    6.3980 ha        1 CGL      0.002000
     36 HG13       -2.6290    5.0890    6.0910 hc        1 CGL      0.112700
     37 HN2        -1.0050    4.2750    6.1220 hc        1 CGL      0.112700
     38 HA2        -0.8020    6.1150    2.9580 hn        1 CGL      0.329000
     39 HB22        0.6470    1.0490    4.8250 ha        1 CGL      0.167000
     40 HB23       -2.0730    2.5600    5.0660 h4        1 CGL      0.161000
     41 HN3         1.6780   -4.8440    4.9700 hn        1 CGL      0.312700
     42 HA31        2.2230   -3.6560    6.0790 hn        1 CGL      0.312700
     43 HA32       -0.3200   -3.5830    4.5060 h4        1 CGL      0.065800
     44 HN12       -0.2680    6.7810    9.7120 hn        1 CGL      0.461133
     45 HN31        1.3120   -2.5730   -2.5850 hn        1 CGL      0.352800
     46 H12        -1.6780    6.1570   10.3330 hn        1 CGL      0.461133
     47 H22        -1.2100    4.5930    3.6160 hn        1 CGL      0.329000
     48 H32         0.1600    0.5420    7.1830 h4        1 CGL      0.085200
     49 CD1        -1.1150    6.1490    4.9750 c         1 CGL      0.661100
     50 HN11       -0.2610    5.2720   10.4410 hn        1 CGL      0.461133
@<TRIPOS>BOND
     1    1   27 1   
     2    1   29 1   
     3    1   45 1   
     4    2    3 2   
     5    2    5 1   
     6    2   30 1   
     7    3    4 1   
     8    3   31 1   
     9    4   21 1   
    10    5    6 1   
    11    5    7 2   
    12    6   28 1   
    13    8    9 1   
    14    8   44 1   
    15    8   46 1   
    16    8   50 1   
    17    9   13 2   
    18    9   33 1   
    19   10   11 2   
    20   10   12 2   
    21   13   14 1   
    22   13   34 1   
    23   14   36 1   
    24   14   37 1   
    25   14   49 1   
    26   15   49 2   
    27   16   38 1   
    28   16   47 1   
    29   16   49 1   
    30   17   18 1   
    31   17   20 2   
    32   17   39 1   
    33   18   19 2   
    34   18   48 1   
    35   20   21 1   
    36   20   40 1   
    37   22   23 2   
    38   22   41 1   
    39   22   42 1   
    40   23   24 1   
    41   23   43 1   
    42   24   25 1   
    43   24   26 1   
    44   32   35 1   
@<TRIPOS>SUBSTRUCTURE
     1 CGL         1 TEMP              0 ****  ****    0 ROOT
