@<TRIPOS>MOLECULE
CGL
   46    45     1     0     0
SMALL
bcc


@<TRIPOS>ATOM
      1 N           5.1170   -4.0680   -1.1870 n3        1 CGL     -0.903800
      2 CA          5.3020   -3.1360   -0.0930 c3        1 CGL      0.038500
      3 CB          4.0350   -2.4520    0.4200 c3        1 CGL      0.003700
      4 SG          3.4390   -1.4200   -0.9080 ss        1 CGL     -0.250100
      5 C           5.9760   -3.8110    1.1620 c         1 CGL      0.919600
      6 O           5.6650   -5.0050    1.4290 o         1 CGL     -0.835800
      7 OXT         6.7830   -3.1080    1.8250 o         1 CGL     -0.835800
      8 N1         -6.2740   -0.0440    1.9770 n3        1 CGL     -0.897800
      9 CA1        -5.8920   -1.0510    0.9920 c3        1 CGL      0.022500
     10 C1         -7.0890   -1.6030    0.1510 c         1 CGL      0.889600
     11 O11        -8.2350   -1.0920    0.3300 o         1 CGL     -0.851800
     12 O12        -6.8650   -2.5620   -0.6370 o         1 CGL     -0.851800
     13 CB1        -4.7810   -0.5870    0.0460 c3        1 CGL     -0.057400
     14 CG1        -3.4790   -0.3690    0.7880 c3        1 CGL     -0.145400
     15 OE1        -2.5340    0.4270   -1.3130 o         1 CGL     -0.610100
     16 N2         -1.1580    0.4280    0.5290 n         1 CGL     -0.552900
     17 CA2        -0.0890    1.1660   -0.0950 c3        1 CGL      0.046700
     18 C2          0.0150    2.6110    0.4900 c         1 CGL      0.616100
     19 O2         -0.1680    2.7900    1.7190 o         1 CGL     -0.672100
     20 CB2         1.2940    0.5440    0.1510 c3        1 CGL     -0.018300
     21 SG2         1.3760   -1.0710   -0.5770 ss        1 CGL     -0.185100
     22 N3          0.3320    3.6240   -0.3600 n         1 CGL     -0.519900
     23 CA3         0.4790    4.9870    0.0740 c3        1 CGL     -0.037000
     24 C3          0.8900    5.9750   -1.0540 c         1 CGL      0.909600
     25 O31         1.0430    5.5500   -2.2330 o         1 CGL     -0.845300
     26 O32         1.0480    7.1780   -0.7020 o         1 CGL     -0.845300
     27 H           5.0270   -4.9980   -0.8150 hn        1 CGL      0.340300
     28 HN          4.2770   -3.8460   -1.6900 hn        1 CGL      0.340300
     29 HA          6.0080   -2.3350   -0.4620 h1        1 CGL      0.060700
     30 HB2         3.2660   -3.1980    0.7220 h1        1 CGL      0.072700
     31 HB3         4.2960   -1.8230    1.3040 h1        1 CGL      0.072700
     32 HA1        -5.5000   -1.9310    1.5840 h1        1 CGL      0.038700
     33 HB12       -4.6490   -1.3770   -0.7400 hc        1 CGL      0.061200
     34 HB13       -5.0780    0.3570   -0.4810 hc        1 CGL      0.061200
     35 HG12       -3.6430    0.3350    1.6470 hc        1 CGL      0.062700
     36 HG13       -3.1240   -1.3470    1.2110 hc        1 CGL      0.062700
     37 HN2        -1.1500    0.4530    1.5250 hn        1 CGL      0.309500
     38 HA2        -0.2910    1.1990   -1.2070 h1        1 CGL      0.108700
     39 HB22        2.0650    1.2110   -0.3070 h1        1 CGL      0.078200
     40 HB23        1.4970    0.4790    1.2470 h1        1 CGL      0.078200
     41 HN3         0.4550    3.4630   -1.3360 hn        1 CGL      0.337500
     42 HA31       -0.4930    5.3450    0.5160 h1        1 CGL      0.034700
     43 HA32        1.2560    5.0360    0.8870 h1        1 CGL      0.034700
     44 HN11       -6.3180    0.8510    1.5240 hn        1 CGL      0.330300
     45 CD1        -2.3840    0.2040   -0.0960 c         1 CGL      0.656100
     46 HN12       -7.2130   -0.2560    2.2760 hn        1 CGL      0.330300
@<TRIPOS>BOND
     1    1    2 1   
     2    1   27 1   
     3    1   28 1   
     4    2    3 1   
     5    2    5 1   
     6    2   29 1   
     7    3    4 1   
     8    3   30 1   
     9    3   31 1   
    10    4   21 1   
    11    5    6 1   
    12    5    7 1   
    13    8    9 1   
    14    8   44 1   
    15    8   46 1   
    16    9   10 1   
    17    9   13 1   
    18    9   32 1   
    19   10   11 1   
    20   10   12 1   
    21   13   14 1   
    22   13   33 1   
    23   13   34 1   
    24   14   35 1   
    25   14   36 1   
    26   14   45 1   
    27   15   45 2   
    28   16   17 1   
    29   16   37 1   
    30   16   45 1   
    31   17   18 1   
    32   17   20 1   
    33   17   38 1   
    34   18   19 2   
    35   18   22 1   
    36   20   21 1   
    37   20   39 1   
    38   20   40 1   
    39   22   23 1   
    40   22   41 1   
    41   23   24 1   
    42   23   42 1   
    43   23   43 1   
    44   24   25 1   
    45   24   26 1   
@<TRIPOS>SUBSTRUCTURE
     1 CGL         1 TEMP              0 ****  ****    0 ROOT
