@<TRIPOS>MOLECULE
CGL
   46    45     1     0     0
SMALL
bcc


@<TRIPOS>ATOM
      1 N          -1.5800   -3.2750   -6.8040 n3        1 CGL     -0.903800
      2 CA         -1.1400   -2.0500   -6.2140 c3        1 CGL      0.038500
      3 CB         -1.2070   -2.1620   -4.7190 c3        1 CGL      0.003700
      4 SG         -1.0660   -0.5310   -3.9890 ss        1 CGL     -0.250100
      5 C           0.3060   -1.7640   -6.6420 c         1 CGL      0.919600
      6 O           0.6020   -0.6520   -7.1700 o         1 CGL     -0.835800
      7 OXT         1.1890   -2.6520   -6.5110 o         1 CGL     -0.835800
      8 N1          5.1010    0.8190    3.6230 n3        1 CGL     -0.897800
      9 CA1         4.1610   -0.2320    3.7500 c3        1 CGL      0.022500
     10 C1          4.2260   -0.8000    5.1490 c         1 CGL      0.889600
     11 O11         4.1180   -0.0380    6.1430 o         1 CGL     -0.851800
     12 O12         4.4610   -2.0220    5.3190 o         1 CGL     -0.851800
     13 CB1         2.7520    0.3070    3.4780 c3        1 CGL     -0.057400
     14 CG1         2.3990    0.1040    1.9610 c3        1 CGL     -0.145400
     15 CD1         0.8840    0.1780    1.7710 c         1 CGL      0.656100
     16 OE1         0.1500   -0.4010    2.5340 o         1 CGL     -0.610100
     17 N2          0.3400    0.9480    0.7090 n         1 CGL     -0.552900
     18 CA2        -1.0200    0.7790    0.3300 c3        1 CGL      0.046700
     19 C2         -1.8710    1.8520    0.9990 c         1 CGL      0.616100
     20 O2         -1.5640    3.0300    0.8870 o         1 CGL     -0.672100
     21 CB2        -1.1430    0.9010   -1.1710 c3        1 CGL     -0.018300
     22 SG2        -0.9150   -0.7060   -1.9230 ss        1 CGL     -0.185100
     23 N3         -3.0900    1.5010    1.5960 n         1 CGL     -0.519900
     24 CA3        -3.8720    2.4960    2.2690 c3        1 CGL     -0.037000
     25 C3         -5.1050    1.8520    2.8540 c         1 CGL      0.909600
     26 O31        -6.2240    2.0020    2.2880 o         1 CGL     -0.845300
     27 O32        -5.0020    1.0880    3.8580 o         1 CGL     -0.845300
     28 H          -2.4820   -3.3540   -6.7000 hn        1 CGL      0.340300
     29 HN         -1.3720   -3.2760   -7.7050 hn        1 CGL      0.340300
     30 HA         -1.7130   -1.3260   -6.5090 h1        1 CGL      0.060700
     31 HB2        -0.4760   -2.7240   -4.4020 h1        1 CGL      0.072700
     32 HB3        -2.0550   -2.5590   -4.4620 h1        1 CGL      0.072700
     33 HN11        5.6810    0.6280    2.9440 hn        1 CGL      0.330300
     34 HN12        5.5720    0.9100    4.4160 hn        1 CGL      0.330300
     35 HA1         4.3690   -0.9330    3.1040 h1        1 CGL      0.038700
     36 HB12        2.1050   -0.1760    4.0310 hc        1 CGL      0.061200
     37 HB13        2.7200    1.2600    3.6960 hc        1 CGL      0.061200
     38 HG12        2.8330    0.8120    1.4240 hc        1 CGL      0.062700
     39 HG13        2.7250   -0.7810    1.6630 hc        1 CGL      0.062700
     40 HN2         0.8760    1.5250    0.2430 hn        1 CGL      0.309500
     41 HA2        -1.3250   -0.0880    0.6050 h1        1 CGL      0.108700
     42 HB22       -0.4630    1.5140   -1.5030 h1        1 CGL      0.078200
     43 HB23       -2.0240    1.2420   -1.3980 h1        1 CGL      0.078200
     44 HN3        -3.3840    0.6450    1.5550 hn        1 CGL      0.337500
     45 HA31       -4.1420    3.2020    1.6210 h1        1 CGL      0.034700
     46 HA32       -3.3320    2.9050    3.0000 h1        1 CGL      0.034700
@<TRIPOS>BOND
     1    1    2 1   
     2    1   28 1   
     3    1   29 1   
     4    2    3 1   
     5    2    5 1   
     6    2   30 1   
     7    3    4 1   
     8    3   31 1   
     9    3   32 1   
    10    4   22 1   
    11    5    6 1   
    12    5    7 1   
    13    8    9 1   
    14    8   33 1   
    15    8   34 1   
    16    9   10 1   
    17    9   13 1   
    18    9   35 1   
    19   10   11 1   
    20   10   12 1   
    21   13   14 1   
    22   13   36 1   
    23   13   37 1   
    24   14   15 1   
    25   14   38 1   
    26   14   39 1   
    27   15   16 2   
    28   15   17 1   
    29   17   18 1   
    30   17   40 1   
    31   18   19 1   
    32   18   21 1   
    33   18   41 1   
    34   19   20 2   
    35   19   23 1   
    36   21   22 1   
    37   21   42 1   
    38   21   43 1   
    39   23   24 1   
    40   23   44 1   
    41   24   25 1   
    42   24   45 1   
    43   24   46 1   
    44   25   26 1   
    45   25   27 1   
@<TRIPOS>SUBSTRUCTURE
     1 CGL         1 TEMP              0 ****  ****    0 ROOT
