@<TRIPOS>MOLECULE
CGL
   50    46     1     0     0
SMALL
bcc


@<TRIPOS>ATOM
      1 N           1.4830    0.2630    0.7360 nz        1 CGL     -0.697400
      2 CA          1.5430    1.7070    0.6470 c2        1 CGL     -0.281000
      3 CB          0.6940    2.4930    1.3540 c2        1 CGL      0.162100
      4 SG         -0.4980    1.9390    2.3530 s         1 CGL     -0.588300
      5 C           2.8490   -2.8030   -1.4960 c1        1 CGL      0.913000
      6 O           2.4630   -1.9080   -0.8000 o         1 CGL     -0.456000
      7 OXT         3.2300   -3.6870   -2.1810 o         1 CGL     -0.456000
      8 N1         -2.3630    8.5020    6.9530 nz        1 CGL     -0.830600
      9 CA1        -2.0810    7.0320    6.9370 c3        1 CGL     -0.064500
     10 C1         -2.9360    6.3670    5.7690 c         1 CGL      0.927600
     11 O11        -3.3020    7.1370    4.8530 o         1 CGL     -0.770800
     12 O12        -3.1360    5.1370    5.8930 o         1 CGL     -0.770800
     13 CB1        -0.5970    6.7370    6.7330 c3        1 CGL     -0.081400
     14 CG1        -0.3530    5.2430    6.6240 c3        1 CGL     -0.141400
     15 OE1         0.4760    5.3100    4.3310 o         1 CGL     -0.477100
     16 N2         -1.0680    3.6400    4.7780 nz        1 CGL     -0.790400
     17 CA2         0.4490    0.9000    5.5120 ce        1 CGL     -0.296200
     18 C2          0.4540    1.2920    6.9400 c         1 CGL      0.675300
     19 O2          0.1960    2.4950    7.2280 o         1 CGL     -0.715100
     20 CB2        -0.2690   -0.1010    4.9880 c2        1 CGL     -0.031400
     21 SG2        -0.5420   -0.1250    3.3270 sh        1 CGL     -0.178400
     22 N3          0.7240    0.3780    7.9070 nt        1 CGL     -0.629000
     23 CA3         0.9010   -5.2470    8.3460 cx        1 CGL      0.029400
     24 C3          0.8990   -3.8040    8.2200 c         1 CGL      0.711600
     25 O31         0.9210   -2.6150    8.4380 o         1 CGL     -0.536500
     26 O32         0.8060   -4.5240    7.0540 os        1 CGL     -0.433900
     27 H          -1.2490   -1.2310    3.1670 hs        1 CGL      0.106800
     28 HN          1.0380   -0.1230   -0.1030 hn        1 CGL      0.451133
     29 HA          2.4250   -0.1270    0.8060 hn        1 CGL      0.451133
     30 HB2         2.3140    2.0840   -0.0420 hx        1 CGL      0.179000
     31 HB3         0.8050    3.5860    1.2330 h4        1 CGL      0.070200
     32 HA1        -1.1580    4.6690    7.1650 hc        1 CGL      0.122700
     33 HB12       -2.4280    6.5960    7.9150 hx        1 CGL      0.107700
     34 HB13       -0.0100    7.1260    7.6080 hc        1 CGL      0.067200
     35 HG12       -0.2160    7.2550    5.8110 hc        1 CGL      0.067200
     36 HG13        0.6260    4.9640    7.1090 hc        1 CGL      0.122700
     37 HN2        -0.7660    3.2300    3.8330 hn        1 CGL      0.491467
     38 HA2        -0.9950    2.9170    5.5060 hn        1 CGL      0.491467
     39 HB22        1.0190    1.5970    4.8730 ha        1 CGL      0.149000
     40 HB23       -0.7850   -0.8330    5.6270 h4        1 CGL      0.152000
     41 HN3         0.9180   -0.5670    7.6780 hn        1 CGL      0.331500
     42 HA31        0.7150    0.6460    8.8610 hn        1 CGL      0.331500
     43 HA32        1.8450   -5.8070    8.4830 h1        1 CGL      0.115700
     44 HN12       -2.6500    8.7610    5.9840 hn        1 CGL      0.455133
     45 HN31        0.9210   -0.0090    1.5750 hn        1 CGL      0.451133
     46 H12        -3.1420    8.6970    7.5820 hn        1 CGL      0.455133
     47 H22        -2.0580    3.9430    4.7160 hn        1 CGL      0.491467
     48 H32        -0.0180   -5.7970    8.6250 h1        1 CGL      0.115700
     49 CD1        -0.2480    4.8040    5.1850 c         1 CGL      0.573100
     50 HN11       -1.5460    9.0420    7.2310 hn        1 CGL      0.455133
@<TRIPOS>BOND
     1    1    2 1   
     2    1   28 1   
     3    1   29 1   
     4    1   45 1   
     5    2    3 2   
     6    2   30 1   
     7    3    4 1   
     8    3   31 1   
     9    5    6 2   
    10    5    7 2   
    11    8    9 1   
    12    8   44 1   
    13    8   46 1   
    14    8   50 1   
    15    9   10 1   
    16    9   13 1   
    17    9   33 1   
    18   10   11 1   
    19   10   12 1   
    20   13   14 1   
    21   13   34 1   
    22   13   35 1   
    23   14   32 1   
    24   14   36 1   
    25   14   49 1   
    26   15   49 2   
    27   16   37 1   
    28   16   38 1   
    29   16   47 1   
    30   16   49 1   
    31   17   18 1   
    32   17   20 2   
    33   17   39 1   
    34   18   19 2   
    35   18   22 1   
    36   20   21 1   
    37   20   40 1   
    38   21   27 1   
    39   22   41 1   
    40   22   42 1   
    41   23   24 1   
    42   23   26 1   
    43   23   43 1   
    44   23   48 1   
    45   24   25 2   
    46   24   26 1   
@<TRIPOS>SUBSTRUCTURE
     1 CGL         1 TEMP              0 ****  ****    0 ROOT
