@<TRIPOS>MOLECULE
CGL
   50    45     1     0     0
SMALL
bcc


@<TRIPOS>ATOM
      1 N           1.3830   -0.0180   -1.4020 n3        1 CGL     -0.592600
      2 CA          2.2470    0.1750   -0.4600 c1        1 CGL     -0.152100
      3 CB          2.0040    0.5760    0.9160 c3        1 CGL      0.014800
      4 SG          0.2950    0.8950    1.3910 ss        1 CGL     -0.388100
      5 C           4.4800   -0.2410   -1.3050 c1        1 CGL      0.915000
      6 O           4.0780   -0.4970   -2.4010 o         1 CGL     -0.465750
      7 OXT         5.0480   -0.0200   -0.2800 o         1 CGL     -0.465750
      8 N1         -2.1050    8.1070    8.1530 n4        1 CGL     -0.827600
      9 CA1        -2.1810    6.6190    8.0170 c3        1 CGL     -0.040500
     10 C1         -2.5150    6.2800    6.5180 c         1 CGL      0.888600
     11 O11        -1.9560    7.0000    5.6480 o         1 CGL     -0.776800
     12 O12        -3.2090    5.2590    6.3040 o         1 CGL     -0.776800
     13 CB1        -0.8640    5.9290    8.3930 c3        1 CGL     -0.083400
     14 CG1        -0.6370    4.6620    7.5870 c3        1 CGL     -0.140400
     15 OE1         0.9240    5.6540    5.9890 o         1 CGL     -0.451100
     16 N2         -0.7570    4.3750    5.0440 n4        1 CGL     -0.758400
     17 CA2         0.0990    0.6230    4.6410 ce        1 CGL     -0.279200
     18 C2          0.0950    0.8860    6.0950 c         1 CGL      0.694300
     19 O2         -0.0400    2.0760    6.5060 o         1 CGL     -0.744100
     20 CB2        -0.3060   -0.5040    4.0430 c2        1 CGL     -0.047400
     21 SG2        -0.3890   -0.8300    2.4120 ss        1 CGL      0.027400
     22 N3          0.2590   -0.1470    6.9730 n         1 CGL     -0.531900
     23 CA3         0.2750    0.0240    8.3940 c3        1 CGL      0.072300
     24 C3         -0.4850   -4.3050    6.4700 c1        1 CGL      0.915000
     25 O31        -0.3610   -3.1550    6.1700 o         1 CGL     -0.465750
     26 O32        -0.6100   -5.4450    6.7660 o         1 CGL     -0.465750
     27 H           0.3910    0.0850   -1.3060 hn        1 CGL      0.431300
     28 HN         -0.9740   -2.9510    2.1300 ha        1 CGL      0.027000
     29 HA          1.7250   -0.2850   -2.3050 hn        1 CGL      0.431300
     30 HB2         2.5280    1.5560    1.0860 h1        1 CGL      0.117700
     31 HB3         2.4660   -0.1890    1.5910 h1        1 CGL      0.117700
     32 HA1        -1.5870    4.0610    7.5140 hc        1 CGL      0.127700
     33 HB12       -3.0160    6.2450    8.6740 hx        1 CGL      0.118700
     34 HB13       -0.8960    5.6500    9.4800 hc        1 CGL      0.076200
     35 HG12        0.0150    6.6140    8.2420 hc        1 CGL      0.076200
     36 HG13        0.1260    4.0050    8.0970 hc        1 CGL      0.127700
     37 HN2        -0.3410    4.7260    4.1780 hn        1 CGL      0.484467
     38 HA2        -0.6600    3.3460    5.0970 hn        1 CGL      0.484467
     39 HB22        0.4620    1.4800    4.0430 ha        1 CGL      0.152000
     40 HB23       -0.6720   -1.3710    4.6330 h4        1 CGL      0.180000
     41 HN3         0.3560   -1.0730    6.6210 hn        1 CGL      0.336500
     42 HA31       -0.6310   -0.4610    8.8500 h1        1 CGL      0.053033
     43 HA32        1.1970   -0.4550    8.8200 h1        1 CGL      0.053033
     44 HN12       -1.6880    8.4730    7.2760 hn        1 CGL      0.459800
     45 HN31       -1.5980   -2.6630    2.1020 ha        1 CGL      0.027000
     46 H12        -3.0480    8.4880    8.2490 hn        1 CGL      0.459800
     47 H22        -1.7680    4.6200    5.0560 hn        1 CGL      0.484467
     48 H32         0.2740    1.1150    8.6560 h1        1 CGL      0.053033
     49 CD1        -0.0690    4.9790    6.2290 c         1 CGL      0.585100
     50 HN11       -1.5340    8.3830    8.9510 hn        1 CGL      0.459800
@<TRIPOS>BOND
     1    1    2 3   
     2    1   27 1   
     3    1   29 1   
     4    2    3 1   
     5    3    4 1   
     6    3   30 1   
     7    3   31 1   
     8    4   21 1   
     9    5    6 2   
    10    5    7 2   
    11    8    9 1   
    12    8   44 1   
    13    8   46 1   
    14    8   50 1   
    15    9   10 1   
    16    9   13 1   
    17    9   33 1   
    18   10   11 1   
    19   10   12 1   
    20   13   14 1   
    21   13   34 1   
    22   13   35 1   
    23   14   32 1   
    24   14   36 1   
    25   14   49 1   
    26   15   49 2   
    27   16   37 1   
    28   16   38 1   
    29   16   47 1   
    30   16   49 1   
    31   17   18 1   
    32   17   20 2   
    33   17   39 1   
    34   18   19 2   
    35   18   22 1   
    36   20   21 1   
    37   20   40 1   
    38   22   23 1   
    39   22   41 1   
    40   23   42 1   
    41   23   43 1   
    42   23   48 1   
    43   24   25 2   
    44   24   26 2   
    45   28   45 1   
@<TRIPOS>SUBSTRUCTURE
     1 CGL         1 TEMP              0 ****  ****    0 ROOT
