@<TRIPOS>MOLECULE
CGN
   15    15     1     0     0
SMALL
bcc


@<TRIPOS>ATOM
      1 CB          0.0080    0.1870   -0.0070 c3        1 CGN     -0.084400
      2 CG          1.5030   -0.1170    0.0010 c3        1 CGN     -0.165400
      3 CD          1.9490    0.0770    1.4450 c         1 CGN      0.683500
      4 N           0.9010    0.6210    2.1990 n         1 CGN     -0.539900
      5 OE1         3.0760   -0.1610    1.8960 o         1 CGN     -0.602500
      6 C          -1.4790   -0.1720    2.0020 c         1 CGN      0.544900
      7 CA         -0.3350    0.6490    1.4360 c3        1 CGN     -0.037300
      8 O          -1.4760   -0.6630    3.1280 o         1 CGN     -0.510100
      9 HB1        -0.2360    0.9990   -0.7330 hc        1 CGN      0.059200
     10 HB2        -0.5850   -0.7180   -0.2850 hc        1 CGN      0.059200
     11 HG1         1.7210   -1.1660   -0.3150 hc        1 CGN      0.085200
     12 HG2         2.0740    0.5780   -0.6630 hc        1 CGN      0.085200
     13 HN          0.8460    0.4640    3.1790 hn        1 CGN      0.329500
     14 H          -2.3450   -0.2760    1.3110 h4        1 CGN      0.007200
     15 HA         -0.7000    1.7210    1.4150 h1        1 CGN      0.084700
@<TRIPOS>BOND
     1    1    2 1   
     2    1    7 1   
     3    1    9 1   
     4    1   10 1   
     5    2    3 1   
     6    2   11 1   
     7    2   12 1   
     8    3    4 1   
     9    3    5 2   
    10    4    7 1   
    11    4   13 1   
    12    6    7 1   
    13    6    8 2   
    14    6   14 1   
    15    7   15 1   
@<TRIPOS>SUBSTRUCTURE
     1 CGN         1 TEMP              0 ****  ****    0 ROOT
