@<TRIPOS>MOLECULE
CGN
   15    15     1     0     0
SMALL
bcc


@<TRIPOS>ATOM
      1 CB          1.6100   -0.0430   -0.0340 c3        1 CGN     -0.084400
      2 CG          1.1350   -0.3190    1.3890 c3        1 CGN     -0.165400
      3 CD         -0.3350    0.0790    1.4110 c         1 CGN      0.683500
      4 N          -0.6780    0.7050    0.2040 n         1 CGN     -0.539900
      5 OE1        -1.1170   -0.0760    2.3570 o         1 CGN     -0.602500
      6 C           0.0800   -0.1460   -2.0390 c         1 CGN      0.544900
      7 CA          0.4020    0.6080   -0.7620 c3        1 CGN     -0.037300
      8 O          -1.0570   -0.4770   -2.3680 o         1 CGN     -0.510100
      9 HB1         1.9190   -0.9870   -0.5440 hc        1 CGN      0.059200
     10 HB2         2.4800    0.6570   -0.0420 hc        1 CGN      0.059200
     11 HG1         1.2300   -1.3980    1.6630 hc        1 CGN      0.085200
     12 HG2         1.6970    0.2870    2.1420 hc        1 CGN      0.085200
     13 HN         -1.6130    0.6840   -0.1300 hn        1 CGN      0.329500
     14 H           0.9670   -0.3580   -2.6750 h4        1 CGN      0.007200
     15 HA          0.6730    1.6600   -1.0800 h1        1 CGN      0.084700
@<TRIPOS>BOND
     1    1    2 1   
     2    1    7 1   
     3    1    9 1   
     4    1   10 1   
     5    2    3 1   
     6    2   11 1   
     7    2   12 1   
     8    3    4 1   
     9    3    5 2   
    10    4    7 1   
    11    4   13 1   
    12    6    7 1   
    13    6    8 2   
    14    6   14 1   
    15    7   15 1   
@<TRIPOS>SUBSTRUCTURE
     1 CGN         1 TEMP              0 ****  ****    0 ROOT
