@<TRIPOS>MOLECULE
CGN
   15    15     1     0     0
SMALL
bcc


@<TRIPOS>ATOM
      1 CB          0.0150    0.1940   -0.0030 c3        1 CGN     -0.084400
      2 CG          1.5030   -0.1400    0.0070 c3        1 CGN     -0.165400
      3 CD          1.9500    0.0410    1.4520 c         1 CGN      0.683500
      4 N           0.9110    0.6040    2.2060 n         1 CGN     -0.539900
      5 OE1         3.0720   -0.2200    1.9050 o         1 CGN     -0.602500
      6 C          -1.4830   -0.1400    2.0020 c         1 CGN      0.544900
      7 CA         -0.3220    0.6590    1.4410 c3        1 CGN     -0.037300
      8 O          -1.4920   -0.6350    3.1270 o         1 CGN     -0.510100
      9 HB1        -0.2120    1.0120   -0.7270 hc        1 CGN      0.059200
     10 HB2        -0.5950   -0.6990   -0.2840 hc        1 CGN      0.059200
     11 HG1         1.7010   -1.1930   -0.3110 hc        1 CGN      0.085200
     12 HG2         2.0890    0.5450   -0.6540 hc        1 CGN      0.085200
     13 HN          0.8520    0.4470    3.1850 hn        1 CGN      0.329500
     14 H          -2.3500   -0.2250    1.3100 h4        1 CGN      0.007200
     15 HA         -0.6650    1.7380    1.4210 h1        1 CGN      0.084700
@<TRIPOS>BOND
     1    1    2 1   
     2    1    7 1   
     3    1    9 1   
     4    1   10 1   
     5    2    3 1   
     6    2   11 1   
     7    2   12 1   
     8    3    4 1   
     9    3    5 2   
    10    4    7 1   
    11    4   13 1   
    12    6    7 1   
    13    6    8 2   
    14    6   14 1   
    15    7   15 1   
@<TRIPOS>SUBSTRUCTURE
     1 CGN         1 TEMP              0 ****  ****    0 ROOT
