@<TRIPOS>MOLECULE
CGN
   15    14     1     0     0
SMALL
bcc


@<TRIPOS>ATOM
      1 CB         -0.2630   -0.2000   -1.0610 c3        1 CGN     -0.163000
      2 CG          1.0930   -0.2000   -1.0610 c3        1 CGN     -0.194000
      3 CD          1.4370   -0.2000    0.4400 c2        1 CGN      0.291000
      4 N           0.6100    0.6120    1.0360 n         1 CGN     -0.349000
      5 OE1         2.2630   -0.9050    0.9830 o         1 CGN     -0.327000
      6 C          -1.7700   -0.1360    0.9850 c1        1 CGN      0.163000
      7 CA         -0.6930    0.5290    0.2640 c2        1 CGN     -0.064000
      8 O          -1.5100   -0.9260    1.8740 o         1 CGN     -0.271000
      9 HB1        -0.5990   -1.1160   -1.0660 hc        1 CGN      0.098500
     10 HB2        -0.5990    0.2870   -1.8370 hc        1 CGN      0.098500
     11 HG1         1.5610    0.5090   -1.5430 hc        1 CGN      0.124500
     12 HG2         1.4150   -0.9960   -1.5250 hc        1 CGN      0.124500
     13 HN          0.8350    1.2570    1.6410 hn        1 CGN      0.243000
     14 H          -2.7000    0.0740    0.7750 ha        1 CGN      0.100000
     15 HA         -1.0790    1.4090    0.0940 h4        1 CGN      0.124000
@<TRIPOS>BOND
     1    1    2 1   
     2    1    7 1   
     3    1    9 1   
     4    1   10 1   
     5    2    3 1   
     6    2   11 1   
     7    2   12 1   
     8    3    4 1   
     9    3    5 1   
    10    4    7 1   
    11    4   13 1   
    12    6    8 1   
    13    6   14 1   
    14    7   15 1   
@<TRIPOS>SUBSTRUCTURE
     1 CGN         1 TEMP              0 ****  ****    0 ROOT
