@<TRIPOS>MOLECULE
CGP
   62    61     1     0     0
SMALL
bcc


@<TRIPOS>ATOM
      1 P          -1.1820    0.2990    1.5200 p3        1 CGP      2.553000
      2 O1P         0.3250    0.4290    1.7130 o         1 CGP     -1.163000
      3 O2P        -1.8430    0.1700    2.8480 os        1 CGP     -1.135000
      4 O5B        -0.7700    6.0820    2.6300 oh        1 CGP     -0.337000
      5 C5X        -1.4130    4.8430    2.8340 c3        1 CGP     -0.023000
      6 C4X        -1.1580    3.9400    1.6410 c3        1 CGP     -0.045000
      7 O4B        -1.3270    4.5780    0.5710 os        1 CGP     -0.297000
      8 C3X        -2.2440    2.7110    1.6170 c3        1 CGP      0.060000
      9 O3B        -1.7300    1.5870    0.7850 os        1 CGP     -0.739000
     10 C2X        -3.2570    3.1670    1.1180 c3        1 CGP     -0.212000
     11 C1X        -2.7680    4.3330    0.1980 c3        1 CGP      0.144000
     12 N1C        -2.8550    3.9800   -1.0780 n         1 CGP     -0.280000
     13 CC2        -1.6680    4.1060   -1.9580 c2        1 CGP      0.354000
     14 N3C        -1.7830    3.8270   -3.3900 n2        1 CGP     -0.311000
     15 CC4        -3.0450    3.5950   -3.9680 c1        1 CGP      0.215000
     16 CC5        -4.2710    3.5210   -3.0940 c1        1 CGP     -0.359000
     17 CC6        -4.1370    3.6690   -1.6460 c2        1 CGP      0.077000
     18 O2C        -0.5890    4.3030   -1.4740 o         1 CGP     -0.369000
     19 N4C        -3.1520    3.3800   -5.3980 n3        1 CGP     -0.352000
     20 O5D        -1.5030   -1.0150    0.6290 os        1 CGP     -0.749000
     21 C5D        -0.7000   -2.2350    0.8520 c3        1 CGP      0.013000
     22 C4D        -0.1370   -2.6920   -0.4350 c3        1 CGP     -0.004000
     23 O4D         1.1090   -2.3990   -0.5000 os        1 CGP     -0.254000
     24 C3D        -0.2320   -4.3380   -0.5360 c3        1 CGP      0.015000
     25 O3D        -1.6240   -4.7560   -1.0380 oh        1 CGP     -0.340000
     26 C2D         0.6050   -4.6710   -1.3290 c3        1 CGP     -0.198000
     27 C1D         1.7260   -3.5180   -1.2650 c3        1 CGP      0.176000
     28 N9G         2.8050   -3.9530   -0.6520 n3        1 CGP     -0.184000
     29 C8G         3.2180   -4.9290   -1.4840 c1        1 CGP     -0.113000
     30 N7G         4.5220   -5.2160   -1.1850 n2        1 CGP     -0.066000
     31 C5G         4.9070   -4.4080   -0.1610 c1        1 CGP     -0.279000
     32 C6G         6.1980   -4.3230    0.6470 c1        1 CGP      0.400000
     33 O6G         7.1250   -5.0050    0.3600 o         1 CGP     -0.363000
     34 N1G         6.3080   -3.4000    1.6830 n3        1 CGP     -0.359000
     35 C2G         5.2100   -2.5330    1.9850 c2        1 CGP      0.250000
     36 N2G         5.3490   -1.5260    2.9880 n3        1 CGP     -0.331000
     37 N3G         3.9890   -2.6180    1.2140 n1        1 CGP     -0.242000
     38 C4G         3.8510   -3.6260    0.1710 c1        1 CGP      0.106000
     39 HO5C       -0.6480    6.4930    3.4240 ho        1 CGP      0.205000
     40 H51C       -1.0760    4.4460    3.5970 h1        1 CGP      0.102000
     41 H52C       -2.3670    4.9850    2.9380 h1        1 CGP      0.102000
     42 H4B        -0.2290    3.5750    1.6780 h1        1 CGP      0.116000
     43 H3B        -2.4160    2.4160    2.4820 h1        1 CGP      0.132000
     44 H21C       -3.7310    2.4550    0.5640 hc        1 CGP      0.112000
     45 H22C       -3.8730    3.5200    1.8360 hc        1 CGP      0.112000
     46 H1B        -3.2770    5.1040    0.3550 h2        1 CGP      0.157000
     47 H5C        -5.1760    3.4430   -3.5060 ha        1 CGP      0.156000
     48 H6C        -4.9270    3.6220   -1.0750 h4        1 CGP      0.213000
     49 H41C       -3.9510    3.1860   -5.7660 hn        1 CGP      0.215500
     50 H42C       -2.3660    3.4040   -5.9450 hn        1 CGP      0.215500
     51 H51G        0.0230   -2.0400    1.4680 h1        1 CGP      0.095500
     52 H52G       -1.2440   -2.9070    1.2090 h1        1 CGP      0.095500
     53 H4D        -0.5960   -2.2970   -1.1450 h1        1 CGP      0.119000
     54 H3D        -0.0580   -4.7300    0.3180 h1        1 CGP      0.107000
     55 HO3G       -1.8000   -5.6330   -0.7750 ho        1 CGP      0.219000
     56 H21G        1.0010   -5.5600   -1.0660 hc        1 CGP      0.112500
     57 H22G        0.2190   -4.7230   -2.2280 hc        1 CGP      0.112500
     58 H1D         1.9690   -3.1990   -2.2420 h2        1 CGP      0.110000
     59 H8G         2.7170   -5.2850   -2.2350 DU        1 CGP      0.191000
     60 H1G         7.1260   -3.3000    2.1380 hn        1 CGP      0.239000
     61 HN1G        5.9980   -1.6050    3.6230 hn        1 CGP      0.250500
     62 HN2G        4.8230   -0.7270    2.9390 hn        1 CGP      0.250500
@<TRIPOS>BOND
     1    1    2 1   
     2    1    9 1   
     3    1   20 1   
     4    4    5 1   
     5    4   39 1   
     6    5    6 1   
     7    5   40 1   
     8    5   41 1   
     9    6    7 1   
    10    6    8 1   
    11    6   42 1   
    12    7   11 1   
    13    8    9 1   
    14    8   10 1   
    15    8   43 1   
    16   10   11 1   
    17   10   44 1   
    18   10   45 1   
    19   11   12 1   
    20   11   46 1   
    21   12   13 1   
    22   12   17 1   
    23   13   14 1   
    24   13   18 1   
    25   14   15 1   
    26   15   19 1   
    27   16   17 1   
    28   16   47 1   
    29   17   48 1   
    30   19   49 1   
    31   19   50 1   
    32   20   21 1   
    33   21   22 1   
    34   21   51 1   
    35   21   52 1   
    36   22   23 1   
    37   22   24 1   
    38   22   53 1   
    39   23   27 1   
    40   24   25 1   
    41   24   26 1   
    42   24   54 1   
    43   25   55 1   
    44   26   27 1   
    45   26   56 1   
    46   26   57 1   
    47   27   28 1   
    48   27   58 1   
    49   28   29 1   
    50   28   38 1   
    51   29   30 1   
    52   30   31 1   
    53   31   38 1   
    54   32   33 1   
    55   32   34 1   
    56   34   35 1   
    57   34   60 1   
    58   35   36 1   
    59   35   37 1   
    60   36   61 1   
    61   36   62 1   
@<TRIPOS>SUBSTRUCTURE
     1 CGP         1 TEMP              0 ****  ****    0 ROOT
