@<TRIPOS>MOLECULE
CGP
   62    66     1     0     0
SMALL
bcc


@<TRIPOS>ATOM
      1 P           3.7000   -1.1120    1.1900 p5        1 CGP      1.452800
      2 O1P         4.6360   -0.7640    2.2750 o         1 CGP     -0.833500
      3 O2P         3.5830   -0.5030   -0.1480 o         1 CGP     -0.833500
      4 O5B        -1.1370   -1.8960   -1.3200 oh        1 CGP     -0.611800
      5 C5X        -0.1550   -1.0200   -0.8040 c3        1 CGP      0.127400
      6 C4X         0.0900   -1.2590    0.6840 c3        1 CGP      0.061100
      7 O4B        -1.1380   -0.9760    1.3740 os        1 CGP     -0.440600
      8 C3X         1.1930   -0.3270    1.2460 c3        1 CGP      0.172100
      9 O3B         2.1850   -1.0800    1.8610 os        1 CGP     -0.583200
     10 C2X         0.4670    0.5290    2.2990 c3        1 CGP     -0.131400
     11 C1X        -0.8910   -0.1650    2.5360 c3        1 CGP      0.296500
     12 N1C        -0.9480   -0.9710    3.7500 n         1 CGP     -0.392000
     13 CC2        -2.0900   -0.8820    4.6280 c         1 CGP      0.836900
     14 N3C        -2.1930   -1.7180    5.7480 nc        1 CGP     -0.748100
     15 CC4        -1.1960   -2.5880    6.0010 cd        1 CGP      0.747500
     16 CC5        -0.0360   -2.7140    5.1270 cd        1 CGP     -0.435600
     17 CC6         0.0250   -1.9040    4.0230 cc        1 CGP      0.065600
     18 O2C        -2.9670   -0.0290    4.3630 o         1 CGP     -0.657500
     19 N4C        -1.2350   -3.3680    7.1430 nh        1 CGP     -0.917800
     20 O5D         3.7630   -2.7440    1.0210 os        1 CGP     -0.555200
     21 C5D         3.2990   -3.3280   -0.1480 c3        1 CGP      0.180400
     22 C4D         4.4310   -4.0660   -0.8780 c3        1 CGP      0.072100
     23 O4D         5.4210   -4.5960    0.0130 os        1 CGP     -0.371600
     24 C3D         3.8970   -5.2770   -1.6730 c3        1 CGP      0.115100
     25 O3D         4.4800   -5.3760   -2.9580 oh        1 CGP     -0.596800
     26 C2D         4.2440   -6.5000   -0.8060 c3        1 CGP     -0.153400
     27 C1D         5.1220   -5.9560    0.3500 c3        1 CGP      0.257800
     28 N9G         4.5490   -6.0790    1.6780 na        1 CGP     -0.237900
     29 C8G         3.4530   -6.9030    2.0640 cc        1 CGP      0.368400
     30 N7G         2.9380   -6.5880    3.2620 nd        1 CGP     -0.593000
     31 C5G         3.6830   -5.4880    3.6980 cd        1 CGP      0.136800
     32 C6G         3.4980   -4.6170    4.8360 c         1 CGP      0.656000
     33 O6G         2.6620   -4.7240    5.7540 o         1 CGP     -0.664500
     34 N1G         4.3850   -3.5140    4.8740 n         1 CGP     -0.493400
     35 C2G         5.3810   -3.2970    3.8980 cd        1 CGP      0.695800
     36 N2G         6.2210   -2.1590    4.0780 nh        1 CGP     -0.844800
     37 N3G         5.6200   -4.1400    2.8610 nc        1 CGP     -0.638100
     38 C4G         4.7060   -5.1600    2.7280 cc        1 CGP      0.185800
     39 HO5C       -1.9040   -1.8330   -0.7360 ho        1 CGP      0.410000
     40 H51C        0.7820   -1.2420   -1.3820 h1        1 CGP      0.056200
     41 H52C       -0.4690    0.0440   -0.9770 h1        1 CGP      0.056200
     42 H3B         1.6360    0.3080    0.4270 h1        1 CGP      0.090700
     43 H21C        1.0790    0.6120    3.2290 hc        1 CGP      0.071200
     44 H22C        0.2790    1.5550    1.9000 hc        1 CGP      0.071200
     45 H1B        -1.7550    0.5640    2.5710 h2        1 CGP      0.116700
     46 H5C         0.7640   -3.4380    5.3410 ha        1 CGP      0.185000
     47 H6C         0.8750   -1.9620    3.3060 h4        1 CGP      0.210000
     48 H41C       -0.6110   -4.1370    7.1770 hn        1 CGP      0.428800
     49 H42C       -2.0800   -3.4330    7.6560 hn        1 CGP      0.428800
     50 H51G        2.4950   -4.0690    0.1300 h1        1 CGP      0.038700
     51 H52G        2.8710   -2.5480   -0.8420 h1        1 CGP      0.038700
     52 H4D         5.0020   -3.3490   -1.5280 h1        1 CGP      0.092700
     53 H3D         2.7950   -5.2020   -1.8730 h1        1 CGP      0.096700
     54 HO3G        5.4340   -5.2760   -2.8490 ho        1 CGP      0.402000
     55 H21G        3.3070   -6.9930   -0.4580 hc        1 CGP      0.067200
     56 H22G        4.8330   -7.2440   -1.3960 hc        1 CGP      0.067200
     57 H1D         6.1330   -6.4640    0.3850 h2        1 CGP      0.079700
     58 H8G         3.1220   -7.7420    1.4470 h5        1 CGP      0.049100
     59 H1G         4.2240   -2.8240    5.5740 hn        1 CGP      0.332500
     60 HN1G        6.8210   -2.0290    3.2810 hn        1 CGP      0.420300
     61 HN2G        5.6630   -1.3230    4.1900 hn        1 CGP      0.420300
     62 H4B         0.3380   -2.3390    0.8730 h1        1 CGP      0.077700
@<TRIPOS>BOND
     1    1    2 1   
     2    1    3 1   
     3    1    9 1   
     4    1   20 1   
     5    4    5 1   
     6    4   39 1   
     7    5    6 1   
     8    5   40 1   
     9    5   41 1   
    10    6    7 1   
    11    6    8 1   
    12    6   62 1   
    13    7   11 1   
    14    8    9 1   
    15    8   10 1   
    16    8   42 1   
    17   10   11 1   
    18   10   43 1   
    19   10   44 1   
    20   11   12 1   
    21   11   45 1   
    22   12   13 1   
    23   12   17 1   
    24   13   14 1   
    25   13   18 2   
    26   14   15 2   
    27   15   16 1   
    28   15   19 1   
    29   16   17 2   
    30   16   46 1   
    31   17   47 1   
    32   19   48 1   
    33   19   49 1   
    34   20   21 1   
    35   21   22 1   
    36   21   50 1   
    37   21   51 1   
    38   22   23 1   
    39   22   24 1   
    40   22   52 1   
    41   23   27 1   
    42   24   25 1   
    43   24   26 1   
    44   24   53 1   
    45   25   54 1   
    46   26   27 1   
    47   26   55 1   
    48   26   56 1   
    49   27   28 1   
    50   27   57 1   
    51   28   29 1   
    52   28   38 1   
    53   29   30 2   
    54   29   58 1   
    55   30   31 1   
    56   31   32 1   
    57   31   38 2   
    58   32   33 2   
    59   32   34 1   
    60   34   35 1   
    61   34   59 1   
    62   35   36 1   
    63   35   37 2   
    64   36   60 1   
    65   36   61 1   
    66   37   38 1   
@<TRIPOS>SUBSTRUCTURE
     1 CGP         1 TEMP              0 ****  ****    0 ROOT
