@<TRIPOS>MOLECULE
CGP
   64    68     1     0     0
SMALL
bcc


@<TRIPOS>ATOM
      1 P          -0.1790    0.0640    0.8070 p5        1 CGP      1.625500
      2 O1P         1.2130    0.7990    0.9110 oh        1 CGP     -0.727400
      3 O2P        -1.1140   -0.0230    1.9150 o         1 CGP     -0.793300
      4 O5B        -3.5050   -2.6850   -0.9020 oh        1 CGP     -0.619800
      5 C5X        -2.8070   -2.9920    0.2920 c3        1 CGP      0.118400
      6 C4X        -1.3350   -3.2250   -0.0420 c3        1 CGP      0.058100
      7 O4B        -1.0700   -4.6370    0.0670 os        1 CGP     -0.412600
      8 C3X        -0.3350   -2.5220    0.9090 c3        1 CGP      0.157100
      9 O3B         0.2190   -1.4030    0.2610 os        1 CGP     -0.579200
     10 C2X         0.7550   -3.5700    1.1710 c3        1 CGP     -0.122400
     11 C1X         0.3030   -4.8350    0.4070 c3        1 CGP      0.301500
     12 N1C         1.0850   -5.1120   -0.8180 n         1 CGP     -0.367000
     13 CC2         2.5120   -5.2850   -0.6980 c         1 CGP      0.827900
     14 N3C         3.2940   -5.4040   -1.8790 nc        1 CGP     -0.644100
     15 CC4         2.6580   -5.3980   -3.0400 cd        1 CGP      0.613500
     16 CC5         1.2390   -5.3240   -3.2070 cd        1 CGP     -0.399600
     17 CC6         0.4980   -5.1520   -2.0470 cc        1 CGP      0.125600
     18 O2C         3.0280   -5.3290    0.4280 o         1 CGP     -0.544500
     19 N4C         3.4690   -5.4320   -4.2820 nz        1 CGP     -0.795600
     20 O5D        -0.7350    0.7690   -0.5200 os        1 CGP     -0.566200
     21 C5D        -2.0140    0.3220   -0.9100 c3        1 CGP      0.143400
     22 C4D        -2.5270    1.1610   -2.0740 c3        1 CGP      0.099100
     23 O4D        -1.6350    1.0920   -3.1900 os        1 CGP     -0.390600
     24 C3D        -3.9140    0.6550   -2.5330 c3        1 CGP      0.116100
     25 O3D        -4.8630    1.7030   -2.5490 oh        1 CGP     -0.578800
     26 C2D        -3.7250    0.1950   -3.9820 c3        1 CGP     -0.114400
     27 C1D        -2.2280    0.3930   -4.2940 c3        1 CGP      0.241800
     28 N9G        -1.5030   -0.8410   -4.5470 na        1 CGP     -0.212900
     29 C8G        -1.4660   -2.0040   -3.7330 cc        1 CGP      0.418400
     30 N7G        -0.5180   -2.8830   -4.0960 nd        1 CGP     -0.642000
     31 C5G         0.1320   -2.2860   -5.1850 cd        1 CGP      0.140800
     32 C6G         1.2380   -2.7310   -5.9890 c         1 CGP      0.687000
     33 O6G         1.9210   -3.7770   -5.8490 o         1 CGP     -0.764500
     34 N1G         1.5900   -1.8690   -7.0460 ns        1 CGP     -0.496400
     35 C2G         0.9440   -0.6250   -7.2590 cd        1 CGP      0.714800
     36 N2G         1.4480    0.1990   -8.2640 nv        1 CGP     -0.906800
     37 N3G        -0.0910   -0.1680   -6.5050 nc        1 CGP     -0.659100
     38 C4G        -0.4670   -1.0000   -5.4750 cc        1 CGP      0.166800
     39 HO5C       -3.8060   -3.5180   -1.2860 ho        1 CGP      0.415000
     40 H51C       -3.2430   -3.8860    0.8090 h1        1 CGP      0.085200
     41 H52C       -2.9270   -2.0830    0.9440 h1        1 CGP      0.085200
     42 H3B        -0.8360   -2.2040    1.8690 h1        1 CGP      0.111700
     43 H21C        0.8120   -3.8160    2.2620 hc        1 CGP      0.101700
     44 H22C        1.7600   -3.1980    0.8480 hc        1 CGP      0.101700
     45 H1B         0.3420   -5.7690    1.0420 h2        1 CGP      0.125700
     46 H5C         0.7560   -5.3110   -4.1950 ha        1 CGP      0.206000
     47 H6C        -0.6060   -5.0380   -2.0990 h4        1 CGP      0.207000
     48 H41C        2.9740   -6.0010   -4.9790 hn        1 CGP      0.480800
     49 H42C        4.4120   -5.7980   -4.1170 hn        1 CGP      0.480800
     50 H51G       -2.7100    0.4280   -0.0300 h1        1 CGP      0.053200
     51 H52G       -1.9280   -0.7640   -1.1960 h1        1 CGP      0.053200
     52 H4D        -2.5490    2.2500   -1.7870 h1        1 CGP      0.106700
     53 H3D        -4.2720   -0.1890   -1.8810 h1        1 CGP      0.066700
     54 HO3G       -5.0770    1.9110   -1.6300 ho        1 CGP      0.417000
     55 H21G       -4.3310    0.8400   -4.6710 hc        1 CGP      0.092200
     56 H22G       -4.0630   -0.8610   -4.1090 hc        1 CGP      0.092200
     57 H1D        -2.0690    1.0670   -5.1910 h2        1 CGP      0.125700
     58 H8G        -2.1870   -2.1400   -2.9130 h5        1 CGP      0.079100
     59 H1G         2.3520   -2.1430   -7.6290 hn        1 CGP      0.339500
     60 HN1G        0.9420    1.0350   -8.4600 hn        1 CGP      0.450300
     61 HN2G        1.9350   -0.2160   -9.0230 hn        1 CGP      0.450300
     62 H4C3        3.5190   -4.4650   -4.6470 hn        1 CGP      0.480800
     63 H2G3        1.5300    1.2480    0.1260 ho        1 CGP      0.501000
     64 H4B        -1.1260   -2.9170   -1.1070 h1        1 CGP      0.074700
@<TRIPOS>BOND
     1    1    2 1   
     2    1    3 2   
     3    1    9 1   
     4    1   20 1   
     5    2   63 1   
     6    4    5 1   
     7    4   39 1   
     8    5    6 1   
     9    5   40 1   
    10    5   41 1   
    11    6    7 1   
    12    6    8 1   
    13    6   64 1   
    14    7   11 1   
    15    8    9 1   
    16    8   10 1   
    17    8   42 1   
    18   10   11 1   
    19   10   43 1   
    20   10   44 1   
    21   11   12 1   
    22   11   45 1   
    23   12   13 1   
    24   12   17 1   
    25   13   14 1   
    26   13   18 2   
    27   14   15 2   
    28   15   16 1   
    29   15   19 1   
    30   16   17 2   
    31   16   46 1   
    32   17   47 1   
    33   19   48 1   
    34   19   49 1   
    35   19   62 1   
    36   20   21 1   
    37   21   22 1   
    38   21   50 1   
    39   21   51 1   
    40   22   23 1   
    41   22   24 1   
    42   22   52 1   
    43   23   27 1   
    44   24   25 1   
    45   24   26 1   
    46   24   53 1   
    47   25   54 1   
    48   26   27 1   
    49   26   55 1   
    50   26   56 1   
    51   27   28 1   
    52   27   57 1   
    53   28   29 1   
    54   28   38 1   
    55   29   30 2   
    56   29   58 1   
    57   30   31 1   
    58   31   32 1   
    59   31   38 2   
    60   32   33 2   
    61   32   34 1   
    62   34   35 1   
    63   34   59 1   
    64   35   36 1   
    65   35   37 2   
    66   36   60 1   
    67   36   61 1   
    68   37   38 1   
@<TRIPOS>SUBSTRUCTURE
     1 CGP         1 TEMP              0 ****  ****    0 ROOT
