@<TRIPOS>MOLECULE
CGP
   64    68     1     0     0
SMALL
bcc


@<TRIPOS>ATOM
      1 P          -0.1320    0.1530    0.7440 p5        1 CGP      1.625500
      2 O1P         1.2660    0.8830    0.8110 oh        1 CGP     -0.727400
      3 O2P        -1.0540    0.1020    1.8640 o         1 CGP     -0.793300
      4 O5B        -3.4910   -2.6240   -0.8520 oh        1 CGP     -0.619800
      5 C5X        -2.7810   -2.9020    0.3430 c3        1 CGP      0.118400
      6 C4X        -1.3130   -3.1530   -0.0020 c3        1 CGP      0.058100
      7 O4B        -1.0550   -4.5620    0.1430 os        1 CGP     -0.412600
      8 C3X        -0.3000   -2.4290    0.9180 c3        1 CGP      0.157100
      9 O3B         0.2530   -1.3310    0.2340 os        1 CGP     -0.579200
     10 C2X         0.7890   -3.4750    1.1970 c3        1 CGP     -0.122400
     11 C1X         0.3210   -4.7580    0.4730 c3        1 CGP      0.301500
     12 N1C         1.0870   -5.0730   -0.7530 n         1 CGP     -0.367000
     13 CC2         2.5150   -5.2510   -0.6450 c         1 CGP      0.827900
     14 N3C         3.2830   -5.4060   -1.8310 nc        1 CGP     -0.644100
     15 CC4         2.6320   -5.4280   -2.9840 cd        1 CGP      0.613500
     16 CC5         1.2120   -5.3510   -3.1370 cd        1 CGP     -0.399600
     17 CC6         0.4860   -5.1440   -1.9740 cc        1 CGP      0.125600
     18 O2C         3.0440   -5.2660    0.4760 o         1 CGP     -0.544500
     19 N4C         3.4290   -5.5010   -4.2330 n4        1 CGP     -0.795600
     20 O5D        -0.6990    0.8240   -0.5960 os        1 CGP     -0.566200
     21 C5D        -1.9850    0.3730   -0.9600 c3        1 CGP      0.143400
     22 C4D        -2.5070    1.1830   -2.1400 c3        1 CGP      0.099100
     23 O4D        -1.6280    1.0780   -3.2640 os        1 CGP     -0.390600
     24 C3D        -3.9020    0.6710   -2.5690 c3        1 CGP      0.116100
     25 O3D        -4.8450    1.7240   -2.6020 oh        1 CGP     -0.578800
     26 C2D        -3.7320    0.1710   -4.0070 c3        1 CGP     -0.114400
     27 C1D        -2.2370    0.3530   -4.3410 c3        1 CGP      0.241800
     28 N9G        -1.5220   -0.8920   -4.5680 na        1 CGP     -0.212900
     29 C8G        -1.4820   -2.0330   -3.7240 cc        1 CGP      0.418400
     30 N7G        -0.5420   -2.9260   -4.0720 nd        1 CGP     -0.642000
     31 C5G         0.0980   -2.3630   -5.1850 cd        1 CGP      0.140800
     32 C6G         1.1920   -2.8360   -5.9890 c         1 CGP      0.687000
     33 O6G         1.8710   -3.8820   -5.8290 o         1 CGP     -0.764500
     34 N1G         1.5370   -2.0060   -7.0740 n         1 CGP     -0.496400
     35 C2G         0.8950   -0.7650   -7.3140 cd        1 CGP      0.714800
     36 N2G         1.3910    0.0290   -8.3470 nh        1 CGP     -0.906800
     37 N3G        -0.1290   -0.2810   -6.5600 nc        1 CGP     -0.659100
     38 C4G        -0.4980   -1.0830   -5.5040 cc        1 CGP      0.166800
     39 HO5C       -3.8010   -3.4650   -1.2090 ho        1 CGP      0.415000
     40 H51C       -2.8890   -1.9750    0.9710 h1        1 CGP      0.085200
     41 H52C       -3.2150   -3.7790    0.8890 h1        1 CGP      0.085200
     42 H3B        -0.7870   -2.0820    1.8750 h1        1 CGP      0.111700
     43 H21C        0.8570   -3.6910    2.2930 hc        1 CGP      0.101700
     44 H22C        1.7910   -3.1180    0.8520 hc        1 CGP      0.101700
     45 H1B         0.3620   -5.6750    1.1320 h2        1 CGP      0.125700
     46 H5C         0.7180   -5.3640   -4.1190 ha        1 CGP      0.206000
     47 H6C        -0.6190   -5.0260   -2.0160 h4        1 CGP      0.207000
     48 H41C        4.3720   -5.8680   -4.0690 hn        1 CGP      0.480800
     49 H42C        2.9230   -6.0870   -4.9090 hn        1 CGP      0.480800
     50 H51G       -2.6700    0.5070   -0.0750 h1        1 CGP      0.053200
     51 H52G       -1.9080   -0.7210   -1.2160 h1        1 CGP      0.053200
     52 H4D        -2.5200    2.2790   -1.8830 h1        1 CGP      0.106700
     53 H3D        -4.2570   -0.1520   -1.8900 h1        1 CGP      0.066700
     54 HO3G       -5.0470    1.9580   -1.6870 ho        1 CGP      0.417000
     55 H21G       -4.0760   -0.8860   -4.1010 hc        1 CGP      0.092200
     56 H22G       -4.3430    0.8000   -4.7060 hc        1 CGP      0.092200
     57 H1D        -2.0850    1.0000   -5.2580 h2        1 CGP      0.125700
     58 H8G        -2.1940   -2.1420   -2.8910 h5        1 CGP      0.079100
     59 H1G         2.2900   -2.3000   -7.6580 hn        1 CGP      0.339500
     60 HN1G        1.5760    1.3080    0.0110 ho        1 CGP      0.501000
     61 HN2G        0.8870    0.8620   -8.5590 hn        1 CGP      0.450300
     62 H4C3        3.4800   -4.5450   -4.6270 hn        1 CGP      0.480800
     63 H2G3        1.8670   -0.4100   -9.0990 hn        1 CGP      0.450300
     64 H4B        -1.1160   -2.8740   -1.0770 h1        1 CGP      0.074700
@<TRIPOS>BOND
     1    1    2 1   
     2    1    3 2   
     3    1    9 1   
     4    1   20 1   
     5    2   60 1   
     6    4    5 1   
     7    4   39 1   
     8    5    6 1   
     9    5   40 1   
    10    5   41 1   
    11    6    7 1   
    12    6    8 1   
    13    6   64 1   
    14    7   11 1   
    15    8    9 1   
    16    8   10 1   
    17    8   42 1   
    18   10   11 1   
    19   10   43 1   
    20   10   44 1   
    21   11   12 1   
    22   11   45 1   
    23   12   13 1   
    24   12   17 1   
    25   13   14 1   
    26   13   18 2   
    27   14   15 2   
    28   15   16 1   
    29   15   19 1   
    30   16   17 2   
    31   16   46 1   
    32   17   47 1   
    33   19   48 1   
    34   19   49 1   
    35   19   62 1   
    36   20   21 1   
    37   21   22 1   
    38   21   50 1   
    39   21   51 1   
    40   22   23 1   
    41   22   24 1   
    42   22   52 1   
    43   23   27 1   
    44   24   25 1   
    45   24   26 1   
    46   24   53 1   
    47   25   54 1   
    48   26   27 1   
    49   26   55 1   
    50   26   56 1   
    51   27   28 1   
    52   27   57 1   
    53   28   29 1   
    54   28   38 1   
    55   29   30 2   
    56   29   58 1   
    57   30   31 1   
    58   31   32 1   
    59   31   38 2   
    60   32   33 2   
    61   32   34 1   
    62   34   35 1   
    63   34   59 1   
    64   35   36 1   
    65   35   37 2   
    66   36   61 1   
    67   36   63 1   
    68   37   38 1   
@<TRIPOS>SUBSTRUCTURE
     1 CGP         1 TEMP              0 ****  ****    0 ROOT
