@<TRIPOS>MOLECULE
CGP
   64    68     1     0     0
SMALL
bcc


@<TRIPOS>ATOM
      1 P          -0.4750   -0.0050    0.7640 p5        1 CGP      1.634500
      2 O1P         0.8050    0.8850    1.0070 oh        1 CGP     -0.734400
      3 O2P        -1.5830   -0.0680    1.6980 o         1 CGP     -0.788300
      4 O5B        -3.6280   -3.9740    0.7000 oh        1 CGP     -0.592800
      5 C5X        -2.6010   -3.4530    1.5120 c3        1 CGP      0.124400
      6 C4X        -1.2810   -3.4380    0.7380 c3        1 CGP      0.060100
      7 O4B        -0.7490   -4.7720    0.7470 os        1 CGP     -0.404600
      8 C3X        -0.2140   -2.5150    1.3790 c3        1 CGP      0.156100
      9 O3B         0.1340   -1.4770    0.4890 os        1 CGP     -0.600200
     10 C2X         1.0080   -3.4190    1.6010 c3        1 CGP     -0.126400
     11 C1X         0.6770   -4.7310    0.8590 c3        1 CGP      0.285500
     12 N1C         1.2790   -4.8560   -0.4790 n         1 CGP     -0.366000
     13 CC2         1.4300   -6.1860   -1.0260 c         1 CGP      0.828900
     14 N3C         1.6580   -6.3390   -2.4260 nc        1 CGP     -0.631100
     15 CC4         1.7970   -5.2480   -3.1540 cd        1 CGP      0.624500
     16 CC5         1.7700   -3.9070   -2.6380 cd        1 CGP     -0.412600
     17 CC6         1.4500   -3.7750   -1.2990 cc        1 CGP      0.094600
     18 O2C         1.3750   -7.1700   -0.2780 o         1 CGP     -0.525500
     19 N4C         1.9630   -5.4030   -4.6170 n4        1 CGP     -0.798600
     20 O5D        -0.7990    0.4540   -0.7340 os        1 CGP     -0.579200
     21 C5D        -1.9220   -0.1320   -1.3550 c3        1 CGP      0.156400
     22 C4D        -2.4700    0.8300   -2.4080 c3        1 CGP      0.090100
     23 O4D        -1.5710    0.9160   -3.5170 os        1 CGP     -0.394600
     24 C3D        -3.8430    0.3570   -2.9380 c3        1 CGP      0.121100
     25 O3D        -4.7950    1.4000   -2.8840 oh        1 CGP     -0.576800
     26 C2D        -3.6210    0.0280   -4.4180 c3        1 CGP     -0.117400
     27 C1D        -2.1310    0.3140   -4.6950 c3        1 CGP      0.241800
     28 N9G        -1.3560   -0.8560   -5.0720 na        1 CGP     -0.218900
     29 C8G        -1.3290   -2.1240   -4.4310 cc        1 CGP      0.432400
     30 N7G        -0.3340   -2.9180   -4.8540 nd        1 CGP     -0.666000
     31 C5G         0.3610   -2.1510   -5.8000 cd        1 CGP      0.103800
     32 C6G         1.5230   -2.4630   -6.5860 c         1 CGP      0.674000
     33 O6G         2.2000   -3.5190   -6.5270 o         1 CGP     -0.740500
     34 N1G         1.9250   -1.4570   -7.4830 n         1 CGP     -0.492400
     35 C2G         1.2520   -0.2110   -7.5670 cd        1 CGP      0.735800
     36 N2G         1.7630    0.7400   -8.4340 nh        1 CGP     -0.918800
     37 N3G         0.1590    0.1220   -6.8170 nc        1 CGP     -0.668100
     38 C4G        -0.2590   -0.8540   -5.9460 cc        1 CGP      0.184800
     39 HO5C       -3.4890   -4.9280    0.6370 ho        1 CGP      0.415000
     40 H51C       -2.9140   -2.3980    1.7480 h1        1 CGP      0.081200
     41 H52C       -2.4890   -4.0440    2.4580 h1        1 CGP      0.081200
     42 H3B        -0.5900   -2.0700    2.3440 h1        1 CGP      0.104700
     43 H21C        1.1150   -3.6550    2.6910 hc        1 CGP      0.094700
     44 H22C        1.9510   -2.9320    1.2560 hc        1 CGP      0.094700
     45 H1B         0.9620   -5.6600    1.4410 h2        1 CGP      0.147700
     46 H5C         1.9420   -3.0280   -3.2700 ha        1 CGP      0.189000
     47 H6C         1.3210   -2.7650   -0.8480 h4        1 CGP      0.212000
     48 H41C        2.8500   -4.9650   -4.9080 hn        1 CGP      0.486800
     49 H42C        1.2030   -4.8880   -5.0990 hn        1 CGP      0.486800
     50 H51G       -1.5950   -1.0930   -1.8420 h1        1 CGP      0.051700
     51 H52G       -2.7050   -0.3340   -0.5710 h1        1 CGP      0.051700
     52 H4D        -2.5200    1.8750   -1.9910 h1        1 CGP      0.109700
     53 H3D        -4.2140   -0.5380   -2.3690 h1        1 CGP      0.057700
     54 HO3G       -5.0480    1.5130   -1.9580 ho        1 CGP      0.419000
     55 H21G       -4.2480    0.7030   -5.0580 hc        1 CGP      0.094700
     56 H22G       -3.9140   -1.0260   -4.6380 hc        1 CGP      0.094700
     57 H1D        -1.9930    1.0840   -5.5140 h2        1 CGP      0.128700
     58 H8G        -2.0940   -2.4020   -3.6950 h5        1 CGP      0.071100
     59 H1G         2.7270   -1.6400   -8.0490 hn        1 CGP      0.348500
     60 HN1G        1.2650    1.5940   -8.5470 hn        1 CGP      0.462800
     61 HN2G        1.1640    1.3600    0.2560 ho        1 CGP      0.504000
     62 H4C3        1.9510   -6.3870   -4.9040 hn        1 CGP      0.486800
     63 H2G3        2.4310    0.4880   -9.1200 hn        1 CGP      0.462800
     64 H4B        -1.4650   -3.1560   -0.3350 h1        1 CGP      0.062700
@<TRIPOS>BOND
     1    1    2 1   
     2    1    3 2   
     3    1    9 1   
     4    1   20 1   
     5    2   61 1   
     6    4    5 1   
     7    4   39 1   
     8    5    6 1   
     9    5   40 1   
    10    5   41 1   
    11    6    7 1   
    12    6    8 1   
    13    6   64 1   
    14    7   11 1   
    15    8    9 1   
    16    8   10 1   
    17    8   42 1   
    18   10   11 1   
    19   10   43 1   
    20   10   44 1   
    21   11   12 1   
    22   11   45 1   
    23   12   13 1   
    24   12   17 1   
    25   13   14 1   
    26   13   18 2   
    27   14   15 2   
    28   15   16 1   
    29   15   19 1   
    30   16   17 2   
    31   16   46 1   
    32   17   47 1   
    33   19   48 1   
    34   19   49 1   
    35   19   62 1   
    36   20   21 1   
    37   21   22 1   
    38   21   50 1   
    39   21   51 1   
    40   22   23 1   
    41   22   24 1   
    42   22   52 1   
    43   23   27 1   
    44   24   25 1   
    45   24   26 1   
    46   24   53 1   
    47   25   54 1   
    48   26   27 1   
    49   26   55 1   
    50   26   56 1   
    51   27   28 1   
    52   27   57 1   
    53   28   29 1   
    54   28   38 1   
    55   29   30 2   
    56   29   58 1   
    57   30   31 1   
    58   31   32 1   
    59   31   38 2   
    60   32   33 2   
    61   32   34 1   
    62   34   35 1   
    63   34   59 1   
    64   35   36 1   
    65   35   37 2   
    66   36   60 1   
    67   36   63 1   
    68   37   38 1   
@<TRIPOS>SUBSTRUCTURE
     1 CGP         1 TEMP              0 ****  ****    0 ROOT
