@<TRIPOS>MOLECULE
CGQ
   48    39     1     0     0
SMALL
bcc


@<TRIPOS>ATOM
      1 C1         -2.8060    2.0450   -3.2200 c1        1 CGQ     -0.160000
      2 C2         -1.9750    2.5520   -2.2290 c1        1 CGQ     -0.045000
      3 C3         -2.5220    3.0020   -1.0150 c1        1 CGQ     -0.117000
      4 C4         -3.9030    2.9390   -0.8070 c1        1 CGQ     -0.082500
      5 C5         -4.7340    2.4280   -1.8070 c1        1 CGQ     -0.082500
      6 C6         -4.1850    1.9820   -3.0140 c1        1 CGQ     -0.049000
      7 C7         -1.6170    3.6530    0.0310 c2        1 CGQ      0.009000
      8 N8         -0.9690    2.8980    0.9120 n1        1 CGQ     -0.109000
      9 C9         -2.2160    1.5860   -4.5540 c2        1 CGQ      0.332000
     10 N10        -2.0000    2.4660   -5.5220 n2        1 CGQ     -0.299000
     11 N11        -1.8920    0.1920   -4.7600 n3        1 CGQ     -0.299000
     12 N12        -1.1130    1.5190    0.8840 n2        1 CGQ     -0.226000
     13 C13        -1.1250    0.7770    2.1160 c2        1 CGQ      0.377000
     14 N15        -2.2650    0.8600    2.9980 n3        1 CGQ     -0.254000
     15 N19        -0.0920   -0.0130    2.4300 n2        1 CGQ     -0.226000
     16 N20        -0.1040   -0.7350    3.6280 n1        1 CGQ     -0.109000
     17 C21         0.9420   -1.4760    3.9680 c1        1 CGQ      0.009000
     18 C22         2.1450   -1.5420    3.0630 c1        1 CGQ     -0.117000
     19 C23         3.0900   -0.5110    3.0790 c2        1 CGQ     -0.054000
     20 C24         4.2570   -0.6270    2.3390 c1        1 CGQ     -0.111000
     21 C25         4.4860   -1.7640    1.5860 c1        1 CGQ     -0.049000
     22 C26         3.5400   -2.7960    1.5700 c1        1 CGQ     -0.160000
     23 C27         2.3760   -2.6790    2.3080 c1        1 CGQ     -0.045000
     24 C28         3.7910   -4.0270    0.7670 c2        1 CGQ      0.332000
     25 N29         4.4650   -5.0290    1.2920 n2        1 CGQ     -0.299000
     26 N30         3.2970   -4.1190   -0.5770 n3        1 CGQ     -0.299000
     27 H21        -1.0150    2.5950   -2.3760 ha        1 CGQ      0.163000
     28 H41        -4.2920    3.2550    0.0480 ha        1 CGQ      0.170500
     29 H51        -5.7170    2.3810   -1.6630 ha        1 CGQ      0.170500
     30 H61        -4.7730    1.6210   -3.7220 ha        1 CGQ      0.175000
     31 H71        -1.5160    4.6140    0.0520 h4        1 CGQ      0.205000
     32 H101       -2.2040    3.3410   -5.3920 DU        1 CGQ      0.288000
     33 H102       -1.6530    2.1990   -6.3110 hn        1 CGQ      0.285000
     34 H111       -1.2670   -0.0340   -5.4000 hn        1 CGQ      0.286500
     35 H112       -2.1830   -0.4280   -4.1950 hn        1 CGQ      0.286500
     36 H121       -1.0760    1.0780    0.0950 hn        1 CGQ      0.238000
     37 H151       -2.4930    0.1270    3.5410 hn        1 CGQ      0.300000
     38 H152       -2.7960    1.6220    3.0000 hn        1 CGQ      0.300000
     39 H191        0.6140   -0.1110    1.8360 hn        1 CGQ      0.238000
     40 H211        0.9320   -1.9780    4.8040 ha        1 CGQ      0.205000
     41 H231        2.9300    0.2840    3.6060 ha        1 CGQ      0.157000
     42 H241        4.9230    0.1000    2.3500 ha        1 CGQ      0.184000
     43 H251        5.3170   -1.8470    1.0590 ha        1 CGQ      0.175000
     44 H271        1.6980   -3.4200    2.2970 ha        1 CGQ      0.163000
     45 H291        4.7750   -4.9730    2.1340 DU        1 CGQ      0.288000
     46 H292        4.6150   -5.7620    0.8160 hn        1 CGQ      0.285000
     47 H301        3.8640   -4.4460   -1.2630 hn        1 CGQ      0.286500
     48 H302        2.4450   -3.7960   -0.7880 hn        1 CGQ      0.286500
@<TRIPOS>BOND
     1    1    6 1   
     2    1    9 1   
     3    2    3 1   
     4    2   27 1   
     5    3    7 1   
     6    4    5 1   
     7    4   28 1   
     8    5   29 1   
     9    6   30 1   
    10    7    8 1   
    11    7   31 1   
    12    9   10 1   
    13    9   11 1   
    14   10   33 1   
    15   11   34 1   
    16   11   35 1   
    17   12   13 1   
    18   12   36 1   
    19   13   14 1   
    20   13   15 1   
    21   14   37 1   
    22   14   38 1   
    23   15   39 1   
    24   16   17 1   
    25   17   40 1   
    26   18   19 1   
    27   18   23 1   
    28   19   20 1   
    29   19   41 1   
    30   20   42 1   
    31   21   22 1   
    32   21   43 1   
    33   22   24 1   
    34   23   44 1   
    35   24   25 1   
    36   24   26 1   
    37   25   46 1   
    38   26   47 1   
    39   26   48 1   
@<TRIPOS>SUBSTRUCTURE
     1 CGQ         1 TEMP              0 ****  ****    0 ROOT
