@<TRIPOS>MOLECULE
CGQ
   48    49     1     0     0
SMALL
bcc


@<TRIPOS>ATOM
      1 C1          7.2130   -0.0960    0.0530 ca        1 CGQ     -0.248900
      2 C2          5.9520   -0.6460   -0.1950 ca        1 CGQ     -0.053000
      3 C3          4.8060    0.0020    0.2950 ca        1 CGQ     -0.158900
      4 C4          4.9430    1.1810    1.0420 ca        1 CGQ     -0.030000
      5 C5          6.2090    1.7150    1.2900 ca        1 CGQ     -0.112000
      6 C6          7.3490    1.0870    0.7940 ca        1 CGQ     -0.049500
      7 C7          3.4980   -0.6030    0.0090 ce        1 CGQ      0.480800
      8 N8          2.3860    0.0710    0.1520 n2        1 CGQ     -0.548100
      9 C9          8.4420   -0.7670   -0.4700 ce        1 CGQ      0.511400
     10 N10         8.6730   -2.0510   -0.1220 nh        1 CGQ     -0.454850
     11 N11         9.2670   -0.0590   -1.2670 nh        1 CGQ     -0.438950
     12 N12         1.1960   -0.4970   -0.1540 nh        1 CGQ     -0.170500
     13 C13         0.0010    0.2250    0.0690 cz        1 CGQ      0.548300
     14 N15         0.0040    1.5650    0.2800 nh        1 CGQ     -0.416200
     15 N19        -1.2000   -0.5250    0.0650 nh        1 CGQ     -0.154600
     16 N20        -2.3850    0.1150   -0.0660 n2        1 CGQ     -0.548100
     17 C21        -3.5000   -0.5640   -0.1370 ce        1 CGQ      0.480800
     18 C22        -4.8030    0.1070   -0.2450 ca        1 CGQ     -0.158900
     19 C23        -4.9280    1.4490   -0.6360 ca        1 CGQ     -0.030000
     20 C24        -6.1910    2.0340   -0.7500 ca        1 CGQ     -0.112000
     21 C25        -7.3390    1.2920   -0.4820 ca        1 CGQ     -0.049500
     22 C26        -7.2140   -0.0480   -0.0870 ca        1 CGQ     -0.248900
     23 C27        -5.9560   -0.6450    0.0350 ca        1 CGQ     -0.053000
     24 C28        -8.4510   -0.8370    0.2000 ce        1 CGQ      0.511400
     25 N29        -9.3880   -0.9310   -0.7660 nh        1 CGQ     -0.454850
     26 N30        -8.5770   -1.4190    1.4110 nh        1 CGQ     -0.438950
     27 H21         5.8530   -1.5730   -0.7840 ha        1 CGQ      0.156000
     28 H41         4.0560    1.6980    1.4470 ha        1 CGQ      0.169000
     29 H51         6.3090    2.6410    1.8840 ha        1 CGQ      0.187000
     30 H61         8.3440    1.5160    1.0010 ha        1 CGQ      0.173000
     31 H71         3.5500   -1.6620   -0.3390 h4        1 CGQ      0.023300
     32 H101        9.4800   -2.5590   -0.4210 hn        1 CGQ      0.334825
     33 H102        8.0500   -2.5020    0.5150 hn        1 CGQ      0.334825
     34 H111        9.0270    0.8820   -1.5060 hn        1 CGQ      0.334825
     35 H112       10.1210   -0.4280   -1.6350 hn        1 CGQ      0.334825
     36 H121        1.1240   -1.5020   -0.2140 hn        1 CGQ      0.303200
     37 H151       -0.8510    2.0760    0.3730 hn        1 CGQ      0.346700
     38 H152        0.8610    2.0760    0.3460 hn        1 CGQ      0.346700
     39 H191       -1.1310   -1.5000   -0.1900 hn        1 CGQ      0.303200
     40 H211       -3.5600   -1.6780   -0.1210 h4        1 CGQ      0.023300
     41 H231       -4.0350    2.0550   -0.8640 ha        1 CGQ      0.169000
     42 H241       -6.2820    3.0910   -1.0570 ha        1 CGQ      0.187000
     43 H251       -8.3310    1.7680   -0.5700 ha        1 CGQ      0.173000
     44 H271       -5.8660   -1.7020    0.3370 ha        1 CGQ      0.156000
     45 H291      -10.2520   -1.4180   -0.6420 hn        1 CGQ      0.334825
     46 H292       -9.2220   -0.4950   -1.6510 hn        1 CGQ      0.334825
     47 H301       -7.8700   -1.2680    2.1000 hn        1 CGQ      0.334825
     48 H302       -9.3820   -1.9490    1.6790 hn        1 CGQ      0.334825
@<TRIPOS>BOND
     1    1    2 ar  
     2    1    6 ar  
     3    1    9 1   
     4    2    3 ar  
     5    2   27 1   
     6    3    4 ar  
     7    3    7 1   
     8    4    5 ar  
     9    4   28 1   
    10    5    6 ar  
    11    5   29 1   
    12    6   30 1   
    13    7    8 2   
    14    7   31 1   
    15    8   12 1   
    16    9   10 2   
    17    9   11 1   
    18   10   32 1   
    19   10   33 1   
    20   11   34 1   
    21   11   35 1   
    22   12   13 2   
    23   12   36 1   
    24   13   14 1   
    25   13   15 1   
    26   14   37 1   
    27   14   38 1   
    28   15   16 1   
    29   15   39 1   
    30   16   17 2   
    31   17   18 1   
    32   17   40 1   
    33   18   19 ar  
    34   18   23 ar  
    35   19   20 ar  
    36   19   41 1   
    37   20   21 ar  
    38   20   42 1   
    39   21   22 ar  
    40   21   43 1   
    41   22   23 ar  
    42   22   24 1   
    43   23   44 1   
    44   24   25 2   
    45   24   26 1   
    46   25   45 1   
    47   25   46 1   
    48   26   47 1   
    49   26   48 1   
@<TRIPOS>SUBSTRUCTURE
     1 CGQ         1 TEMP              0 ****  ****    0 ROOT
