@<TRIPOS>MOLECULE
CGQ
   48    49     1     0     0
SMALL
bcc


@<TRIPOS>ATOM
      1 C1         -0.0210   -0.0610   -0.0190 ca        1 CGQ     -0.248900
      2 C2          1.3680    0.0470    0.1020 ca        1 CGQ     -0.053000
      3 C3          1.9780   -0.2240    1.3380 ca        1 CGQ     -0.158900
      4 C4          1.1860   -0.5920    2.4360 ca        1 CGQ     -0.030000
      5 C5         -0.2000   -0.6930    2.3030 ca        1 CGQ     -0.112000
      6 C6         -0.8110   -0.4330    1.0780 ca        1 CGQ     -0.049500
      7 C7          3.4420   -0.1300    1.4180 ce        1 CGQ      0.480800
      8 N8          4.0610   -0.0530    2.5680 n2        1 CGQ     -0.548100
      9 C9         -0.6850    0.2170   -1.3290 ce        1 CGQ      0.511400
     10 N10        -0.4850    1.4190   -1.9100 nh        1 CGQ     -0.454850
     11 N11        -1.4550   -0.7470   -1.8730 nh        1 CGQ     -0.438950
     12 N12         5.4080    0.0640    2.6150 nh        1 CGQ     -0.170500
     13 C13         6.0630    0.0750    3.8690 cz        1 CGQ      0.548300
     14 N15         5.3900    0.3060    5.0240 nh        1 CGQ     -0.416200
     15 N19         7.4580   -0.1630    3.8550 nh        1 CGQ     -0.154600
     16 N20         8.2000    0.1470    4.9430 n2        1 CGQ     -0.548100
     17 C21         9.4980   -0.0110    4.9270 ce        1 CGQ      0.480800
     18 C22        10.3220    0.2800    6.1080 ca        1 CGQ     -0.158900
     19 C23         9.8510    1.0440    7.1860 ca        1 CGQ     -0.030000
     20 C24        10.6750    1.2950    8.2850 ca        1 CGQ     -0.112000
     21 C25        11.9710    0.7860    8.3250 ca        1 CGQ     -0.049500
     22 C26        12.4450    0.0280    7.2450 ca        1 CGQ     -0.248900
     23 C27        11.6330   -0.2230    6.1350 ca        1 CGQ     -0.053000
     24 C28        13.8390   -0.5090    7.2940 ce        1 CGQ      0.511400
     25 N29        14.1840   -1.2980    8.3320 nh        1 CGQ     -0.454850
     26 N30        14.6920   -0.1800    6.3000 nh        1 CGQ     -0.438950
     27 H21         1.9840    0.3320   -0.7670 ha        1 CGQ      0.156000
     28 H41         1.6470   -0.8130    3.4140 ha        1 CGQ      0.169000
     29 H51        -0.8170   -0.9820    3.1720 ha        1 CGQ      0.187000
     30 H61        -1.9090   -0.5100    0.9870 ha        1 CGQ      0.173000
     31 H71         3.9550   -0.1320    0.4270 h4        1 CGQ      0.023300
     32 H101        0.0550    2.1080   -1.4300 hn        1 CGQ      0.334825
     33 H102       -0.9080    1.6810   -2.7780 hn        1 CGQ      0.334825
     34 H111       -1.5430   -1.6260   -1.4020 hn        1 CGQ      0.334825
     35 H112       -1.9530   -0.6290   -2.7320 hn        1 CGQ      0.334825
     36 H121        5.9590   -0.2060    1.8110 hn        1 CGQ      0.303200
     37 H151        5.8710    0.3770    5.8980 hn        1 CGQ      0.346700
     38 H152        4.3950    0.4100    5.0300 hn        1 CGQ      0.346700
     39 H191        7.9040   -0.2380    2.9510 hn        1 CGQ      0.303200
     40 H211       10.0750   -0.3740    4.0440 h4        1 CGQ      0.023300
     41 H231        8.8290    1.4600    7.1780 ha        1 CGQ      0.169000
     42 H241       10.2990    1.9020    9.1280 ha        1 CGQ      0.187000
     43 H251       12.6140    0.9960    9.1970 ha        1 CGQ      0.173000
     44 H271       12.0110   -0.8260    5.2920 ha        1 CGQ      0.156000
     45 H291       13.4970   -1.5230    9.0230 hn        1 CGQ      0.334825
     46 H292       15.1030   -1.6750    8.4500 hn        1 CGQ      0.334825
     47 H301       15.6420   -0.4900    6.2740 hn        1 CGQ      0.334825
     48 H302       14.3890    0.4520    5.5880 hn        1 CGQ      0.334825
@<TRIPOS>BOND
     1    1    2 ar  
     2    1    6 ar  
     3    1    9 1   
     4    2    3 ar  
     5    2   27 1   
     6    3    4 ar  
     7    3    7 1   
     8    4    5 ar  
     9    4   28 1   
    10    5    6 ar  
    11    5   29 1   
    12    6   30 1   
    13    7    8 2   
    14    7   31 1   
    15    8   12 1   
    16    9   10 2   
    17    9   11 1   
    18   10   32 1   
    19   10   33 1   
    20   11   34 1   
    21   11   35 1   
    22   12   13 2   
    23   12   36 1   
    24   13   14 1   
    25   13   15 1   
    26   14   37 1   
    27   14   38 1   
    28   15   16 1   
    29   15   39 1   
    30   16   17 2   
    31   17   18 1   
    32   17   40 1   
    33   18   19 ar  
    34   18   23 ar  
    35   19   20 ar  
    36   19   41 1   
    37   20   21 ar  
    38   20   42 1   
    39   21   22 ar  
    40   21   43 1   
    41   22   23 ar  
    42   22   24 1   
    43   23   44 1   
    44   24   25 2   
    45   24   26 1   
    46   25   45 1   
    47   25   46 1   
    48   26   47 1   
    49   26   48 1   
@<TRIPOS>SUBSTRUCTURE
     1 CGQ         1 TEMP              0 ****  ****    0 ROOT
