@<TRIPOS>MOLECULE
CGS
   50    51     1     0     0
SMALL
bcc


@<TRIPOS>ATOM
      1 N1          0.0150    0.0350   -0.1510 n3        1 CGS     -0.799500
      2 CC         -0.7480   -1.0500    0.4160 c3        1 CGS      0.273100
      3 CA          1.4550   -0.0270   -0.0970 c3        1 CGS      0.177500
      4 S4         -0.7450    1.3130   -0.8580 sy        1 CGS      1.509200
      5 C5         -0.9120   -2.2740   -0.4340 ca        1 CGS     -0.235600
      6 CD         -0.2540   -3.4650   -0.1060 ca        1 CGS     -0.077000
      7 CE         -0.4860   -4.5990   -0.8840 ca        1 CGS     -0.253300
      8 CZ         -1.3690   -4.4960   -1.9740 ca        1 CGS      0.399200
      9 N11        -2.0070   -3.3570   -2.3090 nb        1 CGS     -0.665000
     10 CY         -1.7780   -2.2710   -1.5490 ca        1 CGS      0.406200
     11 C17        -0.9430    2.3690    0.4330 ca        1 CGS     -0.436500
     12 CE2         0.0380    3.3290    0.7320 ca        1 CGS      0.010500
     13 CD2        -0.1220    4.2270    1.7730 ca        1 CGS     -0.208000
     14 C20        -1.3030    4.1770    2.5450 ca        1 CGS      0.195100
     15 CD1        -2.3010    3.2340    2.2590 ca        1 CGS     -0.208000
     16 CE1        -2.1090    2.3450    1.2080 ca        1 CGS      0.010500
     17 O27        -1.3730    5.1030    3.5550 os        1 CGS     -0.315900
     18 COM        -2.5550    5.0920    4.3540 c3        1 CGS      0.108700
     19 O32        -2.0180    0.9080   -1.3130 o         1 CGS     -0.648800
     20 O33         0.1170    1.9140   -1.8000 o         1 CGS     -0.648800
     21 C34         1.9230   -0.2570    1.3610 c         1 CGS      0.582100
     22 N35         2.1930    0.9190    2.1250 n         1 CGS     -0.356400
     23 CB          2.1270   -1.0840   -1.0040 c3        1 CGS     -0.068700
     24 CG2         1.6300   -0.9690   -2.4290 c3        1 CGS     -0.100600
     25 CG1         3.6300   -0.8980   -0.9610 c3        1 CGS     -0.100600
     26 O47         2.1550   -1.3820    1.8250 o         1 CGS     -0.556100
     27 O48         2.2550    0.7280    3.4450 oh        1 CGS     -0.436100
     28 HC1        -1.7830   -0.6480    0.6430 h1        1 CGS      0.063200
     29 HC2        -0.2780   -1.3590    1.3970 h1        1 CGS      0.063200
     30 HA          1.8450    0.9820   -0.4500 h1        1 CGS      0.083700
     31 HD          0.4360   -3.5020    0.7520 ha        1 CGS      0.152000
     32 HE          0.0090   -5.5520   -0.6560 ha        1 CGS      0.144000
     33 HZ         -1.5800   -5.3700   -2.6160 h4        1 CGS      0.022100
     34 HY         -2.3170   -1.3460   -1.8410 h4        1 CGS      0.053100
     35 HE2         0.9470    3.3790    0.1040 ha        1 CGS      0.156000
     36 HD2         0.6450    4.9800    2.0060 ha        1 CGS      0.156500
     37 HD1        -3.2280    3.1940    2.8480 ha        1 CGS      0.156500
     38 HE1        -2.9010    1.6120    0.9660 ha        1 CGS      0.156000
     39 HOM1       -3.4530    5.3060    3.7260 h1        1 CGS      0.053367
     40 HOM2       -2.6620    4.1120    4.8790 h1        1 CGS      0.053367
     41 HOM3       -2.3760    5.9190    5.0870 h1        1 CGS      0.053367
     42 H49         1.5200    1.6600    1.9520 hn        1 CGS      0.301500
     43 HB          1.8720   -2.1050   -0.6000 hc        1 CGS      0.073700
     44 HG21        1.6480    0.0950   -2.7730 hc        1 CGS      0.044533
     45 HG22        2.2780   -1.5740   -3.1090 hc        1 CGS      0.044533
     46 HG23        0.5830   -1.3540   -2.5130 hc        1 CGS      0.044533
     47 HG11        4.0080   -0.9740    0.0880 hc        1 CGS      0.044533
     48 HG12        3.9190    0.0970   -1.3780 hc        1 CGS      0.044533
     49 HG13        4.1250   -1.6920   -1.5710 hc        1 CGS      0.044533
     50 H50         3.1130    0.2880    3.6100 ho        1 CGS      0.434000
@<TRIPOS>BOND
     1    1    2 1   
     2    1    3 1   
     3    1    4 1   
     4    2    5 1   
     5    2   28 1   
     6    2   29 1   
     7    3   21 1   
     8    3   23 1   
     9    3   30 1   
    10    4   11 1   
    11    4   19 2   
    12    4   20 2   
    13    5    6 ar  
    14    5   10 ar  
    15    6    7 ar  
    16    6   31 1   
    17    7    8 ar  
    18    7   32 1   
    19    8    9 ar  
    20    8   33 1   
    21    9   10 ar  
    22   10   34 1   
    23   11   12 ar  
    24   11   16 ar  
    25   12   13 ar  
    26   12   35 1   
    27   13   14 ar  
    28   13   36 1   
    29   14   15 ar  
    30   14   17 1   
    31   15   16 ar  
    32   15   37 1   
    33   16   38 1   
    34   17   18 1   
    35   18   39 1   
    36   18   40 1   
    37   18   41 1   
    38   21   22 1   
    39   21   26 2   
    40   22   27 1   
    41   22   42 1   
    42   23   24 1   
    43   23   25 1   
    44   23   43 1   
    45   24   44 1   
    46   24   45 1   
    47   24   46 1   
    48   25   47 1   
    49   25   48 1   
    50   25   49 1   
    51   27   50 1   
@<TRIPOS>SUBSTRUCTURE
     1 CGS         1 TEMP              0 ****  ****    0 ROOT
