@<TRIPOS>MOLECULE
CGS
   50    51     1     0     0
SMALL
bcc


@<TRIPOS>ATOM
      1 N1         -0.2000   -0.5040   -0.5990 n3        1 CGS     -0.786500
      2 CC          0.3040    0.8120   -0.9060 c3        1 CGS      0.267100
      3 CA         -1.4880   -0.8910   -1.1170 c3        1 CGS      0.175500
      4 S4          0.6470   -1.5080    0.4000 sy        1 CGS      1.511200
      5 C5          0.9850    0.9950   -2.2290 ca        1 CGS     -0.230600
      6 CD          0.5010    1.9420   -3.1400 ca        1 CGS     -0.083000
      7 CE          1.1920    2.1490   -4.3340 ca        1 CGS     -0.253300
      8 CZ          2.3510    1.3910   -4.5780 ca        1 CGS      0.396200
      9 N11         2.8310    0.4710   -3.7170 nb        1 CGS     -0.664000
     10 CY          2.1560    0.2820   -2.5680 ca        1 CGS      0.402200
     11 C17         0.6270   -0.7010    1.8670 ca        1 CGS     -0.437500
     12 CE2        -0.4690   -0.8200    2.7380 ca        1 CGS      0.023500
     13 CD2        -0.4840   -0.1940    3.9730 ca        1 CGS     -0.211500
     14 C20         0.6310    0.5770    4.3630 ca        1 CGS      0.195100
     15 CD1         1.7410    0.7050    3.5140 ca        1 CGS     -0.211500
     16 CE1         1.7240    0.0650    2.2810 ca        1 CGS      0.023500
     17 O27         0.5260    1.1630    5.6000 os        1 CGS     -0.317900
     18 COM         1.6420    1.9350    6.0380 c3        1 CGS      0.109700
     19 O32         1.9850   -1.5930   -0.0410 o         1 CGS     -0.653800
     20 O33        -0.0530   -2.7290    0.5250 o         1 CGS     -0.653800
     21 C34        -2.6170   -0.0150   -0.5220 c         1 CGS      0.575100
     22 N35        -3.4210   -0.6180    0.4920 n         1 CGS     -0.357400
     23 CB         -1.6380   -0.8570   -2.6570 c3        1 CGS     -0.070700
     24 CG2        -0.6720   -1.8240   -3.3080 c3        1 CGS     -0.101100
     25 CG1        -3.0610   -1.2120   -3.0390 c3        1 CGS     -0.101100
     26 O47        -2.7540    1.1880   -0.7940 o         1 CGS     -0.563100
     27 O48        -4.5810   -0.0010    0.7330 oh        1 CGS     -0.436100
     28 HC1        -0.5440    1.5580   -0.8340 h1        1 CGS      0.067200
     29 HC2         1.0560    1.0760   -0.0990 h1        1 CGS      0.067200
     30 HA         -1.6590   -1.9740   -0.8100 h1        1 CGS      0.094700
     31 HD         -0.4130    2.5140   -2.9170 ha        1 CGS      0.146000
     32 HE          0.8430    2.8850   -5.0700 ha        1 CGS      0.143000
     33 HZ          2.9300    1.5230   -5.5100 h4        1 CGS      0.021100
     34 HY          2.5780   -0.4800   -1.8800 h4        1 CGS      0.059100
     35 HE2        -1.3340   -1.4370    2.4330 ha        1 CGS      0.157000
     36 HD2        -1.3420   -0.2890    4.6540 ha        1 CGS      0.154000
     37 HD1         2.6180    1.2970    3.8120 ha        1 CGS      0.154000
     38 HE1         2.6040    0.1470    1.6150 ha        1 CGS      0.157000
     39 HOM1        1.3250    2.2920    7.0510 h1        1 CGS      0.052033
     40 HOM2        2.5560    1.2980    6.1100 h1        1 CGS      0.052033
     41 HOM3        1.8150    2.7990    5.3510 h1        1 CGS      0.052033
     42 H49        -3.6270   -1.5940    0.3060 hn        1 CGS      0.305500
     43 HB         -1.4150    0.1900   -3.0100 hc        1 CGS      0.075700
     44 HG21       -0.8460   -1.8470   -4.4110 hc        1 CGS      0.043867
     45 HG22        0.3850   -1.5090   -3.1280 hc        1 CGS      0.043867
     46 HG23       -0.8130   -2.8560   -2.9070 hc        1 CGS      0.043867
     47 HG11       -3.3390   -2.2190   -2.6430 hc        1 CGS      0.043867
     48 HG12       -3.7830   -0.4560   -2.6430 hc        1 CGS      0.043867
     49 HG13       -3.1570   -1.2350   -4.1520 hc        1 CGS      0.043867
     50 H50        -4.3510    0.8390    1.1780 ho        1 CGS      0.435000
@<TRIPOS>BOND
     1    1    2 1   
     2    1    3 1   
     3    1    4 1   
     4    2    5 1   
     5    2   28 1   
     6    2   29 1   
     7    3   21 1   
     8    3   23 1   
     9    3   30 1   
    10    4   11 1   
    11    4   19 2   
    12    4   20 2   
    13    5    6 ar  
    14    5   10 ar  
    15    6    7 ar  
    16    6   31 1   
    17    7    8 ar  
    18    7   32 1   
    19    8    9 ar  
    20    8   33 1   
    21    9   10 ar  
    22   10   34 1   
    23   11   12 ar  
    24   11   16 ar  
    25   12   13 ar  
    26   12   35 1   
    27   13   14 ar  
    28   13   36 1   
    29   14   15 ar  
    30   14   17 1   
    31   15   16 ar  
    32   15   37 1   
    33   16   38 1   
    34   17   18 1   
    35   18   39 1   
    36   18   40 1   
    37   18   41 1   
    38   21   22 1   
    39   21   26 2   
    40   22   27 1   
    41   22   42 1   
    42   23   24 1   
    43   23   25 1   
    44   23   43 1   
    45   24   44 1   
    46   24   45 1   
    47   24   46 1   
    48   25   47 1   
    49   25   48 1   
    50   25   49 1   
    51   27   50 1   
@<TRIPOS>SUBSTRUCTURE
     1 CGS         1 TEMP              0 ****  ****    0 ROOT
