@<TRIPOS>MOLECULE
CGS
   50    46     1     0     0
SMALL
bcc


@<TRIPOS>ATOM
      1 N1          0.1990   -0.6390   -0.4600 n3        1 CGS     -0.817000
      2 CC         -0.5340   -0.9690   -1.6860 c3        1 CGS      0.032000
      3 CA          1.6350   -0.6130   -0.4650 c3        1 CGS      0.033000
      4 S4         -0.6370   -0.3110    0.9400 s4        1 CGS      2.067800
      5 C5         -1.6440   -2.0430   -1.3580 c2        1 CGS     -0.186000
      6 CD         -1.3110   -3.3870   -1.2950 c1        1 CGS     -0.069000
      7 CE         -2.2860   -4.3280   -1.0440 c1        1 CGS     -0.124500
      8 CZ         -3.6200   -3.9240   -0.8520 c1        1 CGS     -0.124500
      9 N11        -3.9480   -2.5990   -0.9140 n1        1 CGS     -0.141000
     10 CY         -2.9590   -1.6460   -1.1680 c2        1 CGS     -0.053000
     11 C17        -1.0860    1.4490    1.0080 c1        1 CGS     -0.880000
     12 CE2        -0.2540    2.3930    0.4210 c2        1 CGS      0.011000
     13 CD2        -0.5210    3.7550    0.5770 c1        1 CGS     -0.186000
     14 C20        -1.6340    4.1730    1.3290 c1        1 CGS      0.151000
     15 CD1        -2.4650    3.2330    1.9150 c1        1 CGS     -0.237000
     16 CE1        -2.1960    1.8640    1.7590 c1        1 CGS      0.030000
     17 O27        -1.9990    5.5410    1.3470 os        1 CGS     -0.200000
     18 COM        -1.6680    6.2090    2.5570 c3        1 CGS     -0.081000
     19 O32         0.0990   -0.6910    2.0770 o         1 CGS     -0.544400
     20 O33        -1.7790   -1.1400    1.0590 o         1 CGS     -0.544400
     21 C34         2.1590   -1.3000    0.7880 c2        1 CGS      0.228000
     22 N35         3.2870   -0.7660    1.4770 n         1 CGS     -0.205000
     23 CB          2.1530   -1.3430   -1.7100 c3        1 CGS     -0.108000
     24 CG2         3.0930   -2.4650   -1.2910 c3        1 CGS     -0.212000
     25 CG1         2.9200   -0.3430   -2.6180 c3        1 CGS     -0.212000
     26 O47         1.6680   -2.3370    1.1540 o         1 CGS     -0.337000
     27 O48         3.9410   -1.5330    2.4240 oh        1 CGS     -0.231000
     28 HC1         0.0690   -1.3230   -2.3360 h1        1 CGS      0.103000
     29 HC2        -0.9610   -0.1510   -2.0450 h1        1 CGS      0.103000
     30 HA          1.9420    0.3110   -0.4800 h1        1 CGS      0.107000
     31 HD         -0.4090   -3.6600   -1.4270 ha        1 CGS      0.158000
     32 HE         -2.0470   -5.2870   -0.9990 ha        1 CGS      0.152000
     33 HZ         -4.3180   -4.5950   -0.6730 ha        1 CGS      0.152000
     34 HY         -3.1970   -0.6860   -1.2140 h4        1 CGS      0.189000
     35 HE2         0.5250    2.1020   -0.1060 ha        1 CGS      0.158000
     36 HD2         0.0980    4.4520    0.1410 ha        1 CGS      0.161000
     37 HD1        -3.2590    3.5310    2.4520 ha        1 CGS      0.149000
     38 HE1        -2.7780    1.2050    2.1710 ha        1 CGS      0.152000
     39 HOM1       -0.8180    5.8520    2.9070 h1        1 CGS      0.092333
     40 HOM2       -1.5750    7.1540    2.3870 h1        1 CGS      0.092333
     41 HOM3       -2.4020    6.0600    3.2360 h1        1 CGS      0.092333
     42 H49         3.5160    0.0860    1.3600 hn        1 CGS      0.257000
     43 HB          1.4150   -1.7100   -2.1930 hc        1 CGS      0.116000
     44 HG21        2.5730   -3.1880   -0.8430 hc        1 CGS      0.080167
     45 HG22        3.5330   -2.8230   -2.0690 hc        1 CGS      0.080167
     46 HG23        3.7570   -2.1150   -0.6780 hc        1 CGS      0.080167
     47 HG11        3.8570   -0.3610   -2.3910 hc        1 CGS      0.080167
     48 HG12        2.5830    0.5270   -2.4890 hc        1 CGS      0.080167
     49 HG13        2.8030   -0.6060   -3.5800 hc        1 CGS      0.080167
     50 H50         4.4810   -1.0180    2.8970 ho        1 CGS      0.225000
@<TRIPOS>BOND
     1    1    2 1   
     2    1    3 1   
     3    1    4 1   
     4    2    5 1   
     5    2   28 1   
     6    2   29 1   
     7    3   21 1   
     8    3   23 1   
     9    3   30 1   
    10    4   19 1   
    11    4   20 1   
    12    5    6 1   
    13    5   10 1   
    14    6   31 1   
    15    7    8 1   
    16    7   32 1   
    17    8   33 1   
    18    9   10 1   
    19   10   34 1   
    20   11   12 1   
    21   11   16 1   
    22   12   13 1   
    23   12   35 1   
    24   13   36 1   
    25   14   15 1   
    26   14   17 1   
    27   15   37 1   
    28   16   38 1   
    29   17   18 1   
    30   18   39 1   
    31   18   40 1   
    32   18   41 1   
    33   21   22 1   
    34   21   26 1   
    35   22   27 1   
    36   22   42 1   
    37   23   24 1   
    38   23   25 1   
    39   23   43 1   
    40   24   44 1   
    41   24   45 1   
    42   24   46 1   
    43   25   47 1   
    44   25   48 1   
    45   25   49 1   
    46   27   50 1   
@<TRIPOS>SUBSTRUCTURE
     1 CGS         1 TEMP              0 ****  ****    0 ROOT
