@<TRIPOS>MOLECULE
CGS
   52    53     1     0     0
SMALL
bcc


@<TRIPOS>ATOM
      1 N1          0.0000    0.0000    0.0000 nx        1 CGS     -0.190300
      2 CC         -0.7330   -1.1150    0.6010 c3        1 CGS      0.174100
      3 CA          1.4640    0.0000    0.0000 c3        1 CGS      0.012500
      4 S4         -0.8280    1.2610   -0.6830 sy        1 CGS      0.968200
      5 C5         -0.9250   -2.2020   -0.4240 ca        1 CGS     -0.346600
      6 CD         -0.0720   -3.2950   -0.4580 ca        1 CGS     -0.059000
      7 CE         -0.2870   -4.2710   -1.4190 ca        1 CGS     -0.202300
      8 CZ         -1.3370   -4.1230   -2.3050 ca        1 CGS      0.480200
      9 N11        -2.1280   -3.0700   -2.2450 nb        1 CGS     -0.535000
     10 CY         -1.9580   -2.1250   -1.3400 ca        1 CGS      0.450200
     11 C17        -1.0910    2.4620    0.5790 ca        1 CGS     -0.297500
     12 CE2        -0.1580    3.4590    0.7900 ca        1 CGS      0.038500
     13 CD2        -0.3630    4.4020    1.7780 ca        1 CGS     -0.186500
     14 C20        -1.5060    4.3470    2.5610 ca        1 CGS      0.249100
     15 CD1        -2.4390    3.3430    2.3520 ca        1 CGS     -0.186500
     16 CE1        -2.2330    2.4060    1.3570 ca        1 CGS      0.038500
     17 O27        -1.7100    5.2740    3.5340 os        1 CGS     -0.241900
     18 COM        -2.9570    4.9530    4.1550 c3        1 CGS      0.212700
     19 O32        -2.1140    0.7510   -1.0050 o         1 CGS     -0.485300
     20 O33         0.0730    1.8610   -1.6030 o         1 CGS     -0.485300
     21 C34         1.9650    0.0000    1.4210 c         1 CGS      0.313100
     22 N35         3.1430    0.5820    1.7200 ny        1 CGS      0.386700
     23 CB          1.9740   -1.2490   -0.7210 c3        1 CGS     -0.106700
     24 CG2         1.4380   -1.2640   -2.1540 c3        1 CGS      0.000900
     25 CG1         3.5040   -1.2320   -0.7490 c3        1 CGS      0.000900
     26 O47         1.3100   -0.5260    2.2950 o         1 CGS     -0.361100
     27 O48         3.6140    0.5810    3.0550 oh        1 CGS     -0.422300
     28 HC1        -0.1710   -1.5060    1.4410 hx        1 CGS      0.086700
     29 HC2        -1.7000   -0.7680    0.9450 hx        1 CGS      0.086700
     30 HA          1.8250    0.8850   -0.5100 hx        1 CGS      0.117700
     31 HD          0.7430   -3.3840    0.2510 ha        1 CGS      0.107000
     32 HE          0.3600   -5.1380   -1.4740 ha        1 CGS      0.140000
     33 HZ         -1.5140   -4.8830   -3.0570 h4        1 CGS      0.010100
     34 HY         -2.6280   -1.2750   -1.3210 h4        1 CGS      0.024100
     35 HE2         0.7100    3.5310    0.1460 ha        1 CGS      0.121500
     36 HD2         0.3690    5.1840    1.9410 ha        1 CGS      0.158500
     37 HD1        -3.3330    3.2980    2.9620 ha        1 CGS      0.158500
     38 HE1        -2.9620    1.6210    1.1930 ha        1 CGS      0.121500
     39 HOM1       -3.7480    4.9890    3.4150 h1        1 CGS      0.022033
     40 HOM2       -2.9040    3.9580    4.5790 h1        1 CGS      0.022033
     41 HOM3       -3.1640    5.6700    4.9400 h1        1 CGS      0.022033
     42 H49         3.8420    0.1290    1.1650 hn        1 CGS      0.258300
     43 HB          1.6320   -2.1340   -0.1980 hc        1 CGS      0.094700
     44 HG21        0.3740   -1.0590   -2.1440 hc        1 CGS      0.030533
     45 HG22        1.6140   -2.2370   -2.5960 hc        1 CGS      0.030533
     46 HG23        1.9460   -0.5060   -2.7380 hc        1 CGS      0.030533
     47 HG11        3.8860   -1.6300    0.1840 hc        1 CGS      0.030533
     48 HG12        3.8570   -1.8410   -1.5720 hc        1 CGS      0.030533
     49 HG13        3.8520   -0.2140   -0.8770 hc        1 CGS      0.030533
     50 H50         4.4470    1.0210    3.0940 ho        1 CGS      0.490000
     51 H11        -0.0000    0.4760    0.8810 hn        1 CGS      0.298800
     52 H352        3.0770    1.5390    1.4330 hn        1 CGS      0.258300
@<TRIPOS>BOND
     1    1    2 1   
     2    1    3 1   
     3    1    4 1   
     4    1   51 1   
     5    2    5 1   
     6    2   28 1   
     7    2   29 1   
     8    3   21 1   
     9    3   23 1   
    10    3   30 1   
    11    4   11 1   
    12    4   19 2   
    13    4   20 2   
    14    5    6 ar  
    15    5   10 ar  
    16    6    7 ar  
    17    6   31 1   
    18    7    8 ar  
    19    7   32 1   
    20    8    9 ar  
    21    8   33 1   
    22    9   10 ar  
    23   10   34 1   
    24   11   12 ar  
    25   11   16 ar  
    26   12   13 ar  
    27   12   35 1   
    28   13   14 ar  
    29   13   36 1   
    30   14   15 ar  
    31   14   17 1   
    32   15   16 ar  
    33   15   37 1   
    34   16   38 1   
    35   17   18 1   
    36   18   39 1   
    37   18   40 1   
    38   18   41 1   
    39   21   22 1   
    40   21   26 2   
    41   22   27 1   
    42   22   42 1   
    43   22   52 1   
    44   23   24 1   
    45   23   25 1   
    46   23   43 1   
    47   24   44 1   
    48   24   45 1   
    49   24   46 1   
    50   25   47 1   
    51   25   48 1   
    52   25   49 1   
    53   27   50 1   
@<TRIPOS>SUBSTRUCTURE
     1 CGS         1 TEMP              0 ****  ****    0 ROOT
