@<TRIPOS>MOLECULE
CGT
   46    47     1     0     0
SMALL
bcc


@<TRIPOS>ATOM
      1 C1          0.8420   -0.3200   -0.0870 c3        1 CGT     -0.013600
      2 S1          0.6500   -0.4950   -1.8560 ss        1 CGT     -0.330300
      3 C2          2.2860    0.0790    0.1910 c3        1 CGT      0.125100
      4 O2          3.2340   -0.9040   -0.2060 oh        1 CGT     -0.630800
      5 C3          2.4930    0.2560    1.7070 c3        1 CGT      0.107100
      6 O3          3.7980    0.7510    1.9800 oh        1 CGT     -0.625800
      7 C4          1.5060    1.2840    2.2850 c3        1 CGT      0.154100
      8 O4          1.6560    1.3610    3.6960 oh        1 CGT     -0.601800
      9 C5          0.0690    0.8590    1.9780 c3        1 CGT     -0.104700
     10 C7         -0.1090    0.7160    0.4740 c3        1 CGT     -0.063400
     11 C6         -0.9170    1.8700    2.5530 c3        1 CGT      0.155400
     12 O6         -2.2610    1.5770    2.2440 oh        1 CGT     -0.630800
     13 CB         -0.3610   -2.2180   -3.5600 c3        1 CGT     -0.047400
     14 CG          0.4080   -3.4880   -3.6930 ca        1 CGT     -0.063300
     15 CD1         1.6430   -3.4980   -4.3520 ca        1 CGT     -0.120000
     16 CD2        -0.1070   -4.6880   -3.1850 ca        1 CGT     -0.120000
     17 CE1         2.3520   -4.6890   -4.5040 ca        1 CGT     -0.137500
     18 CE2         0.6060   -5.8760   -3.3360 ca        1 CGT     -0.137500
     19 CZ          1.8340   -5.8800   -3.9970 ca        1 CGT     -0.143000
     20 C13        -0.4990   -1.7620   -2.1340 c2        1 CGT      0.294200
     21 N17        -1.4220   -2.2880   -1.3650 n2        1 CGT     -0.300200
     22 O18        -1.5420   -1.8740   -0.1710 os        1 CGT     -0.347200
     23 S19        -2.8480   -2.4350    0.9470 s6        1 CGT      1.723300
     24 O20        -4.0000   -2.3060    0.2010 o         1 CGT     -0.728533
     25 O21        -2.6000   -1.4500    1.8940 o         1 CGT     -0.728533
     26 O22        -2.4270   -3.7120    1.2480 o         1 CGT     -0.728533
     27 H1          0.6300   -1.3110    0.3960 h1        1 CGT      0.114700
     28 H2          2.5370    1.0410   -0.3410 h1        1 CGT      0.050700
     29 HA          2.8820   -1.3320   -1.0010 ho        1 CGT      0.430000
     30 H3          2.3610   -0.7360    2.2210 h1        1 CGT      0.063700
     31 HB          4.4130    0.1670    1.5190 ho        1 CGT      0.421000
     32 H4          1.7210    2.2960    1.8390 h1        1 CGT      0.037700
     33 HC          2.6000    1.4800    3.8620 ho        1 CGT      0.408000
     34 H5         -0.1350   -0.1390    2.4620 hc        1 CGT      0.092700
     35 H7C1        0.0540    1.7040   -0.0280 hc        1 CGT      0.071700
     36 H7C2       -1.1680    0.3900    0.2760 hc        1 CGT      0.071700
     37 H6C1       -0.7870    1.9100    3.6700 h1        1 CGT      0.030700
     38 H6C2       -0.7340    2.8920    2.1240 h1        1 CGT      0.030700
     39 H6         -2.3880    0.6150    2.3080 ho        1 CGT      0.455000
     40 HBC1       -1.3810   -2.3630   -4.0160 hc        1 CGT      0.059200
     41 HBC2        0.1460   -1.3990   -4.1430 hc        1 CGT      0.059200
     42 HD1         2.0600   -2.5600   -4.7470 ha        1 CGT      0.143500
     43 HD2        -1.0720   -4.6860   -2.6530 ha        1 CGT      0.143500
     44 HE1         3.3220   -4.6870   -5.0200 ha        1 CGT      0.122000
     45 HE2         0.1980   -6.8110   -2.9260 ha        1 CGT      0.122000
     46 HZ          2.3940   -6.8180   -4.1130 ha        1 CGT      0.117000
@<TRIPOS>BOND
     1    1    2 1   
     2    1    3 1   
     3    1   10 1   
     4    1   27 1   
     5    2   20 1   
     6    3    4 1   
     7    3    5 1   
     8    3   28 1   
     9    4   29 1   
    10    5    6 1   
    11    5    7 1   
    12    5   30 1   
    13    6   31 1   
    14    7    8 1   
    15    7    9 1   
    16    7   32 1   
    17    8   33 1   
    18    9   10 1   
    19    9   11 1   
    20    9   34 1   
    21   10   35 1   
    22   10   36 1   
    23   11   12 1   
    24   11   37 1   
    25   11   38 1   
    26   12   39 1   
    27   13   14 1   
    28   13   20 1   
    29   13   40 1   
    30   13   41 1   
    31   14   15 ar  
    32   14   16 ar  
    33   15   17 ar  
    34   15   42 1   
    35   16   18 ar  
    36   16   43 1   
    37   17   19 ar  
    38   17   44 1   
    39   18   19 ar  
    40   18   45 1   
    41   19   46 1   
    42   20   21 2   
    43   21   22 1   
    44   22   23 1   
    45   23   24 1   
    46   23   25 1   
    47   23   26 1   
@<TRIPOS>SUBSTRUCTURE
     1 CGT         1 TEMP              0 ****  ****    0 ROOT
