@<TRIPOS>MOLECULE
CGT
   46    43     1     0     0
SMALL
bcc


@<TRIPOS>ATOM
      1 C1          0.9980   -1.5970   -0.1130 c3        1 CGT     -0.239000
      2 S1          0.4640    0.0370    0.5080 ss        1 CGT      0.071000
      3 C2          2.5130   -1.6310   -0.1730 c3        1 CGT      0.020000
      4 O2          2.9200   -2.8160   -0.8580 oh        1 CGT     -0.365000
      5 C3          3.1510   -1.6220    1.2110 c3        1 CGT     -0.001000
      6 O3          2.9310   -0.3740    1.8000 oh        1 CGT     -0.347000
      7 C4          2.5820   -2.7040    2.1250 c3        1 CGT      0.017000
      8 O4          3.0040   -3.9680    1.6520 oh        1 CGT     -0.336000
      9 C5          1.0460   -2.6770    2.1840 c3        1 CGT     -0.170000
     10 C7          0.4180   -2.6910    0.8120 c3        1 CGT     -0.141000
     11 C6          0.5900   -1.4050    2.9260 c3        1 CGT     -0.017000
     12 O6          0.7190   -1.6090    4.3730 oh        1 CGT     -0.344000
     13 CB         -1.9210    0.2850   -1.0940 c3        1 CGT     -0.059000
     14 CG         -2.8640    1.4340   -1.5550 c2        1 CGT     -0.059000
     15 CD1        -3.6140    2.1570   -0.5980 c2        1 CGT     -0.130000
     16 CD2        -3.0430    1.6760   -2.8880 c1        1 CGT     -0.106000
     17 CE1        -4.5360    3.1160   -1.0180 c1        1 CGT     -0.141000
     18 CE2        -3.9810    2.6530   -3.3100 c1        1 CGT     -0.137500
     19 CZ         -4.7180    3.3620   -2.3690 c1        1 CGT     -0.137500
     20 C13        -0.5700    0.8550   -0.7430 c2        1 CGT     -0.288000
     21 N17        -0.1170    1.9920   -1.3700 n1        1 CGT      0.074000
     22 O18         1.0780    2.4890   -1.0570 o         1 CGT     -0.922333
     23 S19         1.2060    3.7730   -1.6900 s4        1 CGT      2.897000
     24 O20         2.4710    4.4140   -1.3290 o         1 CGT     -0.922333
     25 O21         0.1890    4.7720   -1.1290 o         1 CGT     -0.922333
     26 O22         1.0700    3.6390   -3.1890 os        1 CGT     -1.046000
     27 H1          0.6150   -1.7340   -1.0930 h1        1 CGT      0.153000
     28 H2          2.8380   -0.8250   -0.6940 h1        1 CGT      0.118000
     29 HA          3.3690   -2.6080   -1.5330 ho        1 CGT      0.268000
     30 H3          4.1350   -1.7650    1.1130 h1        1 CGT      0.127000
     31 HB          3.7350   -0.0370    2.1230 ho        1 CGT      0.222000
     32 H4          2.9320   -2.5710    3.0260 h1        1 CGT      0.115000
     33 HC          3.3530   -4.4650    2.3590 ho        1 CGT      0.225000
     34 H5          0.7330   -3.4630    2.6860 hc        1 CGT      0.100000
     35 H7C1       -0.6170   -2.5410    0.9120 hc        1 CGT      0.093000
     36 H7C2        0.5700   -3.5490    0.4100 hc        1 CGT      0.093000
     37 H6C1       -0.2710   -1.2340    2.7240 h1        1 CGT      0.086000
     38 H6C2        1.1620   -0.6260    2.6440 h1        1 CGT      0.086000
     39 H6          0.0930   -1.1860    4.7780 ho        1 CGT      0.216000
     40 HBC1       -2.3110   -0.1680   -0.2910 hc        1 CGT      0.099000
     41 HBC2       -1.8220   -0.3830   -1.8400 hc        1 CGT      0.099000
     42 HD1        -3.4790    1.9750    0.4070 ha        1 CGT      0.126000
     43 HD2        -2.5150    1.1650   -3.5630 ha        1 CGT      0.161000
     44 HE1        -5.0590    3.6190   -0.3530 ha        1 CGT      0.118000
     45 HE2        -4.1120    2.8310   -4.2740 ha        1 CGT      0.123000
     46 HZ         -5.3360    4.0050   -2.6480 ha        1 CGT      0.123000
@<TRIPOS>BOND
     1    1    2 1   
     2    1    3 1   
     3    1   10 1   
     4    1   27 1   
     5    2   20 1   
     6    3    4 1   
     7    3    5 1   
     8    3   28 1   
     9    4   29 1   
    10    5    6 1   
    11    5    7 1   
    12    5   30 1   
    13    6   31 1   
    14    7    8 1   
    15    7    9 1   
    16    7   32 1   
    17    8   33 1   
    18    9   10 1   
    19    9   11 1   
    20    9   34 1   
    21   10   35 1   
    22   10   36 1   
    23   11   12 1   
    24   11   37 1   
    25   11   38 1   
    26   12   39 1   
    27   13   14 1   
    28   13   20 1   
    29   13   40 1   
    30   13   41 1   
    31   14   15 1   
    32   14   16 1   
    33   15   17 1   
    34   15   42 1   
    35   16   43 1   
    36   17   44 1   
    37   18   19 1   
    38   18   45 1   
    39   19   46 1   
    40   20   21 1   
    41   22   23 1   
    42   23   24 1   
    43   23   25 1   
@<TRIPOS>SUBSTRUCTURE
     1 CGT         1 TEMP              0 ****  ****    0 ROOT
