@<TRIPOS>MOLECULE
CGT
   46    47     1     0     0
SMALL
bcc


@<TRIPOS>ATOM
      1 C1          0.8910   -0.4020    0.0580 c3        1 CGT     -0.013600
      2 S1          1.0790   -0.4660   -1.7180 ss        1 CGT     -0.330300
      3 C2          2.2780   -0.2450    0.6710 c3        1 CGT      0.125100
      4 O2          3.1420   -1.3450    0.4120 oh        1 CGT     -0.630800
      5 C3          2.1620   -0.1700    2.2040 c3        1 CGT      0.107100
      6 O3          3.4280    0.1040    2.7900 oh        1 CGT     -0.625800
      7 C4          1.2250    0.9710    2.6350 c3        1 CGT      0.154100
      8 O4          1.0640    0.9610    4.0470 oh        1 CGT     -0.601800
      9 C5         -0.1510    0.7880    1.9940 c3        1 CGT     -0.104700
     10 C7         -0.0050    0.7420    0.4800 c3        1 CGT     -0.063400
     11 C6         -1.0890    1.9130    2.4210 c3        1 CGT      0.155400
     12 O6         -2.3570    1.8470    1.8070 oh        1 CGT     -0.630800
     13 CB          0.2430   -1.9330   -3.7300 c3        1 CGT     -0.047400
     14 CG          0.8340   -3.3000   -3.7930 ca        1 CGT     -0.063300
     15 CD1         0.0540   -4.4270   -3.5040 ca        1 CGT     -0.120000
     16 CD2         2.1710   -3.4720   -4.1700 ca        1 CGT     -0.120000
     17 CE1         0.6060   -5.7030   -3.5910 ca        1 CGT     -0.137500
     18 CE2         2.7200   -4.7510   -4.2580 ca        1 CGT     -0.137500
     19 CZ          1.9390   -5.8690   -3.9700 ca        1 CGT     -0.143000
     20 C13        -0.1460   -1.5270   -2.3350 c2        1 CGT      0.294200
     21 N17        -1.2820   -1.9360   -1.8260 n2        1 CGT     -0.300200
     22 O18        -1.6080   -1.5630   -0.6580 os        1 CGT     -0.347200
     23 S19        -3.1970   -1.9640    0.1050 s6        1 CGT      1.723300
     24 O20        -4.1220   -1.6250   -0.8590 o         1 CGT     -0.728533
     25 O21        -3.0310   -1.0740    1.1570 o         1 CGT     -0.728533
     26 O22        -3.0400   -3.3040    0.3900 o         1 CGT     -0.728533
     27 H1          0.4380   -1.3700    0.4060 h1        1 CGT      0.114700
     28 H2          2.7750    0.6890    0.2820 h1        1 CGT      0.050700
     29 HA          2.9210   -1.6770   -0.4710 ho        1 CGT      0.430000
     30 H3          1.7780   -1.1520    2.6000 h1        1 CGT      0.063700
     31 HB          4.0420   -0.5470    2.4280 ho        1 CGT      0.421000
     32 H4          1.6750    1.9570    2.3270 h1        1 CGT      0.037700
     33 HC          1.9540    0.9250    4.4210 ho        1 CGT      0.408000
     34 H5         -0.5980   -0.1870    2.3430 hc        1 CGT      0.092700
     35 H7C1       -1.0280    0.5940    0.0340 hc        1 CGT      0.071700
     36 H7C2        0.4040    1.7150    0.1030 hc        1 CGT      0.071700
     37 H6C1       -1.2080    1.8830    3.5380 h1        1 CGT      0.030700
     38 H6C2       -0.6720    2.9130    2.1220 h1        1 CGT      0.030700
     39 H6         -2.6290    0.9140    1.7680 ho        1 CGT      0.455000
     40 HBC1        0.9790   -1.1770   -4.1240 hc        1 CGT      0.059200
     41 HBC2       -0.6580   -1.8970   -4.4040 hc        1 CGT      0.059200
     42 HD1        -0.9960   -4.2990   -3.1930 ha        1 CGT      0.143500
     43 HD2         2.7950   -2.5940   -4.3900 ha        1 CGT      0.143500
     44 HE1        -0.0110   -6.5810   -3.3530 ha        1 CGT      0.122000
     45 HE2         3.7720   -4.8760   -4.5510 ha        1 CGT      0.122000
     46 HZ          2.3720   -6.8760   -4.0350 ha        1 CGT      0.117000
@<TRIPOS>BOND
     1    1    2 1   
     2    1    3 1   
     3    1   10 1   
     4    1   27 1   
     5    2   20 1   
     6    3    4 1   
     7    3    5 1   
     8    3   28 1   
     9    4   29 1   
    10    5    6 1   
    11    5    7 1   
    12    5   30 1   
    13    6   31 1   
    14    7    8 1   
    15    7    9 1   
    16    7   32 1   
    17    8   33 1   
    18    9   10 1   
    19    9   11 1   
    20    9   34 1   
    21   10   35 1   
    22   10   36 1   
    23   11   12 1   
    24   11   37 1   
    25   11   38 1   
    26   12   39 1   
    27   13   14 1   
    28   13   20 1   
    29   13   40 1   
    30   13   41 1   
    31   14   15 ar  
    32   14   16 ar  
    33   15   17 ar  
    34   15   42 1   
    35   16   18 ar  
    36   16   43 1   
    37   17   19 ar  
    38   17   44 1   
    39   18   19 ar  
    40   18   45 1   
    41   19   46 1   
    42   20   21 2   
    43   21   22 1   
    44   22   23 1   
    45   23   24 1   
    46   23   25 1   
    47   23   26 1   
@<TRIPOS>SUBSTRUCTURE
     1 CGT         1 TEMP              0 ****  ****    0 ROOT
