@<TRIPOS>MOLECULE
CGT
   46    47     1     0     0
SMALL
bcc


@<TRIPOS>ATOM
      1 C1          0.8320   -0.3060   -0.1170 c3        1 CGT     -0.013600
      2 S1          0.6050   -0.5210   -1.8770 ss        1 CGT     -0.330300
      3 C2          2.2760    0.1220    0.1200 c3        1 CGT      0.125100
      4 O2          3.2300   -0.8560   -0.2770 oh        1 CGT     -0.630800
      5 C3          2.5120    0.3340    1.6270 c3        1 CGT      0.107100
      6 O3          3.8150    0.8550    1.8610 oh        1 CGT     -0.625800
      7 C4          1.5220    1.3590    2.2050 c3        1 CGT      0.154100
      8 O4          1.7020    1.4690    3.6100 oh        1 CGT     -0.601800
      9 C5          0.0860    0.9060    1.9390 c3        1 CGT     -0.104700
     10 C7         -0.1220    0.7270    0.4430 c3        1 CGT     -0.063400
     11 C6         -0.9030    1.9140    2.5140 c3        1 CGT      0.155400
     12 O6         -2.2490    1.5940    2.2410 oh        1 CGT     -0.630800
     13 CB         -0.4150   -2.2980   -3.5210 c3        1 CGT     -0.047400
     14 CG          0.3730   -3.5580   -3.6430 ca        1 CGT     -0.063300
     15 CD1         1.5920   -3.5630   -4.3300 ca        1 CGT     -0.120000
     16 CD2        -0.1100   -4.7540   -3.0960 ca        1 CGT     -0.120000
     17 CE1         2.3170   -4.7450   -4.4710 ca        1 CGT     -0.137500
     18 CE2         0.6190   -5.9330   -3.2370 ca        1 CGT     -0.137500
     19 CZ          1.8320   -5.9330   -3.9250 ca        1 CGT     -0.143000
     20 C13        -0.5290   -1.8130   -2.1020 c2        1 CGT      0.294200
     21 N17        -1.4270   -2.3350   -1.3020 n2        1 CGT     -0.300200
     22 O18        -1.5290   -1.8970   -0.1160 os        1 CGT     -0.347200
     23 S19        -2.8020   -2.4530    1.0420 s6        1 CGT      1.723300
     24 O20        -3.9710   -2.3580    0.3190 o         1 CGT     -0.728533
     25 O21        -2.5480   -1.4450    1.9620 o         1 CGT     -0.728533
     26 O22        -2.3540   -3.7180    1.3620 o         1 CGT     -0.728533
     27 H1          0.6460   -1.2890    0.3920 h1        1 CGT      0.114700
     28 H2          2.5000    1.0750   -0.4370 h1        1 CGT      0.050700
     29 HA          2.8680   -1.3060   -1.0550 ho        1 CGT      0.430000
     30 H3          2.4070   -0.6480    2.1660 h1        1 CGT      0.063700
     31 HB          4.4290    0.2700    1.3990 ho        1 CGT      0.421000
     32 H4          1.7110    2.3650    1.7330 h1        1 CGT      0.037700
     33 HC          2.6470    1.6060    3.7530 ho        1 CGT      0.408000
     34 H5         -0.0920   -0.0850    2.4480 hc        1 CGT      0.092700
     35 H7C1        0.0140    1.7070   -0.0840 hc        1 CGT      0.071700
     36 H7C2       -1.1810    0.3820    0.2750 hc        1 CGT      0.071700
     37 H6C1       -0.7500    1.9800    3.6260 h1        1 CGT      0.030700
     38 H6C2       -0.7460    2.9290    2.0600 h1        1 CGT      0.030700
     39 H6         -2.3590    0.6320    2.3280 ho        1 CGT      0.455000
     40 HBC1        0.0660   -1.4840   -4.1330 hc        1 CGT      0.059200
     41 HBC2       -1.4410   -2.4700   -3.9510 hc        1 CGT      0.059200
     42 HD1         1.9840   -2.6270   -4.7550 ha        1 CGT      0.143500
     43 HD2        -1.0630   -4.7560   -2.5430 ha        1 CGT      0.143500
     44 HE1         3.2760   -4.7380   -5.0090 ha        1 CGT      0.122000
     45 HE2         0.2360   -6.8660   -2.7970 ha        1 CGT      0.122000
     46 HZ          2.4060   -6.8640   -4.0330 ha        1 CGT      0.117000
@<TRIPOS>BOND
     1    1    2 1   
     2    1    3 1   
     3    1   10 1   
     4    1   27 1   
     5    2   20 1   
     6    3    4 1   
     7    3    5 1   
     8    3   28 1   
     9    4   29 1   
    10    5    6 1   
    11    5    7 1   
    12    5   30 1   
    13    6   31 1   
    14    7    8 1   
    15    7    9 1   
    16    7   32 1   
    17    8   33 1   
    18    9   10 1   
    19    9   11 1   
    20    9   34 1   
    21   10   35 1   
    22   10   36 1   
    23   11   12 1   
    24   11   37 1   
    25   11   38 1   
    26   12   39 1   
    27   13   14 1   
    28   13   20 1   
    29   13   40 1   
    30   13   41 1   
    31   14   15 ar  
    32   14   16 ar  
    33   15   17 ar  
    34   15   42 1   
    35   16   18 ar  
    36   16   43 1   
    37   17   19 ar  
    38   17   44 1   
    39   18   19 ar  
    40   18   45 1   
    41   19   46 1   
    42   20   21 2   
    43   21   22 1   
    44   22   23 1   
    45   23   24 1   
    46   23   25 1   
    47   23   26 1   
@<TRIPOS>SUBSTRUCTURE
     1 CGT         1 TEMP              0 ****  ****    0 ROOT
