@<TRIPOS>MOLECULE
CGT
   46    47     1     0     0
SMALL
bcc


@<TRIPOS>ATOM
      1 C1          1.4480   -0.0690   -0.4940 c3        1 CGT     -0.029600
      2 S1          0.1190   -0.3000   -1.6590 ss        1 CGT     -0.294300
      3 C2          1.4520   -1.0960    0.6340 c3        1 CGT      0.137100
      4 O2          0.3080   -1.0530    1.4590 oh        1 CGT     -0.620800
      5 C3          2.7010   -0.8760    1.5120 c3        1 CGT      0.068100
      6 O3          2.7740   -1.8640    2.5310 oh        1 CGT     -0.628800
      7 C4          3.9840   -1.0080    0.6800 c3        1 CGT      0.156100
      8 O4          5.1340   -0.7440    1.4730 oh        1 CGT     -0.616800
      9 C5          3.9580    0.0090   -0.4640 c3        1 CGT     -0.102700
     10 C7          2.7150   -0.1940   -1.3160 c3        1 CGT     -0.063400
     11 C6          5.2220   -0.1210   -1.3070 c3        1 CGT      0.133400
     12 O6          5.3200    0.8850   -2.2990 oh        1 CGT     -0.609800
     13 CB         -2.4870   -0.1450   -1.8030 c3        1 CGT     -0.045400
     14 CG         -3.2500   -1.2370   -1.1350 ca        1 CGT     -0.057300
     15 CD1        -4.4870   -1.6140   -1.6780 ca        1 CGT     -0.121500
     16 CD2        -2.7700   -1.9060   -0.0040 ca        1 CGT     -0.121500
     17 CE1        -5.2290   -2.6420   -1.1020 ca        1 CGT     -0.136500
     18 CE2        -3.5170   -2.9340    0.5720 ca        1 CGT     -0.136500
     19 CZ         -4.7450   -3.3050    0.0260 ca        1 CGT     -0.147000
     20 C13        -1.3290    0.3780   -1.0000 c2        1 CGT      0.294200
     21 N17        -1.5470    1.2290   -0.0260 n2        1 CGT     -0.301200
     22 O18        -0.5580    1.6680    0.6420 os        1 CGT     -0.366200
     23 S19        -0.6800    2.5730    2.2000 s6        1 CGT      1.717300
     24 O20        -0.1010    3.7660    1.8180 o         1 CGT     -0.726533
     25 O21         0.1350    1.6670    2.8690 o         1 CGT     -0.726533
     26 O22        -2.0090    2.6010    2.5590 o         1 CGT     -0.726533
     27 H1          1.3780    0.9590   -0.0460 h1        1 CGT      0.121700
     28 H2          1.4560   -2.1430    0.2160 h1        1 CGT      0.074700
     29 HA          0.2110   -0.1450    1.7970 ho        1 CGT      0.456000
     30 H3          2.6490    0.1420    1.9950 h1        1 CGT      0.078700
     31 HB          1.8950   -1.8940    2.9370 ho        1 CGT      0.431000
     32 H4          4.0640   -2.0550    0.2730 h1        1 CGT      0.041700
     33 HC          4.9820   -1.1690    2.3280 ho        1 CGT      0.420000
     34 H5          3.9310    1.0420   -0.0140 hc        1 CGT      0.069700
     35 H7C1        2.7150    0.5730   -2.1360 hc        1 CGT      0.057700
     36 H7C2        2.7550   -1.2060   -1.8000 hc        1 CGT      0.057700
     37 H6C1        5.2260   -1.0850   -1.8810 h1        1 CGT      0.049700
     38 H6C2        6.1240   -0.0790   -0.6370 h1        1 CGT      0.049700
     39 H6          5.1570    1.7320   -1.8670 ho        1 CGT      0.400000
     40 HBC1       -3.1920    0.6970   -2.0490 hc        1 CGT      0.058700
     41 HBC2       -2.0910   -0.5380   -2.7840 hc        1 CGT      0.058700
     42 HD1        -4.8740   -1.0880   -2.5630 ha        1 CGT      0.146500
     43 HD2        -1.7980   -1.6190    0.4400 ha        1 CGT      0.146500
     44 HE1        -6.1990   -2.9270   -1.5340 ha        1 CGT      0.120000
     45 HE2        -3.1340   -3.4470    1.4650 ha        1 CGT      0.120000
     46 HZ         -5.3320   -4.1130    0.4840 ha        1 CGT      0.115000
@<TRIPOS>BOND
     1    1    2 1   
     2    1    3 1   
     3    1   10 1   
     4    1   27 1   
     5    2   20 1   
     6    3    4 1   
     7    3    5 1   
     8    3   28 1   
     9    4   29 1   
    10    5    6 1   
    11    5    7 1   
    12    5   30 1   
    13    6   31 1   
    14    7    8 1   
    15    7    9 1   
    16    7   32 1   
    17    8   33 1   
    18    9   10 1   
    19    9   11 1   
    20    9   34 1   
    21   10   35 1   
    22   10   36 1   
    23   11   12 1   
    24   11   37 1   
    25   11   38 1   
    26   12   39 1   
    27   13   14 1   
    28   13   20 1   
    29   13   40 1   
    30   13   41 1   
    31   14   15 ar  
    32   14   16 ar  
    33   15   17 ar  
    34   15   42 1   
    35   16   18 ar  
    36   16   43 1   
    37   17   19 ar  
    38   17   44 1   
    39   18   19 ar  
    40   18   45 1   
    41   19   46 1   
    42   20   21 2   
    43   21   22 1   
    44   22   23 1   
    45   23   24 1   
    46   23   25 1   
    47   23   26 1   
@<TRIPOS>SUBSTRUCTURE
     1 CGT         1 TEMP              0 ****  ****    0 ROOT
