@<TRIPOS>MOLECULE
CGU
   19    18     1     0     0
SMALL
bcc


@<TRIPOS>ATOM
      1 N          -0.8040    1.6580    1.3580 n3        1 CGU     -0.922800
      2 CA         -0.3250    0.2940    1.5190 c3        1 CGU      0.061500
      3 C           0.4610    0.1440    2.8530 c         1 CGU      0.916600
      4 O           1.4180    0.9330    3.1300 o         1 CGU     -0.897300
      5 OXT         0.1080   -0.7680    3.6680 o         1 CGU     -0.897300
      6 CB          0.5150   -0.2750    0.3560 c3        1 CGU     -0.064400
      7 CG          0.2450    0.2830   -1.0340 c3        1 CGU     -0.248700
      8 CD1         1.2510   -0.2890   -2.0500 c         1 CGU      0.928600
      9 CD2        -1.2210    0.1250   -1.4690 c         1 CGU      0.928600
     10 OE11        1.7550   -1.4480   -1.9130 o         1 CGU     -0.902550
     11 OE12        1.6370    0.4590   -3.0110 o         1 CGU     -0.902550
     12 OE21       -1.7420   -1.0000   -1.7340 o         1 CGU     -0.902550
     13 OE22       -1.9310    1.1880   -1.5420 o         1 CGU     -0.902550
     14 H          -0.0090    2.2710    1.3460 hn        1 CGU      0.341300
     15 HN2        -1.2670    1.7340    0.4650 hn        1 CGU      0.341300
     16 HA         -1.2510   -0.3490    1.6080 h1        1 CGU      0.037700
     17 HB2         1.5990   -0.1020    0.5890 hc        1 CGU      0.033200
     18 HB3         0.3550   -1.3840    0.3210 hc        1 CGU      0.033200
     19 HG          0.4470    1.3930   -1.0210 hc        1 CGU      0.019700
@<TRIPOS>BOND
     1    1    2 1   
     2    1   14 1   
     3    1   15 1   
     4    2    3 1   
     5    2    6 1   
     6    2   16 1   
     7    3    4 1   
     8    3    5 1   
     9    6    7 1   
    10    6   17 1   
    11    6   18 1   
    12    7    8 1   
    13    7    9 1   
    14    7   19 1   
    15    8   10 1   
    16    8   11 1   
    17    9   12 1   
    18    9   13 1   
@<TRIPOS>SUBSTRUCTURE
     1 CGU         1 TEMP              0 ****  ****    0 ROOT
