@<TRIPOS>MOLECULE
CH
   34    36     1     0     0
SMALL
bcc


@<TRIPOS>ATOM
      1 OP3        -7.2180   -5.0060   -5.6560 os        1 CH      -0.606200
      2 P          -7.7230   -3.7090   -4.7350 p5        1 CH       1.447800
      3 OP1        -9.1360   -3.5400   -5.1160 o         1 CH      -0.817000
      4 OP2        -7.1760   -3.8540   -3.3770 o         1 CH      -0.817000
      5 O5'        -6.8460   -2.5740   -5.5390 os        1 CH      -0.565200
      6 C5'        -7.4330   -1.9360   -6.6250 c3        1 CH       0.176400
      7 C4'        -6.9340   -2.4640   -7.9800 c3        1 CH       0.075100
      8 O4'        -5.5910   -2.9420   -7.8910 os        1 CH      -0.401600
      9 C3'        -7.8030   -3.5940   -8.5720 c3        1 CH       0.122100
     10 O3'        -8.2260   -3.2860   -9.8830 oh        1 CH      -0.593800
     11 C2'        -6.9190   -4.8600   -8.5080 c3        1 CH       0.080100
     12 O2'        -6.7590   -5.3540   -9.8290 oh        1 CH      -0.607800
     13 C1'        -5.5360   -4.3770   -7.9730 c3        1 CH       0.282500
     14 N1         -5.0730   -4.9990   -6.7430 n         1 CH      -0.489800
     15 C2         -3.7710   -4.6370   -6.3560 c         1 CH       0.829500
     16 O2         -2.9330   -4.1520   -7.1590 o         1 CH      -0.695500
     17 N3         -3.3120   -4.8960   -5.0510 n         1 CH      -0.492100
     18 C4         -4.1000   -5.6070   -4.1260 c2        1 CH       0.213600
     19 N4         -3.5220   -5.9460   -2.8650 nh        1 CH      -0.801600
     20 C5         -5.3540   -6.0070   -4.4780 c2        1 CH      -0.329200
     21 C6         -5.9990   -5.6480   -5.7900 c3        1 CH       0.469700
     22 H5'        -7.1390   -0.8490   -6.5600 h1        1 CH       0.042700
     23 H5''       -8.5550   -2.0250   -6.5770 h1        1 CH       0.042700
     24 H4'        -6.8880   -1.6040   -8.7060 h1        1 CH       0.056700
     25 H3'        -8.7570   -3.7410   -7.9930 h1        1 CH       0.124700
     26 HO3'       -7.4530   -3.3350  -10.4590 ho        1 CH       0.406000
     27 H2'        -7.4040   -5.6370   -7.8600 h1        1 CH       0.098700
     28 HO2'       -6.2510   -6.1700   -9.7530 ho        1 CH       0.403000
     29 H1'        -4.7280   -4.5680   -8.7490 h2        1 CH       0.081700
     30 HN3        -2.3530   -4.7130   -4.8730 hn        1 CH       0.327500
     31 H41        -2.9880   -5.1890   -2.4830 hn        1 CH       0.375300
     32 H42        -4.2490   -6.2020   -2.2240 hn        1 CH       0.375300
     33 H5         -6.0180   -6.5260   -3.7760 ha        1 CH       0.158000
     34 H6         -6.2610   -6.6370   -6.3090 h2        1 CH       0.025700
@<TRIPOS>BOND
     1    1    2 1   
     2    1   21 1   
     3    2    3 1   
     4    2    4 1   
     5    2    5 1   
     6    5    6 1   
     7    6    7 1   
     8    6   22 1   
     9    6   23 1   
    10    7    8 1   
    11    7    9 1   
    12    7   24 1   
    13    8   13 1   
    14    9   10 1   
    15    9   11 1   
    16    9   25 1   
    17   10   26 1   
    18   11   12 1   
    19   11   13 1   
    20   11   27 1   
    21   12   28 1   
    22   13   14 1   
    23   13   29 1   
    24   14   15 1   
    25   14   21 1   
    26   15   16 2   
    27   15   17 1   
    28   17   18 1   
    29   17   30 1   
    30   18   19 1   
    31   18   20 2   
    32   19   31 1   
    33   19   32 1   
    34   20   21 1   
    35   20   33 1   
    36   21   34 1   
@<TRIPOS>SUBSTRUCTURE
     1 CH          1 TEMP              0 ****  ****    0 ROOT
