@<TRIPOS>MOLECULE
CH2
    3     2     1     0     0
SMALL
bcc


@<TRIPOS>ATOM
      1 C          -0.0030   -0.0000   -0.0000 c1        1 CH2     -0.010000
      2 H1          1.0990   -0.0010   -0.0170 ha        1 CH2      0.005000
      3 H2         -0.3740    0.0010    1.0380 ha        1 CH2      0.005000
@<TRIPOS>BOND
     1    1    2 1   
     2    1    3 1   
@<TRIPOS>SUBSTRUCTURE
     1 CH2         1 TEMP              0 ****  ****    0 ROOT
