@<TRIPOS>MOLECULE
CH3
    5     4     1     0     0
SMALL
bcc


@<TRIPOS>ATOM
      1 C          -0.0200   -0.0280   -0.0000 c3        1 CH3     -0.108800
      2 HC1        -0.3900   -0.5530   -0.9080 hc        1 CH3      0.026700
      3 HC2         1.0920   -0.0270   -0.0000 hc        1 CH3      0.026700
      4 HC3        -0.3920    1.0190    0.0000 hc        1 CH3      0.026700
      5 HC4        -0.3900   -0.5530    0.9080 hc        1 CH3      0.026700
@<TRIPOS>BOND
     1    1    2 1   
     2    1    3 1   
     3    1    4 1   
     4    1    5 1   
@<TRIPOS>SUBSTRUCTURE
     1 CH3         1 TEMP              0 ****  ****    0 ROOT
