@<TRIPOS>MOLECULE
CH4
   37    36     1     0     0
SMALL
bcc


@<TRIPOS>ATOM
      1 CA         -0.0560   -0.1040    0.0910 c3        1 CH4     -0.249700
      2 CB1         1.4850   -0.1020    0.0630 c3        1 CH4      0.120300
      3 NG1         2.1280    0.0180    1.4190 n4        1 CH4     -0.767000
      4 CD1         3.6240   -0.0680    1.3330 c3        1 CH4      0.081300
      5 CE1         4.2980    0.0430    2.7250 c3        1 CH4      0.076800
      6 NZ1         5.7800   -0.0550    2.6750 n4        1 CH4     -0.835600
      7 CB2        -0.5610    0.1870   -1.3420 c3        1 CH4      0.120300
      8 NG2        -2.0530    0.3320   -1.4520 n4        1 CH4     -0.767000
      9 CD2        -2.5000    0.4910   -2.8740 c3        1 CH4      0.081300
     10 CE2        -4.0450    0.5500   -2.9890 c3        1 CH4      0.076800
     11 NZ2        -4.5310    0.6590   -4.3890 n4        1 CH4     -0.835600
     12 C          -0.5920   -1.4380    0.6070 c         1 CH4      0.565900
     13 O          -1.6730   -1.8610    0.2150 o         1 CH4     -0.452100
     14 HA         -0.4330    0.7010    0.7890 hc        1 CH4      0.123700
     15 HB12        1.8560    0.7670   -0.5600 hx        1 CH4      0.134450
     16 HB13        1.8540   -1.0640   -0.4070 hx        1 CH4      0.134450
     17 HG1         1.8620    0.9200    1.8440 hn        1 CH4      0.480050
     18 HD12        3.9810    0.7680    0.6590 hx        1 CH4      0.139700
     19 HD13        3.8880   -1.0580    0.8510 hx        1 CH4      0.139700
     20 HE12        3.9290   -0.7850    3.4070 hx        1 CH4      0.146450
     21 HE13        4.0430    1.0390    3.2040 hx        1 CH4      0.146450
     22 HZ11        6.1930    0.7010    2.1090 hn        1 CH4      0.498800
     23 HZ12        6.1550    0.0280    3.6410 hn        1 CH4      0.498800
     24 HB22       -0.0980    1.1440   -1.7240 hx        1 CH4      0.134450
     25 HB23       -0.2540   -0.6660   -2.0180 hx        1 CH4      0.134450
     26 HG2        -2.3610    1.1470   -0.9030 hn        1 CH4      0.480050
     27 HD22       -2.1010   -0.3900   -3.4630 hx        1 CH4      0.139700
     28 HD23       -2.0400    1.4400   -3.2830 hx        1 CH4      0.139700
     29 HE22       -4.5070   -0.3850   -2.5430 hx        1 CH4      0.146450
     30 HE23       -4.4440    1.4480   -2.4220 hx        1 CH4      0.146450
     31 HZ21       -5.5690    0.6960   -4.3810 hn        1 CH4      0.498800
     32 HZ22       -4.1850    1.5160   -4.8460 hn        1 CH4      0.498800
     33 H           0.0310   -1.9770    1.3510 h4        1 CH4      0.063200
     34 HG12        1.7800   -0.7350    2.0320 hn        1 CH4      0.480050
     35 HZ13        6.0890   -0.9620    2.2920 hn        1 CH4      0.498800
     36 HG22       -2.5060   -0.5160   -1.0480 hn        1 CH4      0.480050
     37 HZ23       -4.2460   -0.1560   -4.9540 hn        1 CH4      0.498800
@<TRIPOS>BOND
     1    1    2 1   
     2    1    7 1   
     3    1   12 1   
     4    1   14 1   
     5    2    3 1   
     6    2   15 1   
     7    2   16 1   
     8    3    4 1   
     9    3   17 1   
    10    3   34 1   
    11    4    5 1   
    12    4   18 1   
    13    4   19 1   
    14    5    6 1   
    15    5   20 1   
    16    5   21 1   
    17    6   22 1   
    18    6   23 1   
    19    6   35 1   
    20    7    8 1   
    21    7   24 1   
    22    7   25 1   
    23    8    9 1   
    24    8   26 1   
    25    8   36 1   
    26    9   10 1   
    27    9   27 1   
    28    9   28 1   
    29   10   11 1   
    30   10   29 1   
    31   10   30 1   
    32   11   31 1   
    33   11   32 1   
    34   11   37 1   
    35   12   13 2   
    36   12   33 1   
@<TRIPOS>SUBSTRUCTURE
     1 CH4         1 TEMP              0 ****  ****    0 ROOT
