@<TRIPOS>MOLECULE
CH4
   37    36     1     0     0
SMALL
bcc


@<TRIPOS>ATOM
      1 CA         -0.0550   -0.1020    0.0930 c3        1 CH4     -0.249700
      2 CB1         1.4860   -0.0980    0.0630 c3        1 CH4      0.120300
      3 NG1         2.1290    0.0320    1.4180 ny        1 CH4     -0.767000
      4 CD1         3.6260   -0.0520    1.3320 c3        1 CH4      0.081300
      5 CE1         4.3000    0.0700    2.7230 c3        1 CH4      0.076800
      6 NZ1         5.7820   -0.0280    2.6720 nz        1 CH4     -0.835600
      7 CB2        -0.5620    0.1800   -1.3420 c3        1 CH4      0.120300
      8 NG2        -2.0550    0.3200   -1.4520 ny        1 CH4     -0.767000
      9 CD2        -2.5020    0.4720   -2.8740 c3        1 CH4      0.081300
     10 CE2        -4.0480    0.5250   -2.9890 c3        1 CH4      0.076800
     11 NZ2        -4.5340    0.6270   -4.3890 nz        1 CH4     -0.835600
     12 C          -0.5880   -1.4340    0.6160 c         1 CH4      0.565900
     13 O          -1.6680   -1.8630    0.2270 o         1 CH4     -0.452100
     14 HA         -0.4340    0.7060    0.7860 hc        1 CH4      0.123700
     15 HB12        1.8540    0.7680   -0.5650 hx        1 CH4      0.134450
     16 HB13        1.8560   -1.0620   -0.4010 hx        1 CH4      0.134450
     17 HG1         1.7820   -0.7170    2.0360 hn        1 CH4      0.480050
     18 HD12        3.8900   -1.0450    0.8570 hx        1 CH4      0.139700
     19 HD13        3.9800    0.7800    0.6520 hx        1 CH4      0.139700
     20 HE12        4.0440    1.0690    3.1950 hx        1 CH4      0.146450
     21 HE13        3.9320   -0.7530    3.4110 hx        1 CH4      0.146450
     22 HZ11        6.1940    0.7250    2.1000 hn        1 CH4      0.498800
     23 HZ12        6.1570    0.0640    3.6370 hn        1 CH4      0.498800
     24 HB22       -0.2530   -0.6760   -2.0140 hx        1 CH4      0.134450
     25 HB23       -0.1010    1.1360   -1.7290 hx        1 CH4      0.134450
     26 HG2        -2.5040   -0.5270   -1.0440 hn        1 CH4      0.480050
     27 HD22       -2.1000   -0.4090   -3.4600 hx        1 CH4      0.139700
     28 HD23       -2.0460    1.4210   -3.2870 hx        1 CH4      0.139700
     29 HE22       -4.4500    1.4230   -2.4250 hx        1 CH4      0.146450
     30 HE23       -4.5060   -0.4110   -2.5400 hx        1 CH4      0.146450
     31 HZ21       -4.1920    1.4840   -4.8480 hn        1 CH4      0.498800
     32 HZ22       -4.2460   -0.1880   -4.9520 hn        1 CH4      0.498800
     33 H           0.0350   -1.9670    1.3640 h4        1 CH4      0.063200
     34 HG12        1.8630    0.9370    1.8380 hn        1 CH4      0.480050
     35 HZ13        6.0920   -0.9370    2.2970 hn        1 CH4      0.498800
     36 HG22       -2.3640    1.1370   -0.9060 hn        1 CH4      0.480050
     37 HZ23       -5.5720    0.6600   -4.3820 hn        1 CH4      0.498800
@<TRIPOS>BOND
     1    1    2 1   
     2    1    7 1   
     3    1   12 1   
     4    1   14 1   
     5    2    3 1   
     6    2   15 1   
     7    2   16 1   
     8    3    4 1   
     9    3   17 1   
    10    3   34 1   
    11    4    5 1   
    12    4   18 1   
    13    4   19 1   
    14    5    6 1   
    15    5   20 1   
    16    5   21 1   
    17    6   22 1   
    18    6   23 1   
    19    6   35 1   
    20    7    8 1   
    21    7   24 1   
    22    7   25 1   
    23    8    9 1   
    24    8   26 1   
    25    8   36 1   
    26    9   10 1   
    27    9   27 1   
    28    9   28 1   
    29   10   11 1   
    30   10   29 1   
    31   10   30 1   
    32   11   31 1   
    33   11   32 1   
    34   11   37 1   
    35   12   13 2   
    36   12   33 1   
@<TRIPOS>SUBSTRUCTURE
     1 CH4         1 TEMP              0 ****  ****    0 ROOT
