@<TRIPOS>MOLECULE
CH4
   33    32     1     0     0
SMALL
bcc


@<TRIPOS>ATOM
      1 CA          0.0000    0.2290   -0.1050 c3        1 CH4     -0.197700
      2 CB1         1.2420   -0.6280    0.1890 c3        1 CH4      0.178300
      3 NG1         2.4580   -0.0830   -0.3740 n3        1 CH4     -0.830200
      4 CD1         3.6530   -0.7060    0.1570 c3        1 CH4      0.163800
      5 CE1         4.9370   -0.0570   -0.4050 c3        1 CH4      0.156300
      6 NZ1         6.1290   -0.7040    0.0900 n3        1 CH4     -0.916800
      7 CB2        -1.2480   -0.5960    0.2310 c3        1 CH4      0.178300
      8 NG2        -2.4750    0.0180   -0.2320 n3        1 CH4     -0.830200
      9 CD2        -3.6560   -0.7450    0.1190 c3        1 CH4      0.163800
     10 CE2        -4.9550   -0.0180   -0.2910 c3        1 CH4      0.156300
     11 NZ2        -6.1270   -0.8030    0.0070 n3        1 CH4     -0.916800
     12 C           0.0460    1.5080    0.6840 c         1 CH4      0.567900
     13 O           0.9540    2.3340    0.5790 o         1 CH4     -0.530100
     14 HA         -0.0140    0.4950   -1.2020 hc        1 CH4      0.113700
     15 HB12        1.0930   -1.6470   -0.2710 h1        1 CH4      0.035700
     16 HB13        1.3100   -0.7740    1.3090 h1        1 CH4      0.035700
     17 HG1         2.4930    0.9160   -0.2680 hn        1 CH4      0.366300
     18 HD12        3.6310   -1.7940   -0.1370 h1        1 CH4      0.035450
     19 HD13        3.6870   -0.6640    1.2870 h1        1 CH4      0.035450
     20 HE12        4.9150    1.0480   -0.1660 h1        1 CH4      0.032700
     21 HE13        4.9360   -0.1580   -1.5270 h1        1 CH4      0.032700
     22 HZ11        6.9430   -0.2530   -0.2770 hn        1 CH4      0.350550
     23 HZ12        6.1630   -0.6840    1.0890 hn        1 CH4      0.350550
     24 HB22       -1.1630   -1.5970   -0.2810 h1        1 CH4      0.035700
     25 HB23       -1.2580   -0.7900    1.3460 h1        1 CH4      0.035700
     26 HG2        -2.5500    0.9630    0.0960 hn        1 CH4      0.366300
     27 HD22       -3.5980   -1.7300   -0.4250 h1        1 CH4      0.035450
     28 HD23       -3.6970   -0.9730    1.2260 h1        1 CH4      0.035450
     29 HE22       -4.9740    0.9960    0.2110 h1        1 CH4      0.032700
     30 HE23       -4.9380    0.1610   -1.4040 h1        1 CH4      0.032700
     31 HZ21       -6.1830   -1.0180    0.9820 hn        1 CH4      0.350550
     32 HZ22       -6.9540   -0.3140   -0.2730 hn        1 CH4      0.350550
     33 H          -0.8010    1.6780    1.3880 h4        1 CH4     -0.008800
@<TRIPOS>BOND
     1    1    2 1   
     2    1    7 1   
     3    1   12 1   
     4    1   14 1   
     5    2    3 1   
     6    2   15 1   
     7    2   16 1   
     8    3    4 1   
     9    3   17 1   
    10    4    5 1   
    11    4   18 1   
    12    4   19 1   
    13    5    6 1   
    14    5   20 1   
    15    5   21 1   
    16    6   22 1   
    17    6   23 1   
    18    7    8 1   
    19    7   24 1   
    20    7   25 1   
    21    8    9 1   
    22    8   26 1   
    23    9   10 1   
    24    9   27 1   
    25    9   28 1   
    26   10   11 1   
    27   10   29 1   
    28   10   30 1   
    29   11   31 1   
    30   11   32 1   
    31   12   13 2   
    32   12   33 1   
@<TRIPOS>SUBSTRUCTURE
     1 CH4         1 TEMP              0 ****  ****    0 ROOT
