@<TRIPOS>MOLECULE
CH4
   33    32     1     0     0
SMALL
bcc


@<TRIPOS>ATOM
      1 CA         -0.2030   -0.5410    0.3790 c3        1 CH4     -0.191700
      2 CB1         1.3360   -0.4370    0.3380 c3        1 CH4      0.174800
      3 NG1         1.8210    0.1450    1.6130 n3        1 CH4     -0.829700
      4 CD1         3.2330    0.5890    1.4580 c3        1 CH4      0.161800
      5 CE1         3.7040    1.3030    2.7720 c3        1 CH4      0.156300
      6 NZ1         5.0740    1.7560    2.6130 n3        1 CH4     -0.916800
      7 CB2        -0.7450   -0.5410   -1.0290 c3        1 CH4      0.174800
      8 NG2        -2.1210   -0.1120   -1.0180 n3        1 CH4     -0.829700
      9 CD2        -2.6980   -0.3330   -2.3120 c3        1 CH4      0.161800
     10 CE2        -4.1930   -0.0180   -2.2660 c3        1 CH4      0.156300
     11 NZ2        -4.7580   -0.2200   -3.5450 n3        1 CH4     -0.916800
     12 C          -0.6090   -1.8460    1.0840 c         1 CH4      0.575900
     13 O          -1.3810   -1.8130    2.0320 o         1 CH4     -0.543100
     14 HA         -0.5600    0.2060    0.8590 hc        1 CH4      0.088700
     15 HB12        1.6070    0.1390   -0.4110 h1        1 CH4      0.037200
     16 HB13        1.7190   -1.3260    0.2190 h1        1 CH4      0.037200
     17 HG1         1.7680   -0.4930    2.2840 hn        1 CH4      0.365800
     18 HD12        3.8030   -0.1880    1.2870 h1        1 CH4      0.036450
     19 HD13        3.2990    1.2110    0.7100 h1        1 CH4      0.036450
     20 HE12        3.1210    2.0760    2.9520 h1        1 CH4      0.031700
     21 HE13        3.6530    0.6750    3.5210 h1        1 CH4      0.031700
     22 HZ11        5.6130    1.3360    3.2370 hn        1 CH4      0.351050
     23 HZ12        5.1130    2.6580    2.7380 hn        1 CH4      0.351050
     24 HB22       -0.6910   -1.4380   -1.3970 h1        1 CH4      0.037200
     25 HB23       -0.2190    0.0690   -1.5780 h1        1 CH4      0.037200
     26 HG2        -2.1620    0.7670   -0.8180 hn        1 CH4      0.365800
     27 HD22       -2.5680   -1.2730   -2.5720 h1        1 CH4      0.036450
     28 HD23       -2.2540    0.2610   -2.9790 h1        1 CH4      0.036450
     29 HE22       -4.3210    0.9160   -1.9950 h1        1 CH4      0.031700
     30 HE23       -4.6370   -0.6160   -1.6110 h1        1 CH4      0.031700
     31 HZ21       -5.0370    0.5810   -3.8850 hn        1 CH4      0.351050
     32 HZ22       -5.4800   -0.7920   -3.4750 hn        1 CH4      0.351050
     33 H          -0.2240   -2.7010    0.7930 h4        1 CH4      0.020200
@<TRIPOS>BOND
     1    1    2 1   
     2    1    7 1   
     3    1   12 1   
     4    1   14 1   
     5    2    3 1   
     6    2   15 1   
     7    2   16 1   
     8    3    4 1   
     9    3   17 1   
    10    4    5 1   
    11    4   18 1   
    12    4   19 1   
    13    5    6 1   
    14    5   20 1   
    15    5   21 1   
    16    6   22 1   
    17    6   23 1   
    18    7    8 1   
    19    7   24 1   
    20    7   25 1   
    21    8    9 1   
    22    8   26 1   
    23    9   10 1   
    24    9   27 1   
    25    9   28 1   
    26   10   11 1   
    27   10   29 1   
    28   10   30 1   
    29   11   31 1   
    30   11   32 1   
    31   12   13 2   
    32   12   33 1   
@<TRIPOS>SUBSTRUCTURE
     1 CH4         1 TEMP              0 ****  ****    0 ROOT
