@<TRIPOS>MOLECULE
CH4
   37    36     1     0     0
SMALL
bcc


@<TRIPOS>ATOM
      1 CA         -0.0580   -0.1010    0.0910 c3        1 CH4     -0.249700
      2 CB1         1.4830   -0.0980    0.0710 c3        1 CH4      0.120300
      3 NG1         2.1180    0.0340    1.4290 n4        1 CH4     -0.767000
      4 CD1         3.6150   -0.0530    1.3530 c3        1 CH4      0.081300
      5 CE1         4.2820    0.0720    2.7470 c3        1 CH4      0.076800
      6 NZ1         5.7640   -0.0280    2.7050 n4        1 CH4     -0.835600
      7 CB2        -0.5560    0.1790   -1.3470 c3        1 CH4      0.120300
      8 NG2        -2.0480    0.3210   -1.4660 n4        1 CH4     -0.767000
      9 CD2        -2.4870    0.4700   -2.8910 c3        1 CH4      0.081300
     10 CE2        -4.0310    0.5250   -3.0160 c3        1 CH4      0.076800
     11 NZ2        -4.5090    0.6250   -4.4190 n4        1 CH4     -0.835600
     12 C          -0.5960   -1.4310    0.6150 c         1 CH4      0.565900
     13 O          -1.6750   -1.8590    0.2200 o         1 CH4     -0.452100
     14 HA         -0.4400    0.7100    0.7810 hc        1 CH4      0.123700
     15 HB12        1.8560    0.7650   -0.5570 hx        1 CH4      0.134450
     16 HB13        1.8540   -1.0640   -0.3890 hx        1 CH4      0.134450
     17 HG1         1.7670   -0.7130    2.0470 hn        1 CH4      0.480050
     18 HD12        3.8800   -1.0480    0.8810 hx        1 CH4      0.139700
     19 HD13        3.9750    0.7760    0.6720 hx        1 CH4      0.139700
     20 HE12        4.0240    1.0730    3.2140 hx        1 CH4      0.146450
     21 HE13        3.9080   -0.7490    3.4350 hx        1 CH4      0.146450
     22 HZ11        6.1810    0.7220    2.1330 hn        1 CH4      0.498800
     23 HZ12        6.1330    0.0650    3.6720 hn        1 CH4      0.498800
     24 HB22       -0.2440   -0.6790   -2.0150 hx        1 CH4      0.134450
     25 HB23       -0.0920    1.1340   -1.7330 hx        1 CH4      0.134450
     26 HG2        -2.5010   -0.5250   -1.0600 hn        1 CH4      0.480050
     27 HD22       -2.0820   -0.4120   -3.4730 hx        1 CH4      0.139700
     28 HD23       -2.0270    1.4180   -3.3030 hx        1 CH4      0.139700
     29 HE22       -4.4360    1.4240   -2.4560 hx        1 CH4      0.146450
     30 HE23       -4.4930   -0.4100   -2.5680 hx        1 CH4      0.146450
     31 HZ21       -4.1640    1.4810   -4.8780 hn        1 CH4      0.498800
     32 HZ22       -4.2190   -0.1910   -4.9780 hn        1 CH4      0.498800
     33 H           0.0220   -1.9630    1.3670 h4        1 CH4      0.063200
     34 HG12        1.8510    0.9400    1.8450 hn        1 CH4      0.480050
     35 HZ13        6.0740   -0.9390    2.3340 hn        1 CH4      0.498800
     36 HG22       -2.3600    1.1390   -0.9240 hn        1 CH4      0.480050
     37 HZ23       -5.5470    0.6590   -4.4180 hn        1 CH4      0.498800
@<TRIPOS>BOND
     1    1    2 1   
     2    1    7 1   
     3    1   12 1   
     4    1   14 1   
     5    2    3 1   
     6    2   15 1   
     7    2   16 1   
     8    3    4 1   
     9    3   17 1   
    10    3   34 1   
    11    4    5 1   
    12    4   18 1   
    13    4   19 1   
    14    5    6 1   
    15    5   20 1   
    16    5   21 1   
    17    6   22 1   
    18    6   23 1   
    19    6   35 1   
    20    7    8 1   
    21    7   24 1   
    22    7   25 1   
    23    8    9 1   
    24    8   26 1   
    25    8   36 1   
    26    9   10 1   
    27    9   27 1   
    28    9   28 1   
    29   10   11 1   
    30   10   29 1   
    31   10   30 1   
    32   11   31 1   
    33   11   32 1   
    34   11   37 1   
    35   12   13 2   
    36   12   33 1   
@<TRIPOS>SUBSTRUCTURE
     1 CH4         1 TEMP              0 ****  ****    0 ROOT
