@<TRIPOS>MOLECULE
CH5
   36    35     1     0     0
SMALL
bcc


@<TRIPOS>ATOM
      1 C1          2.0650   -0.5170   -0.3100 c3        1 CH5      0.132400
      2 C2          2.9330    0.6070    0.2530 c3        1 CH5      0.102100
      3 C3          4.2690    0.0540    0.7560 c3        1 CH5      0.132400
      4 C4         -2.2330   -1.6010   -0.1080 c3        1 CH5      0.199400
      5 C5         -3.0720   -0.5970    0.7060 c3        1 CH5      0.091800
      6 C6         -3.9180    0.6120   -1.2820 c3        1 CH5      0.079100
      7 C7         -2.0870    1.5630    0.0210 c3        1 CH5      0.079100
      8 C8         -4.3220    1.4640    0.9540 c3        1 CH5      0.079100
      9 N          -3.3370    0.7510    0.0850 n4        1 CH5     -0.581800
     10 O2          3.2440    1.5790   -0.7360 oh        1 CH5     -0.623800
     11 O3          5.0410    1.0650    1.3700 oh        1 CH5     -0.605800
     12 O1P        -1.1540   -0.2770   -2.2300 o         1 CH5     -0.816000
     13 O2P         0.5910   -2.2630   -1.9010 o         1 CH5     -0.816000
     14 O3P         0.9360    0.0650   -0.9120 os        1 CH5     -0.582200
     15 O4P        -0.8920   -1.2890   -0.0450 os        1 CH5     -0.574200
     16 P          -0.1080   -1.0400   -1.5090 p5        1 CH5      1.438800
     17 H11         1.7240   -1.2030    0.5110 h1        1 CH5      0.053200
     18 H12         2.6160   -1.1140   -1.0870 h1        1 CH5      0.053200
     19 H2          2.3890    1.1240    1.0930 h1        1 CH5      0.042700
     20 H31         4.0930   -0.7110    1.5560 h1        1 CH5      0.051200
     21 H32         4.8390   -0.4030   -0.0960 h1        1 CH5      0.051200
     22 H41        -2.4020   -2.5950    0.4060 h1        1 CH5      0.054200
     23 H42        -2.5970   -1.6600   -1.1720 h1        1 CH5      0.054200
     24 H51        -2.5360   -0.4090    1.6790 hx        1 CH5      0.080200
     25 H52        -4.0760   -1.0640    0.9060 hx        1 CH5      0.080200
     26 H61        -3.1120    0.2910   -2.0130 hx        1 CH5      0.100256
     27 H62        -4.7390   -0.1490   -1.2560 hx        1 CH5      0.100256
     28 H63        -4.3250    1.6040   -1.6070 hx        1 CH5      0.100256
     29 H71        -2.3260    2.5680   -0.4120 hx        1 CH5      0.100256
     30 H72        -1.6620    1.6700    1.0510 hx        1 CH5      0.100256
     31 H73        -1.3380    1.0320   -0.6470 hx        1 CH5      0.100256
     32 H81        -5.2940    0.9060    0.9560 hx        1 CH5      0.100256
     33 H82        -3.9200    1.5260    1.9990 hx        1 CH5      0.100256
     34 H83        -4.4870    2.4990    0.5570 hx        1 CH5      0.100256
     35 HO2         2.4490    1.6970   -1.2730 ho        1 CH5      0.429000
     36 HO3         5.1240    1.7820    0.7270 ho        1 CH5      0.415000
@<TRIPOS>BOND
     1    1    2 1   
     2    1   14 1   
     3    1   17 1   
     4    1   18 1   
     5    2    3 1   
     6    2   10 1   
     7    2   19 1   
     8    3   11 1   
     9    3   20 1   
    10    3   21 1   
    11    4    5 1   
    12    4   15 1   
    13    4   22 1   
    14    4   23 1   
    15    5    9 1   
    16    5   24 1   
    17    5   25 1   
    18    6    9 1   
    19    6   26 1   
    20    6   27 1   
    21    6   28 1   
    22    7    9 1   
    23    7   29 1   
    24    7   30 1   
    25    7   31 1   
    26    8    9 1   
    27    8   32 1   
    28    8   33 1   
    29    8   34 1   
    30   10   35 1   
    31   11   36 1   
    32   12   16 1   
    33   13   16 1   
    34   14   16 1   
    35   15   16 1   
@<TRIPOS>SUBSTRUCTURE
     1 CH5         1 TEMP              0 ****  ****    0 ROOT
