@<TRIPOS>MOLECULE
CH5
   36    35     1     0     0
SMALL
bcc


@<TRIPOS>ATOM
      1 C1         -0.4180   -0.1270   -0.1070 c3        1 CH5      0.132400
      2 C2          1.0400   -0.1340   -0.5600 c3        1 CH5      0.102100
      3 C3          1.8970    0.7280    0.3710 c3        1 CH5      0.132400
      4 C4         -4.3600    0.1260   -2.1300 c3        1 CH5      0.199400
      5 C5         -4.2470    0.2040   -3.6650 c3        1 CH5      0.091800
      6 C6         -4.7080   -2.2020   -4.0200 c3        1 CH5      0.079100
      7 C7         -2.4100   -1.3850   -4.1230 c3        1 CH5      0.079100
      8 C8         -3.9930   -0.7900   -5.8600 c3        1 CH5      0.079100
      9 N          -3.8390   -1.0490   -4.3960 n4        1 CH5     -0.581800
     10 O2          1.5980   -1.4400   -0.5290 oh        1 CH5     -0.623800
     11 O3          3.2280    0.8130   -0.0920 oh        1 CH5     -0.605800
     12 O1P        -3.2760   -2.2400   -1.3230 o         1 CH5     -0.816000
     13 O2P        -2.9580   -0.7400    0.8560 o         1 CH5     -0.816000
     14 O3P        -1.1190   -1.0650   -0.8850 os        1 CH5     -0.582200
     15 O4P        -3.1130    0.1670   -1.5420 os        1 CH5     -0.574200
     16 P          -2.7140   -1.1170   -0.5360 p5        1 CH5      1.438800
     17 H11        -0.8770    0.8860   -0.2620 h1        1 CH5      0.053200
     18 H12        -0.5140   -0.4180    0.9750 h1        1 CH5      0.053200
     19 H2          1.1130    0.2520   -1.6160 h1        1 CH5      0.042700
     20 H31         1.5180    1.7830    0.3780 h1        1 CH5      0.051200
     21 H32         1.8770    0.3040    1.4100 h1        1 CH5      0.051200
     22 H41        -4.9380   -0.7870   -1.8150 h1        1 CH5      0.054200
     23 H42        -4.9330    1.0570   -1.8400 h1        1 CH5      0.054200
     24 H51        -5.2520    0.5040   -4.0730 hx        1 CH5      0.080200
     25 H52        -3.4820    0.9930   -3.9150 hx        1 CH5      0.080200
     26 H61        -4.4360   -2.5670   -2.9810 hx        1 CH5      0.100256
     27 H62        -5.7790   -1.8780   -4.0460 hx        1 CH5      0.100256
     28 H63        -4.5410   -3.0360   -4.7500 hx        1 CH5      0.100256
     29 H71        -2.2880   -1.5940   -3.0140 hx        1 CH5      0.100256
     30 H72        -2.1320   -2.2980   -4.7070 hx        1 CH5      0.100256
     31 H73        -1.7640   -0.5180   -4.4160 hx        1 CH5      0.100256
     32 H81        -3.6300   -1.6810   -6.4360 hx        1 CH5      0.100256
     33 H82        -3.3880    0.1100   -6.1450 hx        1 CH5      0.100256
     34 H83        -5.0740   -0.6080   -6.0970 hx        1 CH5      0.100256
     35 HO2         0.9100   -2.0460   -0.8370 ho        1 CH5      0.429000
     36 HO3         3.5460   -0.0930   -0.1990 ho        1 CH5      0.415000
@<TRIPOS>BOND
     1    1    2 1   
     2    1   14 1   
     3    1   17 1   
     4    1   18 1   
     5    2    3 1   
     6    2   10 1   
     7    2   19 1   
     8    3   11 1   
     9    3   20 1   
    10    3   21 1   
    11    4    5 1   
    12    4   15 1   
    13    4   22 1   
    14    4   23 1   
    15    5    9 1   
    16    5   24 1   
    17    5   25 1   
    18    6    9 1   
    19    6   26 1   
    20    6   27 1   
    21    6   28 1   
    22    7    9 1   
    23    7   29 1   
    24    7   30 1   
    25    7   31 1   
    26    8    9 1   
    27    8   32 1   
    28    8   33 1   
    29    8   34 1   
    30   10   35 1   
    31   11   36 1   
    32   12   16 1   
    33   13   16 1   
    34   14   16 1   
    35   15   16 1   
@<TRIPOS>SUBSTRUCTURE
     1 CH5         1 TEMP              0 ****  ****    0 ROOT
