@<TRIPOS>MOLECULE
CH5
   36    35     1     0     0
SMALL
bcc


@<TRIPOS>ATOM
      1 C1         -0.4140   -0.2060   -0.0950 c3        1 CH5      0.132400
      2 C2          1.0350   -0.0920   -0.5630 c3        1 CH5      0.102100
      3 C3          1.8540    0.7430    0.4250 c3        1 CH5      0.132400
      4 C4         -4.3960   -0.0290   -2.0460 c3        1 CH5      0.199400
      5 C5         -4.3110    0.1770   -3.5720 c3        1 CH5      0.091800
      6 C6         -4.6370   -2.2170   -4.1120 c3        1 CH5      0.079100
      7 C7         -2.3930   -1.2590   -4.1750 c3        1 CH5      0.079100
      8 C8         -4.0350   -0.6240   -5.8410 c3        1 CH5      0.079100
      9 N          -3.8430   -0.9880   -4.4050 n4        1 CH5     -0.581800
     10 O2          1.6670   -1.3620   -0.6400 oh        1 CH5     -0.623800
     11 O3          3.1710    0.9420   -0.0450 oh        1 CH5     -0.605800
     12 O1P        -3.1640   -2.3820   -1.4420 o         1 CH5     -0.816000
     13 O2P        -2.8990   -1.0420    0.8450 o         1 CH5     -0.816000
     14 O3P        -1.0720   -1.1200   -0.9370 os        1 CH5     -0.582200
     15 O4P        -3.1450    0.0400   -1.4700 os        1 CH5     -0.574200
     16 P          -2.6550   -1.2930   -0.5740 p5        1 CH5      1.438800
     17 H11        -0.9330    0.7870   -0.1640 h1        1 CH5      0.053200
     18 H12        -0.4770   -0.5860    0.9620 h1        1 CH5      0.053200
     19 H2          1.0690    0.3790   -1.5860 h1        1 CH5      0.042700
     20 H31         1.4150    1.7710    0.5190 h1        1 CH5      0.051200
     21 H32         1.8750    0.2390    1.4270 h1        1 CH5      0.051200
     22 H41        -4.9150   -0.9960   -1.7990 h1        1 CH5      0.054200
     23 H42        -5.0170    0.8420   -1.6770 h1        1 CH5      0.054200
     24 H51        -5.3390    0.4480   -3.9430 hx        1 CH5      0.080200
     25 H52        -3.5980    1.0270   -3.7670 hx        1 CH5      0.080200
     26 H61        -4.3290   -2.6450   -3.1080 hx        1 CH5      0.100256
     27 H62        -5.7260   -1.9550   -4.1010 hx        1 CH5      0.100256
     28 H63        -4.4340   -2.9790   -4.9080 hx        1 CH5      0.100256
     29 H71        -2.2420   -1.5480   -3.0870 hx        1 CH5      0.100256
     30 H72        -2.0710   -2.1060   -4.8330 hx        1 CH5      0.100256
     31 H73        -1.8030   -0.3360   -4.4050 hx        1 CH5      0.100256
     32 H81        -3.6300   -1.4440   -6.4900 hx        1 CH5      0.100256
     33 H82        -3.4870    0.3300   -6.0600 hx        1 CH5      0.100256
     34 H83        -5.1280   -0.4880   -6.0510 hx        1 CH5      0.100256
     35 HO2         1.0110   -1.9810   -0.9880 ho        1 CH5      0.429000
     36 HO3         3.5390    0.0670   -0.2260 ho        1 CH5      0.415000
@<TRIPOS>BOND
     1    1    2 1   
     2    1   14 1   
     3    1   17 1   
     4    1   18 1   
     5    2    3 1   
     6    2   10 1   
     7    2   19 1   
     8    3   11 1   
     9    3   20 1   
    10    3   21 1   
    11    4    5 1   
    12    4   15 1   
    13    4   22 1   
    14    4   23 1   
    15    5    9 1   
    16    5   24 1   
    17    5   25 1   
    18    6    9 1   
    19    6   26 1   
    20    6   27 1   
    21    6   28 1   
    22    7    9 1   
    23    7   29 1   
    24    7   30 1   
    25    7   31 1   
    26    8    9 1   
    27    8   32 1   
    28    8   33 1   
    29    8   34 1   
    30   10   35 1   
    31   11   36 1   
    32   12   16 1   
    33   13   16 1   
    34   14   16 1   
    35   15   16 1   
@<TRIPOS>SUBSTRUCTURE
     1 CH5         1 TEMP              0 ****  ****    0 ROOT
