@<TRIPOS>MOLECULE
CH5
   36    35     1     0     0
SMALL
bcc


@<TRIPOS>ATOM
      1 C1         -0.4290   -0.1460   -0.0950 c3        1 CH5      0.132400
      2 C2          1.0280   -0.0880   -0.5510 c3        1 CH5      0.102100
      3 C3          1.8590    0.7670    0.4090 c3        1 CH5      0.132400
      4 C4         -4.3830    0.0430   -2.1030 c3        1 CH5      0.199400
      5 C5         -4.2760    0.1750   -3.6350 c3        1 CH5      0.091800
      6 C6         -4.6580   -2.2330   -4.0670 c3        1 CH5      0.079100
      7 C7         -2.3890   -1.3370   -4.1470 c3        1 CH5      0.079100
      8 C8         -3.9960   -0.7390   -5.8610 c3        1 CH5      0.079100
      9 N          -3.8290   -1.0400   -4.4070 n4        1 CH5     -0.581800
     10 O2          1.6270   -1.3770   -0.5670 oh        1 CH5     -0.623800
     11 O3          3.1850    0.9130   -0.0550 oh        1 CH5     -0.605800
     12 O1P        -3.2190   -2.3090   -1.3750 o         1 CH5     -0.816000
     13 O2P        -2.9450   -0.8710    0.8510 o         1 CH5     -0.816000
     14 O3P        -1.1010   -1.0790   -0.9030 os        1 CH5     -0.582200
     15 O4P        -3.1370    0.1070   -1.5150 os        1 CH5     -0.574200
     16 P          -2.6920   -1.1950   -0.5520 p5        1 CH5      1.438800
     17 H11        -0.9210    0.8560   -0.2130 h1        1 CH5      0.053200
     18 H12        -0.5120   -0.4760    0.9770 h1        1 CH5      0.053200
     19 H2          1.0840    0.3360   -1.5930 h1        1 CH5      0.042700
     20 H31         1.4450    1.8090    0.4540 h1        1 CH5      0.051200
     21 H32         1.8560    0.3070    1.4320 h1        1 CH5      0.051200
     22 H41        -4.9300   -0.8980   -1.8170 h1        1 CH5      0.054200
     23 H42        -4.9850    0.9450   -1.7820 h1        1 CH5      0.054200
     24 H51        -3.5380    0.9960   -3.8600 hx        1 CH5      0.080200
     25 H52        -5.2920    0.4540   -4.0310 hx        1 CH5      0.080200
     26 H61        -5.7400   -1.9430   -4.0810 hx        1 CH5      0.100256
     27 H62        -4.4660   -3.0370   -4.8240 hx        1 CH5      0.100256
     28 H63        -4.3720   -2.6220   -3.0410 hx        1 CH5      0.100256
     29 H71        -2.0830   -2.2210   -4.7610 hx        1 CH5      0.100256
     30 H72        -2.2580   -1.5770   -3.0450 hx        1 CH5      0.100256
     31 H73        -1.7730   -0.4400   -4.4130 hx        1 CH5      0.100256
     32 H81        -3.6050   -1.5980   -6.4660 hx        1 CH5      0.100256
     33 H82        -5.0820   -0.5850   -6.0900 hx        1 CH5      0.100256
     34 H83        -3.4210    0.1890   -6.1180 hx        1 CH5      0.100256
     35 HO2         0.9590   -1.9940   -0.8940 ho        1 CH5      0.429000
     36 HO3         3.5320    0.0220   -0.1940 ho        1 CH5      0.415000
@<TRIPOS>BOND
     1    1    2 1   
     2    1   14 1   
     3    1   17 1   
     4    1   18 1   
     5    2    3 1   
     6    2   10 1   
     7    2   19 1   
     8    3   11 1   
     9    3   20 1   
    10    3   21 1   
    11    4    5 1   
    12    4   15 1   
    13    4   22 1   
    14    4   23 1   
    15    5    9 1   
    16    5   24 1   
    17    5   25 1   
    18    6    9 1   
    19    6   26 1   
    20    6   27 1   
    21    6   28 1   
    22    7    9 1   
    23    7   29 1   
    24    7   30 1   
    25    7   31 1   
    26    8    9 1   
    27    8   32 1   
    28    8   33 1   
    29    8   34 1   
    30   10   35 1   
    31   11   36 1   
    32   12   16 1   
    33   13   16 1   
    34   14   16 1   
    35   15   16 1   
@<TRIPOS>SUBSTRUCTURE
     1 CH5         1 TEMP              0 ****  ****    0 ROOT
