@<TRIPOS>MOLECULE
CH6
   42    43     1     0     0
SMALL
bcc


@<TRIPOS>ATOM
      1 N1         -0.9340    1.2980    2.8370 n3        1 CH6     -0.894800
      2 CE         -5.0280    2.1650   -1.0220 c3        1 CH6     -0.037000
      3 SD         -4.2050    3.3240    0.0210 ss        1 CH6     -0.387200
      4 CB1        -2.1400    1.6670    0.6840 c3        1 CH6     -0.073400
      5 CA1        -1.5650    0.6630    1.7020 c3        1 CH6      0.134200
      6 C1         -0.6280   -0.2710    0.9280 cc        1 CH6      0.453900
      7 N2          0.6520    0.0260    0.6650 nd        1 CH6     -0.670300
      8 CD2         3.4340    1.0070   -0.3910 ca        1 CH6     -0.074000
      9 CE2         4.5640    1.8190   -0.3180 ca        1 CH6     -0.194500
     10 CZ          5.8370    1.2350   -0.3340 ca        1 CH6      0.114100
     11 CE1         5.9860   -0.1580   -0.4300 ca        1 CH6     -0.194500
     12 CD1         4.8500   -0.9530   -0.5060 ca        1 CH6     -0.074000
     13 CG2         3.5610   -0.3870   -0.4790 ca        1 CH6     -0.073800
     14 CA2         1.1840   -1.0710   -0.0710 cd        1 CH6      0.034400
     15 C2          0.0700   -2.1070   -0.2280 c         1 CH6      0.665700
     16 O2          0.1210   -3.2120   -0.7780 o         1 CH6     -0.602500
     17 N3         -1.0380   -1.5410    0.4540 n         1 CH6     -0.380300
     18 CA3        -2.3600   -2.0980    0.4830 c3        1 CH6     -0.033000
     19 C3         -3.5010   -1.1340    0.0480 c         1 CH6      0.895600
     20 O3         -3.5530   -0.7630   -1.1550 o         1 CH6     -0.825300
     21 OXT        -4.3210   -0.7840    0.9430 o         1 CH6     -0.825300
     22 HN11       -0.4860    0.6150    3.4140 hn        1 CH6      0.348300
     23 HN12       -0.2510    1.9680    2.5390 hn        1 CH6      0.348300
     24 HE1A       -4.8290    2.4460   -2.0790 h1        1 CH6      0.077033
     25 HE2A       -4.6670    1.1150   -0.8500 h1        1 CH6      0.077033
     26 HE3        -6.1220    2.2030   -0.8300 h1        1 CH6      0.077033
     27 HG11       -3.1940    2.9450    2.0940 h1        1 CH6      0.088700
     28 HG12       -4.1090    1.4690    1.5300 h1        1 CH6      0.088700
     29 HB11       -2.3840    1.1000   -0.2600 hc        1 CH6      0.071700
     30 HB12       -1.3830    2.4530    0.4350 hc        1 CH6      0.071700
     31 HA1        -2.4300    0.0360    2.0960 h1        1 CH6      0.126700
     32 HOH         6.7430    2.9090   -0.1920 ho        1 CH6      0.414000
     33 HD2         2.4370    1.4740   -0.3850 ha        1 CH6      0.149500
     34 HE2         4.4550    2.9100   -0.2470 ha        1 CH6      0.135000
     35 HE1         6.9920   -0.5980   -0.4440 ha        1 CH6      0.135000
     36 HD1         4.9580   -2.0450   -0.5830 ha        1 CH6      0.149500
     37 HA31       -2.3720   -2.9850   -0.2090 h1        1 CH6      0.053200
     38 HA32       -2.5700   -2.4470    1.5340 h1        1 CH6      0.053200
     39 CB2         2.4180   -1.2730   -0.5680 ce        1 CH6     -0.061200
     40 HB2         2.5980   -2.2310   -1.0930 ha        1 CH6      0.141000
     41 CG1        -3.4050    2.2870    1.2180 c3        1 CH6      0.005700
     42 OH          6.9960    1.9780   -0.2630 oh        1 CH6     -0.508100
@<TRIPOS>BOND
     1    1    5 1   
     2    1   22 1   
     3    1   23 1   
     4    2    3 1   
     5    2   24 1   
     6    2   25 1   
     7    2   26 1   
     8    3   41 1   
     9    4    5 1   
    10    4   29 1   
    11    4   30 1   
    12    4   41 1   
    13    5    6 1   
    14    5   31 1   
    15    6    7 2   
    16    6   17 1   
    17    7   14 1   
    18    8    9 ar  
    19    8   13 ar  
    20    8   33 1   
    21    9   10 ar  
    22    9   34 1   
    23   10   11 ar  
    24   10   42 1   
    25   11   12 ar  
    26   11   35 1   
    27   12   13 ar  
    28   12   36 1   
    29   13   39 1   
    30   14   15 1   
    31   14   39 2   
    32   15   16 2   
    33   15   17 1   
    34   17   18 1   
    35   18   19 1   
    36   18   37 1   
    37   18   38 1   
    38   19   20 1   
    39   19   21 1   
    40   27   41 1   
    41   28   41 1   
    42   32   42 1   
    43   39   40 1   
@<TRIPOS>SUBSTRUCTURE
     1 CH6         1 TEMP              0 ****  ****    0 ROOT
