@<TRIPOS>MOLECULE
CH6
   42    39     1     0     0
SMALL
bcc


@<TRIPOS>ATOM
      1 N1          0.2540    2.8090    1.2180 n3        1 CH6     -0.361000
      2 CE         -4.7890    5.7570    0.3630 c3        1 CH6     -0.334000
      3 SD         -3.7800    4.5590   -0.5380 ss        1 CH6     -0.024000
      4 CG1        -2.6090    3.8130    0.5750 c3        1 CH6     -0.245000
      5 CB1        -1.6610    2.9070   -0.2140 c3        1 CH6     -0.169000
      6 CA1        -0.8480    2.0620    0.7470 c3        1 CH6      0.048000
      7 C1         -0.3440    0.8140    0.0240 c2        1 CH6      0.076000
      8 N2         -0.8570   -0.3620    0.3090 n1        1 CH6     -0.223000
      9 OH          3.3450   -7.0900    0.5470 oh        1 CH6     -0.258000
     10 CD2         1.3670   -4.4400   -1.0640 c1        1 CH6     -0.054000
     11 CE2         2.1690   -5.5830   -0.8940 c1        1 CH6     -0.159000
     12 CZ          2.4850   -6.0300    0.3860 c2        1 CH6      0.071000
     13 CE1         2.0010   -5.3360    1.5140 c2        1 CH6     -0.226000
     14 CD1         1.2060   -4.2030    1.3450 c1        1 CH6     -0.086000
     15 CG2         0.8880   -3.7530    0.0490 c1        1 CH6     -0.074000
     16 CB2        -0.2190   -2.7300    0.3310 c2        1 CH6     -0.063000
     17 CA2         0.0080   -1.4050    0.1130 c1        1 CH6     -0.089000
     18 C2          1.3210   -0.7340   -0.4200 c2        1 CH6      0.309000
     19 O2          2.2190   -1.2950   -1.0700 o         1 CH6     -0.326000
     20 N3          0.9870    0.7600   -0.4450 n         1 CH6     -0.278000
     21 CA3         1.6360    1.7480   -1.2340 c3        1 CH6     -0.104000
     22 C3          1.8680    1.2060   -2.6360 c1        1 CH6      0.313000
     23 O3          0.9040    0.7760   -3.3080 o         1 CH6     -0.544000
     24 OXT         3.0330    1.2570   -3.1530 os        1 CH6     -0.576000
     25 HN11        0.7100    2.3180    1.8540 hn        1 CH6      0.172500
     26 HN12       -0.0500    3.6080    1.6000 hn        1 CH6      0.172500
     27 HE1A       -4.2100    6.5000    0.6920 h1        1 CH6      0.116000
     28 HE2A       -5.4980    6.1300   -0.2510 h1        1 CH6      0.116000
     29 HE3        -5.2170    5.3140    1.1250 h1        1 CH6      0.116000
     30 HG11       -2.0990    4.5050    1.0170 h1        1 CH6      0.124000
     31 HG12       -3.0900    3.2780    1.2470 h1        1 CH6      0.124000
     32 HB11       -1.0440    3.4700   -0.7670 hc        1 CH6      0.114500
     33 HB12       -2.1910    2.3150   -0.8090 hc        1 CH6      0.114500
     34 HA1        -1.3910    1.8070    1.4780 h1        1 CH6      0.105000
     35 HOH         4.1580   -6.7840    0.7710 ho        1 CH6      0.209000
     36 HD2         1.2310   -4.0850   -1.9320 ha        1 CH6      0.170000
     37 HE2         2.5660   -6.0210   -1.6750 ha        1 CH6      0.149000
     38 HE1         2.2960   -5.6090    2.4320 ha        1 CH6      0.123000
     39 HD1         0.8200   -3.7660    2.1160 ha        1 CH6      0.129000
     40 HB2        -1.1080   -3.0360    0.6760 ha        1 CH6      0.136000
     41 HA31        2.4780    1.9730   -0.8350 h1        1 CH6      0.092500
     42 HA32        1.0540    2.5750   -1.2840 h1        1 CH6      0.092500
@<TRIPOS>BOND
     1    1    6 1   
     2    1   25 1   
     3    1   26 1   
     4    2    3 1   
     5    2   27 1   
     6    2   28 1   
     7    2   29 1   
     8    3    4 1   
     9    4    5 1   
    10    4   30 1   
    11    4   31 1   
    12    5    6 1   
    13    5   32 1   
    14    5   33 1   
    15    6    7 1   
    16    6   34 1   
    17    7    8 1   
    18    7   20 1   
    19    9   12 1   
    20    9   35 1   
    21   10   15 1   
    22   10   36 1   
    23   11   12 1   
    24   11   37 1   
    25   12   13 1   
    26   13   14 1   
    27   13   38 1   
    28   14   39 1   
    29   15   16 1   
    30   16   17 1   
    31   16   40 1   
    32   17   18 1   
    33   18   19 1   
    34   18   20 1   
    35   20   21 1   
    36   21   22 1   
    37   21   41 1   
    38   21   42 1   
    39   22   23 1   
@<TRIPOS>SUBSTRUCTURE
     1 CH6         1 TEMP              0 ****  ****    0 ROOT
