@<TRIPOS>MOLECULE
CH7
   40    42     1     0     0
SMALL
bcc


@<TRIPOS>ATOM
      1 NZ          2.2000    1.7440   -0.4450 n2        1 CH7     -0.546900
      2 CA1         2.0140    0.8430    0.4610 ce        1 CH7      0.409000
      3 CB          2.6360    0.7880    1.8300 c3        1 CH7     -0.156700
      4 CG          3.2240    2.1320    2.2180 c3        1 CH7     -0.089400
      5 CD          3.9490    2.7790    1.0580 c3        1 CH7     -0.103400
      6 CE          3.0320    2.8810   -0.1600 c3        1 CH7      0.104800
      7 C1          1.1150   -0.3090    0.1460 cc        1 CH7      0.464600
      8 N2          1.3910   -1.1930   -0.8240 nd        1 CH7     -0.639300
      9 CD2         1.8150   -2.8850   -3.4130 ca        1 CH7     -0.073000
     10 CE2         2.5960   -3.4120   -4.4390 ca        1 CH7     -0.195500
     11 CZ          2.5180   -4.7790   -4.7360 ca        1 CH7      0.114100
     12 CE1         1.6550   -5.6210   -4.0160 ca        1 CH7     -0.195500
     13 CD1         0.8810   -5.0790   -2.9990 ca        1 CH7     -0.073000
     14 CG2         0.9530   -3.7110   -2.6760 ca        1 CH7     -0.074800
     15 CA2         0.3210   -2.1330   -0.8300 cd        1 CH7      0.029400
     16 C2         -0.6570   -1.7280    0.2720 c         1 CH7      0.659700
     17 O2         -1.7060   -2.2880    0.6080 o         1 CH7     -0.606500
     18 N3         -0.0820   -0.5690    0.8550 n         1 CH7     -0.372300
     19 CA3        -0.6740    0.1410    1.9530 c3        1 CH7     -0.039000
     20 C3         -0.5030    1.6930    1.9770 c         1 CH7      0.906600
     21 O3         -1.0760    2.3730    1.0910 o         1 CH7     -0.818800
     22 OXT         0.1660    2.1560    2.9430 o         1 CH7     -0.818800
     23 HB1         1.8480    0.5200    2.5870 hc        1 CH7      0.071700
     24 HB2A        3.4250   -0.0090    1.8260 hc        1 CH7      0.071700
     25 HG1         2.3760    2.7920    2.5590 hc        1 CH7      0.068200
     26 HG2         3.9250    1.9980    3.0800 hc        1 CH7      0.068200
     27 HD1A        4.2910    3.8050    1.3460 hc        1 CH7      0.029700
     28 HD2A        4.8580    2.1790    0.7950 hc        1 CH7      0.029700
     29 HE1A        2.3350    3.7610   -0.0270 h1        1 CH7      0.063200
     30 HE2A        3.6520    3.0650   -1.0820 h1        1 CH7      0.063200
     31 HOH         3.8150   -4.6760   -6.1320 ho        1 CH7      0.413000
     32 HD2         1.8790   -1.8080   -3.1890 ha        1 CH7      0.152500
     33 HE2         3.2710   -2.7590   -5.0080 ha        1 CH7      0.134500
     34 HE1         1.6050   -6.6890   -4.2660 ha        1 CH7      0.134500
     35 HD1         0.2020   -5.7330   -2.4310 ha        1 CH7      0.152500
     36 HB2        -0.7990   -3.8080   -1.4010 ha        1 CH7      0.139000
     37 HA31       -0.2480   -0.2770    2.9100 h1        1 CH7      0.045700
     38 HA32       -1.7800   -0.0710    1.9290 h1        1 CH7      0.045700
     39 CB2         0.1130   -3.2130   -1.6060 ce        1 CH7     -0.059200
     40 OH          3.2640   -5.3650   -5.7370 oh        1 CH7     -0.509100
@<TRIPOS>BOND
     1    1    2 2   
     2    1    6 1   
     3    2    3 1   
     4    2    7 1   
     5    3    4 1   
     6    3   23 1   
     7    3   24 1   
     8    4    5 1   
     9    4   25 1   
    10    4   26 1   
    11    5    6 1   
    12    5   27 1   
    13    5   28 1   
    14    6   29 1   
    15    6   30 1   
    16    7    8 2   
    17    7   18 1   
    18    8   15 1   
    19    9   10 ar  
    20    9   14 ar  
    21    9   32 1   
    22   10   11 ar  
    23   10   33 1   
    24   11   12 ar  
    25   11   40 1   
    26   12   13 ar  
    27   12   34 1   
    28   13   14 ar  
    29   13   35 1   
    30   14   39 1   
    31   15   16 1   
    32   15   39 2   
    33   16   17 2   
    34   16   18 1   
    35   18   19 1   
    36   19   20 1   
    37   19   37 1   
    38   19   38 1   
    39   20   21 1   
    40   20   22 1   
    41   31   40 1   
    42   36   39 1   
@<TRIPOS>SUBSTRUCTURE
     1 CH7         1 TEMP              0 ****  ****    0 ROOT
