@<TRIPOS>MOLECULE
CH7
   40    36     1     0     0
SMALL
bcc


@<TRIPOS>ATOM
      1 NZ         -2.0500   -1.0810    2.4430 n1        1 CH7     -0.177000
      2 CA1        -0.4350   -0.9400    2.4780 c1        1 CH7      0.062000
      3 CB          0.1630   -0.8650    3.7810 c2        1 CH7     -0.143500
      4 CG         -0.6420   -1.7380    4.8550 c3        1 CH7     -0.171500
      5 CD         -1.8170   -1.5510    4.9020 c3        1 CH7     -0.171500
      6 CE         -2.6270   -1.7760    3.5000 c2        1 CH7     -0.143500
      7 C1          0.3220   -0.3940    1.2450 c2        1 CH7      0.159000
      8 N2          0.1520    0.8620    0.8700 n1        1 CH7     -0.215000
      9 OH          0.8900    3.4390   -6.6090 oh        1 CH7     -0.260000
     10 CD2         1.6980    2.8600   -3.1120 c1        1 CH7     -0.153500
     11 CE2         1.7950    3.3050   -4.4300 c1        1 CH7     -0.153500
     12 CZ          0.7400    3.1440   -5.2870 c1        1 CH7      0.069000
     13 CE1        -0.4290    2.5380   -4.8430 c1        1 CH7     -0.159000
     14 CD1        -0.5260    2.0950   -3.5290 c1        1 CH7     -0.059000
     15 CG2         0.5350    2.2570   -2.6690 c1        1 CH7     -0.068000
     16 CB2         0.2650    2.2300   -1.1340 c2        1 CH7     -0.069000
     17 CA2         0.3510    1.0690   -0.4560 c1        1 CH7     -0.083000
     18 C2          0.7060   -0.3500   -1.0240 c2        1 CH7      0.316000
     19 O2          0.9680   -0.6520   -2.1920 o         1 CH7     -0.324000
     20 N3          0.6650   -1.2650    0.1830 n         1 CH7     -0.249000
     21 CA3         0.4520   -2.6860    0.1570 c3        1 CH7     -0.114000
     22 C3          1.5420   -3.3500   -0.6640 c2        1 CH7      0.321000
     23 O3          2.5790   -3.8460   -0.0780 o         1 CH7     -0.562000
     24 OXT         1.4180   -3.4510   -1.8980 o         1 CH7     -0.562000
     25 HB1         1.1470   -1.0280    3.7540 ha        1 CH7      0.119000
     26 HB2A        0.1490    0.0840    4.0940 ha        1 CH7      0.119000
     27 HG1        -0.2660   -1.5480    5.7490 hc        1 CH7      0.081750
     28 HG2        -0.4960   -2.6510    4.6620 hc        1 CH7      0.081750
     29 HD1A       -2.2050   -2.1660    5.5880 hc        1 CH7      0.081750
     30 HD2A       -1.9680   -0.6330    5.1950 hc        1 CH7      0.081750
     31 HE1A       -2.7780   -2.7410    3.3240 ha        1 CH7      0.119000
     32 HE2A       -3.5240   -1.4760    3.5930 ha        1 CH7      0.119000
     33 HOH         0.6620    4.2670   -6.7500 ho        1 CH7      0.209000
     34 HD2         2.4180    2.9700   -2.5280 ha        1 CH7      0.127000
     35 HE2         2.6210    3.6840   -4.7510 ha        1 CH7      0.127000
     36 HE1        -1.2040    2.5090   -5.4180 ha        1 CH7      0.146000
     37 HD1        -1.3770    1.7190   -3.1960 ha        1 CH7      0.164000
     38 HB2         0.0310    3.0670   -0.6570 ha        1 CH7      0.135000
     39 HA31        0.4760   -3.0410    1.0840 h1        1 CH7      0.100000
     40 HA32       -0.4020   -2.8720   -0.2330 h1        1 CH7      0.100000
@<TRIPOS>BOND
     1    1    2 1   
     2    2    7 1   
     3    3    4 1   
     4    3   25 1   
     5    3   26 1   
     6    4    5 1   
     7    4   27 1   
     8    4   28 1   
     9    5    6 1   
    10    5   29 1   
    11    5   30 1   
    12    6   31 1   
    13    6   32 1   
    14    7    8 1   
    15    7   20 1   
    16    9   12 1   
    17    9   33 1   
    18   10   11 1   
    19   10   34 1   
    20   11   35 1   
    21   12   13 1   
    22   13   36 1   
    23   14   15 1   
    24   14   37 1   
    25   15   16 1   
    26   16   17 1   
    27   16   38 1   
    28   17   18 1   
    29   18   19 1   
    30   18   20 1   
    31   20   21 1   
    32   21   22 1   
    33   21   39 1   
    34   21   40 1   
    35   22   23 1   
    36   22   24 1   
@<TRIPOS>SUBSTRUCTURE
     1 CH7         1 TEMP              0 ****  ****    0 ROOT
