@<TRIPOS>MOLECULE
CH8
   24    20     1     0     0
SMALL
bcc


@<TRIPOS>ATOM
      1 CAF         1.3430    0.8970   -1.1460 c1        1 CH8     -0.188000
      2 CAD         2.7280    0.9400   -1.1810 c1        1 CH8     -0.127750
      3 CAC         3.4360    1.3750   -0.0720 c1        1 CH8     -0.127750
      4 CAE         2.7600    1.7670    1.0720 c1        1 CH8     -0.127750
      5 CAG         1.3750    1.7240    1.1080 c1        1 CH8     -0.127750
      6 CAN         0.6660    1.2890   -0.0010 c1        1 CH8      0.077000
      7 OAK        -0.7400    1.3380    0.0010 os        1 CH8     -0.146000
      8 CAO        -1.2540    0.0360    0.1380 c2        1 CH8      0.011000
      9 CAI        -1.3250   -0.5510    1.3920 c2        1 CH8     -0.093000
     10 CAH        -1.9180   -1.7950    1.5420 c1        1 CH8     -0.154000
     11 CAL        -2.4400   -2.4520    0.4390 c1        1 CH8     -0.024000
     12 CL1        -3.2330   -3.9920    0.6370 cl        1 CH8     -0.006000
     13 CAJ        -2.3700   -1.8650   -0.8140 c1        1 CH8     -0.210000
     14 CAM        -1.7770   -0.6210   -0.9650 c1        1 CH8      0.091000
     15 OAA        -1.7250   -0.0160   -2.2340 oh        1 CH8     -0.225000
     16 HAF         0.8440    0.5900   -1.9270 ha        1 CH8      0.143000
     17 HAD         3.2040    0.6640   -1.9870 ha        1 CH8      0.137250
     18 HAC         4.4120    1.4060   -0.0970 ha        1 CH8      0.137250
     19 HAE         3.2590    2.0740    1.8530 ha        1 CH8      0.137250
     20 HAG         0.8980    2.0000    1.9140 ha        1 CH8      0.137250
     21 HAI        -0.9570   -0.0890    2.1690 ha        1 CH8      0.157000
     22 HAJ        -2.7380   -2.3270   -1.5910 ha        1 CH8      0.152000
     23 HAA        -2.4780   -0.1850   -2.6740 ho        1 CH8      0.222000
     24 HAH        -1.9670   -2.2080    2.4250 ha        1 CH8      0.154000
@<TRIPOS>BOND
     1    1    6 1   
     2    1   16 1   
     3    2    3 1   
     4    2   17 1   
     5    3   18 1   
     6    4    5 1   
     7    4   19 1   
     8    5   20 1   
     9    6    7 1   
    10    7    8 1   
    11    8    9 1   
    12    8   14 1   
    13    9   10 1   
    14    9   21 1   
    15   10   24 1   
    16   11   12 1   
    17   11   13 1   
    18   13   22 1   
    19   14   15 1   
    20   15   23 1   
@<TRIPOS>SUBSTRUCTURE
     1 CH8         1 TEMP              0 ****  ****    0 ROOT
