@<TRIPOS>MOLECULE
CH8
   24    25     1     0     0
SMALL
bcc


@<TRIPOS>ATOM
      1 CAF        -0.1700   -0.3960    0.2610 ca        1 CH8     -0.162000
      2 CAD         1.1230    0.0680    0.0180 ca        1 CH8     -0.103000
      3 CAC         1.9150    0.5340    1.0660 ca        1 CH8     -0.151000
      4 CAE         1.4180    0.5370    2.3710 ca        1 CH8     -0.103000
      5 CAG         0.1330    0.0750    2.6400 ca        1 CH8     -0.162000
      6 CAN        -0.6550   -0.3860    1.5730 ca        1 CH8      0.103100
      7 OAK        -1.9500   -0.7670    1.9220 os        1 CH8     -0.260200
      8 CAO        -2.6100   -1.6050    1.0260 ca        1 CH8      0.006100
      9 CAI        -2.1090   -2.8540    0.6510 ca        1 CH8     -0.104000
     10 CAH        -2.8800   -3.6910   -0.1500 ca        1 CH8     -0.149000
     11 CAL        -4.1510   -3.2770   -0.5690 ca        1 CH8      0.042400
     12 CL1        -5.0840   -4.3070   -1.5470 cl        1 CH8     -0.084400
     13 CAJ        -4.6690   -2.0340   -0.2010 ca        1 CH8     -0.148000
     14 CAM        -3.8890   -1.1880    0.6030 ca        1 CH8      0.138100
     15 OAA        -4.4340    0.0200    0.9550 oh        1 CH8     -0.487100
     16 HAF        -0.7980   -0.7660   -0.5610 ha        1 CH8      0.150000
     17 HAD         1.5140    0.0660   -1.0110 ha        1 CH8      0.137000
     18 HAC         2.9320    0.8990    0.8660 ha        1 CH8      0.136000
     19 HAE         2.0460    0.9050    3.1970 ha        1 CH8      0.137000
     20 HAG        -0.2730    0.0710    3.6610 ha        1 CH8      0.150000
     21 HAI        -1.1090   -3.1630    0.9900 ha        1 CH8      0.155000
     22 HAJ        -5.6670   -1.7040   -0.5240 ha        1 CH8      0.169000
     23 HAA        -3.7840    0.4930    1.4990 ho        1 CH8      0.440000
     24 HAH        -2.4910   -4.6760   -0.4480 ha        1 CH8      0.153000
@<TRIPOS>BOND
     1    1    2 ar  
     2    1    6 ar  
     3    1   16 1   
     4    2    3 ar  
     5    2   17 1   
     6    3    4 ar  
     7    3   18 1   
     8    4    5 ar  
     9    4   19 1   
    10    5    6 ar  
    11    5   20 1   
    12    6    7 1   
    13    7    8 1   
    14    8    9 ar  
    15    8   14 ar  
    16    9   10 ar  
    17    9   21 1   
    18   10   11 ar  
    19   10   24 1   
    20   11   12 1   
    21   11   13 ar  
    22   13   14 ar  
    23   13   22 1   
    24   14   15 1   
    25   15   23 1   
@<TRIPOS>SUBSTRUCTURE
     1 CH8         1 TEMP              0 ****  ****    0 ROOT
