@<TRIPOS>MOLECULE
CH8
   24    25     1     0     0
SMALL
bcc


@<TRIPOS>ATOM
      1 CAF        -0.1730   -0.4010    0.2450 ca        1 CH8     -0.162000
      2 CAD         1.1190    0.0580   -0.0140 ca        1 CH8     -0.103000
      3 CAC         1.9240    0.5220    1.0250 ca        1 CH8     -0.151000
      4 CAE         1.4420    0.5300    2.3360 ca        1 CH8     -0.103000
      5 CAG         0.1580    0.0730    2.6190 ca        1 CH8     -0.162000
      6 CAN        -0.6430   -0.3870    1.5620 ca        1 CH8      0.103100
      7 OAK        -1.9360   -0.7620    1.9260 os        1 CH8     -0.260200
      8 CAO        -2.6090   -1.6000    1.0400 ca        1 CH8      0.006100
      9 CAI        -2.1160   -2.8510    0.6610 ca        1 CH8     -0.104000
     10 CAH        -2.8980   -3.6880   -0.1300 ca        1 CH8     -0.149000
     11 CAL        -4.1730   -3.2700   -0.5350 ca        1 CH8      0.042400
     12 Cl1        -5.1200   -4.2990   -1.5000 cl        1 CH8     -0.084400
     13 CAJ        -4.6830   -2.0260   -0.1630 ca        1 CH8     -0.148000
     14 CAM        -3.8920   -1.1800    0.6300 ca        1 CH8      0.138100
     15 OAA        -4.4290    0.0290    0.9860 oh        1 CH8     -0.487100
     16 HAF        -0.8120   -0.7700   -0.5700 ha        1 CH8      0.150000
     17 HAD         1.4990    0.0530   -1.0460 ha        1 CH8      0.137000
     18 HAC         2.9410    0.8830    0.8130 ha        1 CH8      0.136000
     19 HAE         2.0800    0.8960    3.1540 ha        1 CH8      0.137000
     20 HAG        -0.2360    0.0720    3.6450 ha        1 CH8      0.150000
     21 HAI        -1.1120   -3.1620    0.9880 ha        1 CH8      0.155000
     22 HAJ        -5.6840   -1.6930   -0.4750 ha        1 CH8      0.169000
     23 HAA        -3.7710    0.5020    1.5220 ho        1 CH8      0.440000
     24 HAH        -2.5160   -4.6740   -0.4310 ha        1 CH8      0.153000
@<TRIPOS>BOND
     1    1    2 ar  
     2    1    6 ar  
     3    1   16 1   
     4    2    3 ar  
     5    2   17 1   
     6    3    4 ar  
     7    3   18 1   
     8    4    5 ar  
     9    4   19 1   
    10    5    6 ar  
    11    5   20 1   
    12    6    7 1   
    13    7    8 1   
    14    8    9 ar  
    15    8   14 ar  
    16    9   10 ar  
    17    9   21 1   
    18   10   11 ar  
    19   10   24 1   
    20   11   12 1   
    21   11   13 ar  
    22   13   14 ar  
    23   13   22 1   
    24   14   15 1   
    25   15   23 1   
@<TRIPOS>SUBSTRUCTURE
     1 CH8         1 TEMP              0 ****  ****    0 ROOT
