@<TRIPOS>MOLECULE
CH8
   24    25     1     0     0
SMALL
bcc


@<TRIPOS>ATOM
      1 CAF        -2.1580    0.5250   -0.7830 ca        1 CH8     -0.162000
      2 CAD        -3.3770    1.0770   -1.1740 ca        1 CH8     -0.103000
      3 CAC        -4.5330    0.8320   -0.4340 ca        1 CH8     -0.151000
      4 CAE        -4.4770    0.0300    0.7080 ca        1 CH8     -0.103000
      5 CAG        -3.2700   -0.5280    1.1210 ca        1 CH8     -0.162000
      6 CAN        -2.1160   -0.2770    0.3620 ca        1 CH8      0.103100
      7 OAK        -0.9670   -0.9290    0.8080 os        1 CH8     -0.260200
      8 CAO         0.2490   -0.4030    0.3790 ca        1 CH8      0.006100
      9 CAI         0.6330    0.9160    0.6340 ca        1 CH8     -0.104000
     10 CAH         1.9130    1.3390    0.2850 ca        1 CH8     -0.149000
     11 CAL         2.8030    0.4390   -0.3150 ca        1 CH8      0.042400
     12 CL1         4.3620    0.9660   -0.7380 cl        1 CH8     -0.084400
     13 CAJ         2.4370   -0.8820   -0.5750 ca        1 CH8     -0.148000
     14 CAM         1.1460   -1.3070   -0.2270 ca        1 CH8      0.138100
     15 OAA         0.8250   -2.6140   -0.4860 oh        1 CH8     -0.487100
     16 HAF        -1.2430    0.7160   -1.3620 ha        1 CH8      0.150000
     17 HAD        -3.4230    1.7080   -2.0740 ha        1 CH8      0.137000
     18 HAC        -5.4910    1.2700   -0.7490 ha        1 CH8      0.136000
     19 HAE        -5.3900   -0.1610    1.2910 ha        1 CH8      0.137000
     20 HAG        -3.2090   -1.1610    2.0170 ha        1 CH8      0.150000
     21 HAI        -0.0790    1.6080    1.1070 ha        1 CH8      0.155000
     22 HAJ         3.1320   -1.5940   -1.0440 ha        1 CH8      0.169000
     23 HAA        -0.0930   -2.7590   -0.2010 ho        1 CH8      0.440000
     24 HAH         2.2210    2.3760    0.4850 ha        1 CH8      0.153000
@<TRIPOS>BOND
     1    1    2 ar  
     2    1    6 ar  
     3    1   16 1   
     4    2    3 ar  
     5    2   17 1   
     6    3    4 ar  
     7    3   18 1   
     8    4    5 ar  
     9    4   19 1   
    10    5    6 ar  
    11    5   20 1   
    12    6    7 1   
    13    7    8 1   
    14    8    9 ar  
    15    8   14 ar  
    16    9   10 ar  
    17    9   21 1   
    18   10   11 ar  
    19   10   24 1   
    20   11   12 1   
    21   11   13 ar  
    22   13   14 ar  
    23   13   22 1   
    24   14   15 1   
    25   15   23 1   
@<TRIPOS>SUBSTRUCTURE
     1 CH8         1 TEMP              0 ****  ****    0 ROOT
