@<TRIPOS>MOLECULE
CH9
   23    24     1     0     0
SMALL
bcc


@<TRIPOS>ATOM
      1 CAH         0.0090    0.1340   -0.0100 ca        1 CH9     -0.111000
      2 CAC         1.4010    0.1750   -0.0240 ca        1 CH9     -0.135000
      3 CAB         2.1190    0.0560    1.1660 ca        1 CH9     -0.127000
      4 CAD         1.4380   -0.1110    2.3710 ca        1 CH9     -0.135000
      5 CAI         0.0450   -0.1560    2.3910 ca        1 CH9     -0.111000
      6 CAL        -0.6840   -0.0300    1.2000 cp        1 CH9     -0.029000
      7 CAM        -2.1450   -0.0490    1.2050 cp        1 CH9     -0.059000
      8 CAJ        -2.8550    0.8460    0.3910 ca        1 CH9     -0.090000
      9 CAF        -4.2470    0.8520    0.3620 ca        1 CH9     -0.165000
     10 CAE        -4.9670   -0.0440    1.1520 ca        1 CH9     -0.090000
     11 CAG        -4.2940   -0.9420    1.9740 ca        1 CH9     -0.215000
     12 CAK        -2.8910   -0.9420    2.0050 ca        1 CH9      0.135100
     13 OAA        -2.1970   -1.8090    2.8200 oh        1 CH9     -0.494100
     14 HAH        -0.5520    0.2200   -0.9530 ha        1 CH9      0.138000
     15 HAC         1.9340    0.3000   -0.9780 ha        1 CH9      0.130500
     16 HAB         3.2170    0.0910    1.1530 ha        1 CH9      0.129000
     17 HAD         2.0000   -0.2090    3.3120 ha        1 CH9      0.130500
     18 HAI        -0.4900   -0.3030    3.3420 ha        1 CH9      0.138000
     19 HAJ        -2.2930    1.5590   -0.2330 ha        1 CH9      0.139000
     20 HAF        -4.7780    1.5660   -0.2840 ha        1 CH9      0.135000
     21 HAE        -6.0670   -0.0420    1.1280 ha        1 CH9      0.134000
     22 HAG        -4.8550   -1.6520    2.5980 ha        1 CH9      0.133000
     23 HAA        -2.8360   -2.4180    3.2180 ho        1 CH9      0.418000
@<TRIPOS>BOND
     1    1    2 ar  
     2    1    6 ar  
     3    1   14 1   
     4    2    3 ar  
     5    2   15 1   
     6    3    4 ar  
     7    3   16 1   
     8    4    5 ar  
     9    4   17 1   
    10    5    6 ar  
    11    5   18 1   
    12    6    7 1   
    13    7    8 ar  
    14    7   12 ar  
    15    8    9 ar  
    16    8   19 1   
    17    9   10 ar  
    18    9   20 1   
    19   10   11 ar  
    20   10   21 1   
    21   11   12 ar  
    22   11   22 1   
    23   12   13 1   
    24   13   23 1   
@<TRIPOS>SUBSTRUCTURE
     1 CH9         1 TEMP              0 ****  ****    0 ROOT
