@<TRIPOS>MOLECULE
CHA
   31    31     1     0     0
SMALL
bcc


@<TRIPOS>ATOM
      1 C1         -0.0810    0.1080    0.1370 c3        1 CHA      0.109400
      2 C2          1.4550    0.0070    0.0130 c3        1 CHA      0.115500
      3 C3          2.0800    0.0190    1.4050 c3        1 CHA     -0.115400
      4 C1'         3.6010   -0.0080    1.4190 c3        1 CHA     -0.078700
      5 C2'         4.0770   -0.0570    2.8690 c3        1 CHA     -0.075400
      6 C3'         5.5890   -0.0850    2.9450 c3        1 CHA     -0.078900
      7 C4'         6.1580   -1.2480    2.1600 c3        1 CHA     -0.082400
      8 C5'         5.6790   -1.2260    0.7240 c3        1 CHA     -0.078900
      9 C6'         4.1660   -1.1900    0.6440 c3        1 CHA     -0.075400
     10 N2          1.9910    1.1060   -0.8620 n4        1 CHA     -0.835600
     11 O1         -0.5900    0.2200   -1.1790 oh        1 CHA     -0.635800
     12 H11        -0.3790    1.0140    0.7320 h1        1 CHA      0.075200
     13 H12        -0.4510   -0.8180    0.6510 h1        1 CHA      0.075200
     14 H2          1.7080   -0.9620   -0.5190 hx        1 CHA      0.122700
     15 H31         1.7220    0.9170    1.9770 hc        1 CHA      0.086700
     16 H32         1.6930   -0.8930    1.9390 hc        1 CHA      0.086700
     17 H1'         4.0000    0.9430    0.9670 hc        1 CHA      0.030700
     18 H2'1        3.6880    0.8390    3.4200 hc        1 CHA      0.043200
     19 H2'2        3.6590   -0.9710    3.3660 hc        1 CHA      0.043200
     20 H3'1        6.0050    0.8780    2.5480 hc        1 CHA      0.052950
     21 H3'2        5.9020   -0.1680    4.0190 hc        1 CHA      0.052950
     22 H4'1        7.2780   -1.2030    2.1800 hc        1 CHA      0.058200
     23 H4'2        5.8520   -2.2130    2.6430 hc        1 CHA      0.058200
     24 H5'1        6.1040   -0.3290    0.2010 hc        1 CHA      0.052950
     25 H5'2        6.0550   -2.1370    0.1880 hc        1 CHA      0.052950
     26 H6'1        3.7460   -2.1440    1.0610 hc        1 CHA      0.043200
     27 H6'2        3.8580   -1.1290   -0.4330 hc        1 CHA      0.043200
     28 HN21        1.4630    1.1140   -1.7450 hn        1 CHA      0.464467
     29 HN22        2.9850    0.9420   -1.0460 hn        1 CHA      0.464467
     30 HO1        -1.5090   -0.0800   -1.1720 ho        1 CHA      0.457000
     31 H23         1.8780    2.0110   -0.3980 hn        1 CHA      0.464467
@<TRIPOS>BOND
     1    1    2 1   
     2    1   11 1   
     3    1   12 1   
     4    1   13 1   
     5    2    3 1   
     6    2   10 1   
     7    2   14 1   
     8    3    4 1   
     9    3   15 1   
    10    3   16 1   
    11    4    5 1   
    12    4    9 1   
    13    4   17 1   
    14    5    6 1   
    15    5   18 1   
    16    5   19 1   
    17    6    7 1   
    18    6   20 1   
    19    6   21 1   
    20    7    8 1   
    21    7   22 1   
    22    7   23 1   
    23    8    9 1   
    24    8   24 1   
    25    8   25 1   
    26    9   26 1   
    27    9   27 1   
    28   10   28 1   
    29   10   29 1   
    30   10   31 1   
    31   11   30 1   
@<TRIPOS>SUBSTRUCTURE
     1 CHA         1 TEMP              0 ****  ****    0 ROOT
