@<TRIPOS>MOLECULE
CHA
   30    30     1     0     0
SMALL
bcc


@<TRIPOS>ATOM
      1 C1          0.6680   -0.6140    3.1030 c3        1 CHA      0.140400
      2 C2         -0.0190   -0.0350    1.8460 c3        1 CHA      0.118500
      3 C3          0.8730   -0.3600    0.6390 c3        1 CHA     -0.113400
      4 C1'         0.3440    0.1590   -0.6870 c3        1 CHA     -0.063700
      5 C2'         1.3500   -0.1570   -1.7890 c3        1 CHA     -0.074400
      6 C3'         0.8600    0.3220   -3.1390 c3        1 CHA     -0.076400
      7 C4'        -0.4950   -0.2660   -3.4730 c3        1 CHA     -0.077400
      8 C5'        -1.5020    0.0340   -2.3820 c3        1 CHA     -0.076400
      9 C6'        -1.0130   -0.4380   -1.0280 c3        1 CHA     -0.074400
     10 N2         -0.3510    1.3640    2.0310 n3        1 CHA     -0.909800
     11 O1         -0.2250   -0.7280    4.1890 oh        1 CHA     -0.601800
     12 H11         1.0010   -1.6670    2.8980 h1        1 CHA      0.042200
     13 H12         1.5560    0.0070    3.3940 h1        1 CHA      0.042200
     14 H2         -0.9990   -0.5870    1.7230 h1        1 CHA      0.072700
     15 H31         1.8960    0.0670    0.8120 hc        1 CHA      0.046200
     16 H32         0.9810   -1.4750    0.5770 hc        1 CHA      0.046200
     17 H1'         0.2350    1.2790   -0.6340 hc        1 CHA      0.040700
     18 H2'1        2.3300    0.3310   -1.5500 hc        1 CHA      0.041450
     19 H2'2        1.5240   -1.2650   -1.8250 hc        1 CHA      0.041450
     20 H3'1        0.7910    1.4420   -3.1370 hc        1 CHA      0.039700
     21 H3'2        1.6010    0.0330   -3.9290 hc        1 CHA      0.039700
     22 H4'1       -0.8590    0.1540   -4.4460 hc        1 CHA      0.040200
     23 H4'2       -0.4000   -1.3760   -3.5990 hc        1 CHA      0.040200
     24 H5'1       -1.6940    1.1390   -2.3450 hc        1 CHA      0.039700
     25 H5'2       -2.4760   -0.4680   -2.6210 hc        1 CHA      0.039700
     26 H6'1       -0.9380   -1.5570   -1.0240 hc        1 CHA      0.041450
     27 H6'2       -1.7600   -0.1460   -0.2440 hc        1 CHA      0.041450
     28 HN21        0.4790    1.9240    2.0640 hn        1 CHA      0.349800
     29 HN22       -0.9270    1.6840    1.2780 hn        1 CHA      0.349800
     30 HO1        -0.6100    0.1440    4.3450 ho        1 CHA      0.414000
@<TRIPOS>BOND
     1    1    2 1   
     2    1   11 1   
     3    1   12 1   
     4    1   13 1   
     5    2    3 1   
     6    2   10 1   
     7    2   14 1   
     8    3    4 1   
     9    3   15 1   
    10    3   16 1   
    11    4    5 1   
    12    4    9 1   
    13    4   17 1   
    14    5    6 1   
    15    5   18 1   
    16    5   19 1   
    17    6    7 1   
    18    6   20 1   
    19    6   21 1   
    20    7    8 1   
    21    7   22 1   
    22    7   23 1   
    23    8    9 1   
    24    8   24 1   
    25    8   25 1   
    26    9   26 1   
    27    9   27 1   
    28   10   28 1   
    29   10   29 1   
    30   11   30 1   
@<TRIPOS>SUBSTRUCTURE
     1 CHA         1 TEMP              0 ****  ****    0 ROOT
