@<TRIPOS>MOLECULE
CHA
   31    31     1     0     0
SMALL
bcc


@<TRIPOS>ATOM
      1 C1         -0.0790    0.1050    0.1270 c3        1 CHA      0.109400
      2 C2          1.4570    0.0060    0.0080 c3        1 CHA      0.115500
      3 C3          2.0790    0.0200    1.4010 c3        1 CHA     -0.115400
      4 C1'         3.5990   -0.0050    1.4200 c3        1 CHA     -0.078700
      5 C2'         4.0710   -0.0520    2.8720 c3        1 CHA     -0.075400
      6 C3'         5.5830   -0.0780    2.9520 c3        1 CHA     -0.078900
      7 C4'         6.1550   -1.2410    2.1690 c3        1 CHA     -0.082400
      8 C5'         5.6810   -1.2200    0.7320 c3        1 CHA     -0.078900
      9 C6'         4.1680   -1.1870    0.6480 c3        1 CHA     -0.075400
     10 N2          1.9940    1.1060   -0.8670 nz        1 CHA     -0.835600
     11 O1         -0.5850    0.2150   -1.1910 oh        1 CHA     -0.635800
     12 H11        -0.3800    1.0110    0.7200 h1        1 CHA      0.075200
     13 H12        -0.4490   -0.8210    0.6400 h1        1 CHA      0.075200
     14 H2          1.7140   -0.9620   -0.5220 hx        1 CHA      0.122700
     15 H31         1.7180    0.9180    1.9720 hc        1 CHA      0.086700
     16 H32         1.6900   -0.8910    1.9350 hc        1 CHA      0.086700
     17 H1'         3.9980    0.9470    0.9680 hc        1 CHA      0.030700
     18 H2'1        3.6790    0.8440    3.4210 hc        1 CHA      0.043200
     19 H2'2        3.6520   -0.9660    3.3680 hc        1 CHA      0.043200
     20 H3'1        5.8920   -0.1600    4.0270 hc        1 CHA      0.052950
     21 H3'2        5.9990    0.8850    2.5560 hc        1 CHA      0.052950
     22 H4'1        7.2760   -1.1940    2.1930 hc        1 CHA      0.058200
     23 H4'2        5.8490   -2.2060    2.6520 hc        1 CHA      0.058200
     24 H5'1        6.0590   -2.1310    0.1970 hc        1 CHA      0.052950
     25 H5'2        6.1060   -0.3220    0.2100 hc        1 CHA      0.052950
     26 H6'1        3.7480   -2.1400    1.0640 hc        1 CHA      0.043200
     27 H6'2        3.8640   -1.1260   -0.4310 hc        1 CHA      0.043200
     28 HN21        1.4690    1.1120   -1.7510 hn        1 CHA      0.464467
     29 HN22        1.8780    2.0110   -0.4030 hn        1 CHA      0.464467
     30 HO1        -1.5030   -0.0860   -1.1860 ho        1 CHA      0.457000
     31 H23         2.9890    0.9430   -1.0480 hn        1 CHA      0.464467
@<TRIPOS>BOND
     1    1    2 1   
     2    1   11 1   
     3    1   12 1   
     4    1   13 1   
     5    2    3 1   
     6    2   10 1   
     7    2   14 1   
     8    3    4 1   
     9    3   15 1   
    10    3   16 1   
    11    4    5 1   
    12    4    9 1   
    13    4   17 1   
    14    5    6 1   
    15    5   18 1   
    16    5   19 1   
    17    6    7 1   
    18    6   20 1   
    19    6   21 1   
    20    7    8 1   
    21    7   22 1   
    22    7   23 1   
    23    8    9 1   
    24    8   24 1   
    25    8   25 1   
    26    9   26 1   
    27    9   27 1   
    28   10   28 1   
    29   10   29 1   
    30   10   31 1   
    31   11   30 1   
@<TRIPOS>SUBSTRUCTURE
     1 CHA         1 TEMP              0 ****  ****    0 ROOT
