@<TRIPOS>MOLECULE
CHA
   31    31     1     0     0
SMALL
bcc


@<TRIPOS>ATOM
      1 C1         -0.0780    0.1030    0.1240 c3        1 CHA      0.109400
      2 C2          1.4580    0.0050    0.0060 c3        1 CHA      0.115500
      3 C3          2.0780    0.0200    1.4000 c3        1 CHA     -0.115400
      4 C1'         3.5990   -0.0040    1.4200 c3        1 CHA     -0.078700
      5 C2'         4.0690   -0.0500    2.8720 c3        1 CHA     -0.075400
      6 C3'         5.5810   -0.0750    2.9540 c3        1 CHA     -0.078900
      7 C4'         6.1550   -1.2380    2.1730 c3        1 CHA     -0.082400
      8 C5'         5.6820   -1.2190    0.7350 c3        1 CHA     -0.078900
      9 C6'         4.1690   -1.1860    0.6490 c3        1 CHA     -0.075400
     10 N2          1.9950    1.1040   -0.8690 n4        1 CHA     -0.835600
     11 O1         -0.5830    0.2120   -1.1940 oh        1 CHA     -0.635800
     12 H11        -0.3810    1.0080    0.7160 h1        1 CHA      0.075200
     13 H12        -0.4480   -0.8230    0.6380 h1        1 CHA      0.075200
     14 H2          1.7160   -0.9640   -0.5230 hx        1 CHA      0.122700
     15 H31         1.7160    0.9180    1.9700 hc        1 CHA      0.086700
     16 H32         1.6900   -0.8920    1.9340 hc        1 CHA      0.086700
     17 H1'         3.9980    0.9480    0.9680 hc        1 CHA      0.030700
     18 H2'1        3.6760    0.8460    3.4210 hc        1 CHA      0.043200
     19 H2'2        3.6510   -0.9650    3.3690 hc        1 CHA      0.043200
     20 H3'1        5.8900   -0.1560    4.0300 hc        1 CHA      0.052950
     21 H3'2        5.9970    0.8880    2.5580 hc        1 CHA      0.052950
     22 H4'1        5.8490   -2.2040    2.6550 hc        1 CHA      0.058200
     23 H4'2        7.2750   -1.1910    2.1970 hc        1 CHA      0.058200
     24 H5'1        6.1070   -0.3210    0.2130 hc        1 CHA      0.052950
     25 H5'2        6.0610   -2.1300    0.2010 hc        1 CHA      0.052950
     26 H6'1        3.7490   -2.1400    1.0660 hc        1 CHA      0.043200
     27 H6'2        3.8650   -1.1260   -0.4290 hc        1 CHA      0.043200
     28 HN21        1.8780    2.0090   -0.4060 hn        1 CHA      0.464467
     29 HN22        1.4700    1.1090   -1.7530 hn        1 CHA      0.464467
     30 HO1        -1.5010   -0.0910   -1.1900 ho        1 CHA      0.457000
     31 H23         2.9900    0.9420   -1.0480 hn        1 CHA      0.464467
@<TRIPOS>BOND
     1    1    2 1   
     2    1   11 1   
     3    1   12 1   
     4    1   13 1   
     5    2    3 1   
     6    2   10 1   
     7    2   14 1   
     8    3    4 1   
     9    3   15 1   
    10    3   16 1   
    11    4    5 1   
    12    4    9 1   
    13    4   17 1   
    14    5    6 1   
    15    5   18 1   
    16    5   19 1   
    17    6    7 1   
    18    6   20 1   
    19    6   21 1   
    20    7    8 1   
    21    7   22 1   
    22    7   23 1   
    23    8    9 1   
    24    8   24 1   
    25    8   25 1   
    26    9   26 1   
    27    9   27 1   
    28   10   28 1   
    29   10   29 1   
    30   10   31 1   
    31   11   30 1   
@<TRIPOS>SUBSTRUCTURE
     1 CHA         1 TEMP              0 ****  ****    0 ROOT
