@<TRIPOS>MOLECULE
CHA
   30    30     1     0     0
SMALL
bcc


@<TRIPOS>ATOM
      1 C1         -2.4870    0.3450   -1.7420 c3        1 CHA      0.084400
      2 C2         -0.9760    0.3910   -1.7190 c3        1 CHA      0.166500
      3 C3         -0.4940    0.3580   -0.2870 c3        1 CHA     -0.071400
      4 C1'         0.7600   -0.5110   -0.1920 c3        1 CHA     -0.053700
      5 C2'         0.4790   -1.6760    0.7380 c3        1 CHA     -0.072900
      6 C3'         0.3200   -1.2400    2.1780 c3        1 CHA     -0.076900
      7 C4'         1.4760   -0.3810    2.6560 c3        1 CHA     -0.075400
      8 C5'         1.7570    0.7840    1.7260 c3        1 CHA     -0.076900
      9 C6'         1.9170    0.3480    0.2860 c3        1 CHA     -0.072900
     10 N2         -0.5290    1.5890   -2.3420 n3        1 CHA     -0.895800
     11 O1         -2.9310    0.1820   -3.0710 oh        1 CHA     -0.607800
     12 H11        -2.8450    1.1810   -1.3780 h1        1 CHA      0.024700
     13 H12        -2.7990   -0.4080   -1.1990 h1        1 CHA      0.024700
     14 H2         -0.6190   -0.3800   -2.2010 h1        1 CHA      0.070700
     15 H31        -0.2840    1.2660    0.0080 hc        1 CHA      0.041200
     16 H32        -1.1940   -0.0170    0.2840 hc        1 CHA      0.041200
     17 H1'         0.9710   -0.8600   -1.0790 hc        1 CHA      0.060700
     18 H2'1       -0.3430   -2.1200    0.4500 hc        1 CHA      0.040950
     19 H2'2        1.2200   -2.3120    0.6810 hc        1 CHA      0.040950
     20 H3'1       -0.5100   -0.7280    2.2640 hc        1 CHA      0.036200
     21 H3'2        0.2610   -2.0350    2.7450 hc        1 CHA      0.036200
     22 H4'1        1.2650   -0.0320    3.5450 hc        1 CHA      0.037700
     23 H4'2        2.2790   -0.9370    2.7170 hc        1 CHA      0.037700
     24 H5'1        2.5790    1.2280    2.0150 hc        1 CHA      0.036200
     25 H5'2        1.0160    1.4200    1.7830 hc        1 CHA      0.036200
     26 H6'1        2.7470   -0.1630    0.2010 hc        1 CHA      0.040950
     27 H6'2        1.9760    1.1430   -0.2800 hc        1 CHA      0.040950
     28 HN21        0.0550    1.3830   -3.0170 hn        1 CHA      0.351800
     29 HN22       -1.2470    2.0410   -2.6870 hn        1 CHA      0.351800
     30 HO1        -3.8200    0.1420   -3.0840 ho        1 CHA      0.403000
@<TRIPOS>BOND
     1    1    2 1   
     2    1   11 1   
     3    1   12 1   
     4    1   13 1   
     5    2    3 1   
     6    2   10 1   
     7    2   14 1   
     8    3    4 1   
     9    3   15 1   
    10    3   16 1   
    11    4    5 1   
    12    4    9 1   
    13    4   17 1   
    14    5    6 1   
    15    5   18 1   
    16    5   19 1   
    17    6    7 1   
    18    6   20 1   
    19    6   21 1   
    20    7    8 1   
    21    7   22 1   
    22    7   23 1   
    23    8    9 1   
    24    8   24 1   
    25    8   25 1   
    26    9   26 1   
    27    9   27 1   
    28   10   28 1   
    29   10   29 1   
    30   11   30 1   
@<TRIPOS>SUBSTRUCTURE
     1 CHA         1 TEMP              0 ****  ****    0 ROOT
