@<TRIPOS>MOLECULE
CHB
   15    15     1     0     0
SMALL
bcc


@<TRIPOS>ATOM
      1 C1         -0.1960   -0.0000    1.2280 ca        1 CHB     -0.149600
      2 C2          0.7090    0.0840    0.1680 ca        1 CHB     -0.066000
      3 C3          0.2430    0.1460   -1.1470 ca        1 CHB     -0.080600
      4 CL3         1.3680    0.2490   -2.4370 cl        1 CHB     -0.155400
      5 C4         -1.1370    0.1240   -1.4070 ca        1 CHB      0.097100
      6 O4         -1.6850    0.1820   -2.6740 oh        1 CHB     -0.517100
      7 C5         -2.0470    0.0400   -0.3420 ca        1 CHB     -0.181000
      8 C6         -1.5690   -0.0220    0.9630 ca        1 CHB     -0.075000
      9 C7          0.3100   -0.0680    2.6630 c         1 CHB      0.912200
     10 O1         -0.5500   -0.1430    3.5850 o         1 CHB     -0.827800
     11 O2          1.5590   -0.0460    2.8490 o         1 CHB     -0.827800
     12 H2          1.7880    0.1000    0.3990 ha        1 CHB      0.169000
     13 HO4        -0.9540    0.2370   -3.3070 ho        1 CHB      0.412000
     14 H5         -3.1230    0.0240   -0.5600 ha        1 CHB      0.129000
     15 H6         -2.2620   -0.0890    1.8180 ha        1 CHB      0.159000
@<TRIPOS>BOND
     1    1    2 ar  
     2    1    8 ar  
     3    1    9 1   
     4    2    3 ar  
     5    2   12 1   
     6    3    4 1   
     7    3    5 ar  
     8    5    6 1   
     9    5    7 ar  
    10    6   13 1   
    11    7    8 ar  
    12    7   14 1   
    13    8   15 1   
    14    9   10 1   
    15    9   11 1   
@<TRIPOS>SUBSTRUCTURE
     1 CHB         1 TEMP              0 ****  ****    0 ROOT
