@<TRIPOS>MOLECULE
CHB
   15    12     1     0     0
SMALL
bcc


@<TRIPOS>ATOM
      1 C1         -0.6040    0.0490   -0.9680 c1        1 CHB     -0.129000
      2 C2          0.7820    0.0490   -0.9680 c1        1 CHB     -0.066000
      3 C3          1.4750    0.0490    0.2320 c1        1 CHB     -0.159000
      4 CL3         3.2190    0.0560    0.2320 cl        1 CHB     -0.077000
      5 C4          0.7820    0.0490    1.4320 c2        1 CHB      0.052000
      6 O4          1.4860    0.0600    2.6510 oh        1 CHB     -0.271000
      7 C5         -0.6040    0.0490    1.4320 c1        1 CHB     -0.181000
      8 C6         -1.2970    0.0490    0.2320 c1        1 CHB     -0.075000
      9 C7         -1.3600    0.0620   -2.2780 c2        1 CHB      0.361000
     10 O1         -1.6200    1.1570   -2.8440 o         1 CHB     -0.562500
     11 O2         -1.7240   -1.0210   -2.8070 o         1 CHB     -0.562500
     12 H2          1.2700    0.0490   -1.8140 ha        1 CHB      0.169000
     13 HO4         1.5590   -0.7700    2.9580 ho        1 CHB      0.211000
     14 H5         -1.0920    0.0660    2.2780 ha        1 CHB      0.129000
     15 H6         -2.2730    0.0490    0.2320 ha        1 CHB      0.159000
@<TRIPOS>BOND
     1    1    8 1   
     2    1    9 1   
     3    2    3 1   
     4    2   12 1   
     5    3    5 1   
     6    5    6 1   
     7    5    7 1   
     8    6   13 1   
     9    7   14 1   
    10    8   15 1   
    11    9   10 1   
    12    9   11 1   
@<TRIPOS>SUBSTRUCTURE
     1 CHB         1 TEMP              0 ****  ****    0 ROOT
