@<TRIPOS>MOLECULE
CHB
   15    15     1     0     0
SMALL
bcc


@<TRIPOS>ATOM
      1 C1         -0.0070    0.0020   -0.0070 ca        1 CHB     -0.149600
      2 C2          1.3850    0.0880    0.0380 ca        1 CHB     -0.066000
      3 C3          2.0440    0.1480    1.2690 ca        1 CHB     -0.080600
      4 CL3         3.7550    0.2530    1.3060 cl        1 CHB     -0.155400
      5 C4          1.3070    0.1220    2.4640 ca        1 CHB      0.097100
      6 O4          1.8750    0.1760    3.7220 oh        1 CHB     -0.517100
      7 C5         -0.0930    0.0350    2.4200 ca        1 CHB     -0.181000
      8 C6         -0.7360   -0.0230    1.1870 ca        1 CHB     -0.075000
      9 C7         -0.7270   -0.0630   -1.3470 c         1 CHB      0.912200
     10 O1         -1.9880   -0.1400   -1.3330 o         1 CHB     -0.827800
     11 O2         -0.0240   -0.0370   -2.3960 o         1 CHB     -0.827800
     12 H2          1.9410    0.1070   -0.9140 ha        1 CHB      0.169000
     13 HO4         2.8350    0.2330    3.6080 ho        1 CHB      0.412000
     14 H5         -0.6560    0.0160    3.3620 ha        1 CHB      0.129000
     15 H6         -1.8350   -0.0910    1.1230 ha        1 CHB      0.159000
@<TRIPOS>BOND
     1    1    2 ar  
     2    1    8 ar  
     3    1    9 1   
     4    2    3 ar  
     5    2   12 1   
     6    3    4 1   
     7    3    5 ar  
     8    5    6 1   
     9    5    7 ar  
    10    6   13 1   
    11    7    8 ar  
    12    7   14 1   
    13    8   15 1   
    14    9   10 1   
    15    9   11 1   
@<TRIPOS>SUBSTRUCTURE
     1 CHB         1 TEMP              0 ****  ****    0 ROOT
