@<TRIPOS>MOLECULE
CHD
   68    71     1     0     0
SMALL
bcc


@<TRIPOS>ATOM
      1 C1          0.0590   -0.0720    0.1330 c3        1 CHD     -0.072400
      2 C2          1.5640   -0.1880    0.0790 c3        1 CHD     -0.077400
      3 C3          2.1330   -0.1460    1.4920 c3        1 CHD      0.144100
      4 O3          3.5480   -0.2430    1.3730 oh        1 CHD     -0.604800
      5 C4          1.7080    1.1360    2.1940 c3        1 CHD     -0.120400
      6 C5          0.1940    1.2890    2.2220 c3        1 CHD     -0.037700
      7 C6         -0.1870    2.5730    2.9440 c3        1 CHD     -0.106400
      8 C7          0.0550    3.8420    2.1320 c3        1 CHD      0.144100
      9 O7          1.4440    4.1170    1.9870 oh        1 CHD     -0.587800
     10 C8         -0.5730    3.7360    0.7390 c3        1 CHD     -0.034700
     11 C9         -0.0960    2.4690    0.0140 c3        1 CHD     -0.044700
     12 C10        -0.4450    1.2040    0.8210 c3        1 CHD     -0.036000
     13 C11        -0.6020    2.4050   -1.4220 c3        1 CHD     -0.103400
     14 C12        -0.3870    3.6870   -2.2370 c3        1 CHD      0.152100
     15 O12         0.9970    3.9020   -2.4930 oh        1 CHD     -0.587800
     16 C13        -0.9360    4.9040   -1.4860 c3        1 CHD     -0.039000
     17 C14        -0.2280    4.9400   -0.1110 c3        1 CHD     -0.068700
     18 C15        -0.5380    6.3270    0.4310 c3        1 CHD     -0.071400
     19 C16        -0.6180    7.2160   -0.8120 c3        1 CHD     -0.078400
     20 C17        -0.5650    6.2990   -2.0510 c3        1 CHD     -0.047700
     21 C18        -2.4470    4.7780   -1.3700 c3        1 CHD     -0.087100
     22 C19        -1.9550    1.0340    0.9800 c3        1 CHD     -0.089100
     23 C20        -1.4190    6.8340   -3.1950 c3        1 CHD     -0.060700
     24 C21        -1.3590    5.9200   -4.4040 c3        1 CHD     -0.087100
     25 C22        -0.9610    8.2390   -3.5870 c3        1 CHD     -0.068400
     26 C23        -1.9780    8.9730   -4.4280 c3        1 CHD     -0.195400
     27 O25        -1.3880   11.0780   -3.3990 o         1 CHD     -0.852800
     28 C24        -1.6820   10.4840   -4.4770 c         1 CHD      0.907600
     29 O26        -1.7710   11.0630   -5.5980 o         1 CHD     -0.852800
     30 H11        -0.3490   -0.9560    0.6950 hc        1 CHD      0.038700
     31 H12A       -0.3580   -0.1280   -0.9060 hc        1 CHD      0.038700
     32 H21         2.0060    0.6460   -0.5250 hc        1 CHD      0.055200
     33 H22         1.8590   -1.1510   -0.4100 hc        1 CHD      0.055200
     34 H3          1.7710   -1.0400    2.0780 h1        1 CHD      0.025700
     35 HO3         3.9280    0.1230    2.1800 ho        1 CHD      0.397000
     36 H41         2.1740    2.0160    1.6740 hc        1 CHD      0.057200
     37 H42         2.0930    1.1260    3.2480 hc        1 CHD      0.057200
     38 H5         -0.2190    0.4270    2.8240 hc        1 CHD      0.035700
     39 H61         0.3910    2.6380    3.9040 hc        1 CHD      0.039200
     40 H62        -1.2760    2.5320    3.2080 hc        1 CHD      0.039200
     41 H7         -0.4240    4.7130    2.6700 h1        1 CHD      0.032700
     42 HO7         1.7900    4.2450    2.8780 ho        1 CHD      0.389000
     43 H8         -1.6850    3.6950    0.8970 hc        1 CHD      0.050700
     44 H9          1.0310    2.5380   -0.0390 hc        1 CHD      0.073700
     45 H111       -0.0630    1.5740   -1.9520 hc        1 CHD      0.036700
     46 H112       -1.6950    2.1640   -1.4360 hc        1 CHD      0.036700
     47 H12        -0.9230    3.5740   -3.2240 h1        1 CHD      0.036700
     48 HO12        1.3000    3.1400   -2.9980 ho        1 CHD      0.388000
     49 H14         0.8860    4.8970   -0.3070 hc        1 CHD      0.085700
     50 H151       -1.5070    6.3330    0.9890 hc        1 CHD      0.030700
     51 H152        0.2620    6.6690    1.1320 hc        1 CHD      0.030700
     52 H161        0.2340    7.9390   -0.8380 hc        1 CHD      0.055700
     53 H162       -1.5660    7.8100   -0.8050 hc        1 CHD      0.055700
     54 H17         0.4980    6.2390   -2.4140 hc        1 CHD      0.066700
     55 H181       -2.8570    5.6650   -0.8290 hc        1 CHD      0.034700
     56 H182       -2.9100    4.7370   -2.3860 hc        1 CHD      0.034700
     57 H183       -2.7480    3.8570   -0.8170 hc        1 CHD      0.034700
     58 H191       -2.4210    1.9310    1.4510 hc        1 CHD      0.033700
     59 H192       -2.4350    0.8680   -0.0140 hc        1 CHD      0.033700
     60 H193       -2.1760    0.1490    1.6260 hc        1 CHD      0.033700
     61 H20        -2.4890    6.9040   -2.8470 hc        1 CHD      0.039700
     62 H211       -1.7120    6.4650   -5.3140 hc        1 CHD      0.025033
     63 H212       -2.0120    5.0240   -4.2650 hc        1 CHD      0.025033
     64 H213       -0.3130    5.5710   -4.5810 hc        1 CHD      0.025033
     65 H221       -0.7710    8.8560   -2.6680 hc        1 CHD      0.048700
     66 H222        0.0090    8.1660   -4.1450 hc        1 CHD      0.048700
     67 H231       -3.0020    8.8470   -3.9930 hc        1 CHD      0.018700
     68 H232       -1.9970    8.5720   -5.4720 hc        1 CHD      0.018700
@<TRIPOS>BOND
     1    1    2 1   
     2    1   12 1   
     3    1   30 1   
     4    1   31 1   
     5    2    3 1   
     6    2   32 1   
     7    2   33 1   
     8    3    4 1   
     9    3    5 1   
    10    3   34 1   
    11    4   35 1   
    12    5    6 1   
    13    5   36 1   
    14    5   37 1   
    15    6    7 1   
    16    6   12 1   
    17    6   38 1   
    18    7    8 1   
    19    7   39 1   
    20    7   40 1   
    21    8    9 1   
    22    8   10 1   
    23    8   41 1   
    24    9   42 1   
    25   10   11 1   
    26   10   17 1   
    27   10   43 1   
    28   11   12 1   
    29   11   13 1   
    30   11   44 1   
    31   12   22 1   
    32   13   14 1   
    33   13   45 1   
    34   13   46 1   
    35   14   15 1   
    36   14   16 1   
    37   14   47 1   
    38   15   48 1   
    39   16   17 1   
    40   16   20 1   
    41   16   21 1   
    42   17   18 1   
    43   17   49 1   
    44   18   19 1   
    45   18   50 1   
    46   18   51 1   
    47   19   20 1   
    48   19   52 1   
    49   19   53 1   
    50   20   23 1   
    51   20   54 1   
    52   21   55 1   
    53   21   56 1   
    54   21   57 1   
    55   22   58 1   
    56   22   59 1   
    57   22   60 1   
    58   23   24 1   
    59   23   25 1   
    60   23   61 1   
    61   24   62 1   
    62   24   63 1   
    63   24   64 1   
    64   25   26 1   
    65   25   65 1   
    66   25   66 1   
    67   26   28 1   
    68   26   67 1   
    69   26   68 1   
    70   27   28 1   
    71   28   29 1   
@<TRIPOS>SUBSTRUCTURE
     1 CHD         1 TEMP              0 ****  ****    0 ROOT
