@<TRIPOS>MOLECULE
CHD
   68    71     1     0     0
SMALL
bcc


@<TRIPOS>ATOM
      1 C1          1.7490    0.7290   -4.1890 c3        1 CHD     -0.067400
      2 C2          1.8090   -0.7070   -4.6540 c3        1 CHD     -0.113400
      3 C3          0.6180   -1.0060   -5.5570 c3        1 CHD      0.144100
      4 O3          0.5880   -2.3710   -5.9600 oh        1 CHD     -0.601800
      5 C4         -0.6830   -0.7390   -4.8130 c3        1 CHD     -0.083400
      6 C5         -0.7470    0.6930   -4.3010 c3        1 CHD     -0.042700
      7 C6         -2.0660    0.9260   -3.5790 c3        1 CHD     -0.106400
      8 C7         -2.1400    0.2980   -2.1910 c3        1 CHD      0.145100
      9 O7         -2.2090   -1.1220   -2.2500 oh        1 CHD     -0.587800
     10 C8         -0.9260    0.6910   -1.3430 c3        1 CHD     -0.034700
     11 C9          0.3820    0.3550   -2.0720 c3        1 CHD     -0.044700
     12 C10         0.4640    1.0820   -3.4280 c3        1 CHD     -0.036000
     13 C11         1.6070    0.6050   -1.2010 c3        1 CHD     -0.103400
     14 C12         1.5280    0.0120    0.2120 c3        1 CHD      0.152100
     15 O12         1.5750   -1.4100    0.1700 oh        1 CHD     -0.586800
     16 C13         0.2280    0.4350    0.9040 c3        1 CHD     -0.039000
     17 C14        -0.9360   -0.0220   -0.0080 c3        1 CHD     -0.068700
     18 C15        -2.1690    0.1000    0.8750 c3        1 CHD     -0.071400
     19 C16        -1.6640   -0.2050    2.2870 c3        1 CHD     -0.078400
     20 C17        -0.1250   -0.2900    2.2270 c3        1 CHD     -0.047700
     21 C18         0.2490    1.9380    1.1270 c3        1 CHD     -0.086100
     22 C19         0.4750    2.6000   -3.2550 c3        1 CHD     -0.089100
     23 C20         0.5270    0.2360    3.5020 c3        1 CHD     -0.060700
     24 C21         2.0400    0.1500    3.4240 c3        1 CHD     -0.087100
     25 C22         0.0280   -0.5470    4.7160 c3        1 CHD     -0.067400
     26 C23         0.3210    0.1510    6.0230 c3        1 CHD     -0.195400
     27 O25        -1.7300   -0.6780    6.9940 o         1 CHD     -0.852800
     28 C24        -0.4990   -0.4540    7.1780 c         1 CHD      0.907600
     29 O26         0.1020   -0.6760    8.2690 o         1 CHD     -0.852800
     30 H11         2.6400    0.9560   -3.5490 hc        1 CHD      0.038200
     31 H12A        1.8170    1.3990   -5.0900 hc        1 CHD      0.038200
     32 H21         1.7980   -1.4060   -3.7770 hc        1 CHD      0.047200
     33 H22         2.7630   -0.8830   -5.2160 hc        1 CHD      0.047200
     34 H3          0.6760   -0.3640   -6.4830 h1        1 CHD      0.024700
     35 HO3         1.4860   -2.6070   -6.2160 ho        1 CHD      0.395000
     36 H41        -0.7760   -1.4640   -3.9620 hc        1 CHD      0.065200
     37 H42        -1.5430   -0.9250   -5.5080 hc        1 CHD      0.065200
     38 H5         -0.7310    1.3730   -5.2040 hc        1 CHD      0.034700
     39 H61        -2.9030    0.5230   -4.2090 hc        1 CHD      0.040200
     40 H62        -2.2300    2.0310   -3.4690 hc        1 CHD      0.040200
     41 H7         -3.0720    0.6730   -1.6730 h1        1 CHD      0.032700
     42 HO7        -2.9600   -1.3370   -2.8170 ho        1 CHD      0.391000
     43 H8         -1.0040    1.8010   -1.1760 hc        1 CHD      0.050700
     44 H9          0.3500   -0.7550   -2.2830 hc        1 CHD      0.074700
     45 H111        2.5020    0.1490   -1.7050 hc        1 CHD      0.035200
     46 H112        1.7950    1.7050   -1.1050 hc        1 CHD      0.035200
     47 H12         2.4130    0.3860    0.8030 h1        1 CHD      0.035700
     48 HO12        2.4320   -1.6410   -0.2060 ho        1 CHD      0.387000
     49 H14        -0.7830   -1.1230   -0.2200 hc        1 CHD      0.085700
     50 H151       -2.9600   -0.6200    0.5550 hc        1 CHD      0.031700
     51 H152       -2.6020    1.1300    0.8200 hc        1 CHD      0.031700
     52 H161       -2.0840   -1.1720    2.6580 hc        1 CHD      0.055700
     53 H162       -1.9840    0.5980    2.9970 hc        1 CHD      0.055700
     54 H17         0.1750   -1.3680    2.1070 hc        1 CHD      0.066700
     55 H181        0.3400    2.5020    0.1680 hc        1 CHD      0.034367
     56 H182       -0.6940    2.2560    1.6350 hc        1 CHD      0.034367
     57 H183        1.1140    2.2210    1.7750 hc        1 CHD      0.034367
     58 H191        0.4680    3.1000   -4.2540 hc        1 CHD      0.033700
     59 H192       -0.4150    2.9530   -2.6840 hc        1 CHD      0.033700
     60 H193        1.3950    2.9230   -2.7110 hc        1 CHD      0.033700
     61 H20         0.2330    1.3150    3.6410 hc        1 CHD      0.039700
     62 H211        2.3550   -0.8210    2.9700 hc        1 CHD      0.025033
     63 H212        2.4600    0.9810    2.8080 hc        1 CHD      0.025033
     64 H213        2.4810    0.2230    4.4480 hc        1 CHD      0.025033
     65 H221       -1.0840   -0.6960    4.6520 hc        1 CHD      0.048700
     66 H222        0.5000   -1.5640    4.7160 hc        1 CHD      0.048700
     67 H231        1.4080    0.0860    6.2760 hc        1 CHD      0.018700
     68 H232        0.0480    1.2350    5.9500 hc        1 CHD      0.018700
@<TRIPOS>BOND
     1    1    2 1   
     2    1   12 1   
     3    1   30 1   
     4    1   31 1   
     5    2    3 1   
     6    2   32 1   
     7    2   33 1   
     8    3    4 1   
     9    3    5 1   
    10    3   34 1   
    11    4   35 1   
    12    5    6 1   
    13    5   36 1   
    14    5   37 1   
    15    6    7 1   
    16    6   12 1   
    17    6   38 1   
    18    7    8 1   
    19    7   39 1   
    20    7   40 1   
    21    8    9 1   
    22    8   10 1   
    23    8   41 1   
    24    9   42 1   
    25   10   11 1   
    26   10   17 1   
    27   10   43 1   
    28   11   12 1   
    29   11   13 1   
    30   11   44 1   
    31   12   22 1   
    32   13   14 1   
    33   13   45 1   
    34   13   46 1   
    35   14   15 1   
    36   14   16 1   
    37   14   47 1   
    38   15   48 1   
    39   16   17 1   
    40   16   20 1   
    41   16   21 1   
    42   17   18 1   
    43   17   49 1   
    44   18   19 1   
    45   18   50 1   
    46   18   51 1   
    47   19   20 1   
    48   19   52 1   
    49   19   53 1   
    50   20   23 1   
    51   20   54 1   
    52   21   55 1   
    53   21   56 1   
    54   21   57 1   
    55   22   58 1   
    56   22   59 1   
    57   22   60 1   
    58   23   24 1   
    59   23   25 1   
    60   23   61 1   
    61   24   62 1   
    62   24   63 1   
    63   24   64 1   
    64   25   26 1   
    65   25   65 1   
    66   25   66 1   
    67   26   28 1   
    68   26   67 1   
    69   26   68 1   
    70   27   28 1   
    71   28   29 1   
@<TRIPOS>SUBSTRUCTURE
     1 CHD         1 TEMP              0 ****  ****    0 ROOT
