@<TRIPOS>MOLECULE
CHD
   68    71     1     0     0
SMALL
bcc


@<TRIPOS>ATOM
      1 C1          0.0960   -0.0470    0.1570 c3        1 CHD     -0.067400
      2 C2          1.6020   -0.1520    0.1350 c3        1 CHD     -0.113400
      3 C3          2.1420   -0.1150    1.5600 c3        1 CHD      0.144100
      4 O3          3.5650   -0.1350    1.5880 oh        1 CHD     -0.601800
      5 C4          1.7060    1.1690    2.2520 c3        1 CHD     -0.083400
      6 C5          0.1910    1.3140    2.2510 c3        1 CHD     -0.042700
      7 C6         -0.2060    2.5980    2.9650 c3        1 CHD     -0.106400
      8 C7          0.0390    3.8670    2.1530 c3        1 CHD      0.145100
      9 O7          1.4250    4.1530    2.0140 oh        1 CHD     -0.587800
     10 C8         -0.5790    3.7540    0.7560 c3        1 CHD     -0.034700
     11 C9         -0.0800    2.4910    0.0380 c3        1 CHD     -0.044700
     12 C10        -0.4280    1.2240    0.8410 c3        1 CHD     -0.036000
     13 C11        -0.5650    2.4200   -1.4050 c3        1 CHD     -0.103400
     14 C12        -0.3620    3.7050   -2.2200 c3        1 CHD      0.152100
     15 O12         1.0210    3.9370   -2.4640 oh        1 CHD     -0.586800
     16 C13        -0.9340    4.9150   -1.4750 c3        1 CHD     -0.039000
     17 C14        -0.2390    4.9610   -0.0930 c3        1 CHD     -0.068700
     18 C15        -0.5730    6.3460    0.4430 c3        1 CHD     -0.071400
     19 C16        -0.6540    7.2320   -0.8010 c3        1 CHD     -0.078400
     20 C17        -0.5760    6.3130   -2.0380 c3        1 CHD     -0.047700
     21 C18        -2.4440    4.7680   -1.3730 c3        1 CHD     -0.086100
     22 C19        -1.9380    1.0410    0.9800 c3        1 CHD     -0.089100
     23 C20        -1.4250    6.8340   -3.1930 c3        1 CHD     -0.060700
     24 C21        -1.3410    5.9170   -4.3980 c3        1 CHD     -0.087100
     25 C22        -0.9810    8.2430   -3.5860 c3        1 CHD     -0.067400
     26 C23        -2.0000    8.9620   -4.4360 c3        1 CHD     -0.195400
     27 O25        -1.4260   11.0850   -3.4360 o         1 CHD     -0.852800
     28 C24        -1.7070   10.4730   -4.5070 c         1 CHD      0.907600
     29 O26        -1.7850   11.0330   -5.6380 o         1 CHD     -0.852800
     30 H11        -0.3030   -0.1030   -0.8880 hc        1 CHD      0.038200
     31 H12A       -0.3160   -0.9350    0.7100 hc        1 CHD      0.038200
     32 H21         1.9060   -1.1110   -0.3600 hc        1 CHD      0.047200
     33 H22         2.0470    0.6910   -0.4550 hc        1 CHD      0.047200
     34 H3          1.7640   -1.0130    2.1300 h1        1 CHD      0.024700
     35 HO3         3.8480   -0.8070    0.9590 ho        1 CHD      0.395000
     36 H41         2.1850    2.0440    1.7380 hc        1 CHD      0.065200
     37 H42         2.0790    1.1560    3.3090 hc        1 CHD      0.065200
     38 H5         -0.2290    0.4520    2.8480 hc        1 CHD      0.034700
     39 H61         0.3590    2.6670    3.9320 hc        1 CHD      0.040200
     40 H62        -1.2980    2.5520    3.2150 hc        1 CHD      0.040200
     41 H7         -0.4470    4.7370    2.6870 h1        1 CHD      0.032700
     42 HO7         1.7900    4.1840    2.9050 ho        1 CHD      0.391000
     43 H8         -1.6920    3.7020    0.9050 hc        1 CHD      0.050700
     44 H9          1.0470    2.5730    0.0020 hc        1 CHD      0.074700
     45 H111       -0.0050    1.5990   -1.9290 hc        1 CHD      0.035200
     46 H112       -1.6540    2.1610   -1.4340 hc        1 CHD      0.035200
     47 H12        -0.8880    3.5830   -3.2100 h1        1 CHD      0.035700
     48 HO12        1.3310    3.1930   -2.9920 ho        1 CHD      0.387000
     49 H14         0.8760    4.9320   -0.2770 hc        1 CHD      0.085700
     50 H151        0.2170    6.6990    1.1510 hc        1 CHD      0.031700
     51 H152       -1.5460    6.3400    0.9940 hc        1 CHD      0.031700
     52 H161       -1.6110    7.8120   -0.8040 hc        1 CHD      0.055700
     53 H162        0.1880    7.9670   -0.8200 hc        1 CHD      0.055700
     54 H17         0.4920    6.2670   -2.3900 hc        1 CHD      0.066700
     55 H181       -2.7370    3.8420   -0.8240 hc        1 CHD      0.034367
     56 H182       -2.8710    5.6490   -0.8350 hc        1 CHD      0.034367
     57 H183       -2.8970    4.7220   -2.3930 hc        1 CHD      0.034367
     58 H191       -2.4040    0.8720   -0.0200 hc        1 CHD      0.033700
     59 H192       -2.1600    0.1530    1.6220 hc        1 CHD      0.033700
     60 H193       -2.4170    1.9330    1.4470 hc        1 CHD      0.033700
     61 H20        -2.4990    6.8920   -2.8560 hc        1 CHD      0.039700
     62 H211       -0.2900    5.5760   -4.5590 hc        1 CHD      0.025033
     63 H212       -1.6860    6.4550   -5.3140 hc        1 CHD      0.025033
     64 H213       -1.9880    5.0160   -4.2640 hc        1 CHD      0.025033
     65 H221       -0.8050    8.8660   -2.6670 hc        1 CHD      0.048700
     66 H222       -0.0060    8.1800   -4.1350 hc        1 CHD      0.048700
     67 H231       -2.0190    8.5470   -5.4750 hc        1 CHD      0.018700
     68 H232       -3.0230    8.8390   -3.9990 hc        1 CHD      0.018700
@<TRIPOS>BOND
     1    1    2 1   
     2    1   12 1   
     3    1   30 1   
     4    1   31 1   
     5    2    3 1   
     6    2   32 1   
     7    2   33 1   
     8    3    4 1   
     9    3    5 1   
    10    3   34 1   
    11    4   35 1   
    12    5    6 1   
    13    5   36 1   
    14    5   37 1   
    15    6    7 1   
    16    6   12 1   
    17    6   38 1   
    18    7    8 1   
    19    7   39 1   
    20    7   40 1   
    21    8    9 1   
    22    8   10 1   
    23    8   41 1   
    24    9   42 1   
    25   10   11 1   
    26   10   17 1   
    27   10   43 1   
    28   11   12 1   
    29   11   13 1   
    30   11   44 1   
    31   12   22 1   
    32   13   14 1   
    33   13   45 1   
    34   13   46 1   
    35   14   15 1   
    36   14   16 1   
    37   14   47 1   
    38   15   48 1   
    39   16   17 1   
    40   16   20 1   
    41   16   21 1   
    42   17   18 1   
    43   17   49 1   
    44   18   19 1   
    45   18   50 1   
    46   18   51 1   
    47   19   20 1   
    48   19   52 1   
    49   19   53 1   
    50   20   23 1   
    51   20   54 1   
    52   21   55 1   
    53   21   56 1   
    54   21   57 1   
    55   22   58 1   
    56   22   59 1   
    57   22   60 1   
    58   23   24 1   
    59   23   25 1   
    60   23   61 1   
    61   24   62 1   
    62   24   63 1   
    63   24   64 1   
    64   25   26 1   
    65   25   65 1   
    66   25   66 1   
    67   26   28 1   
    68   26   67 1   
    69   26   68 1   
    70   27   28 1   
    71   28   29 1   
@<TRIPOS>SUBSTRUCTURE
     1 CHD         1 TEMP              0 ****  ****    0 ROOT
