@<TRIPOS>MOLECULE
CHD
   68    71     1     0     0
SMALL
bcc


@<TRIPOS>ATOM
      1 C1          1.9830   -2.9050   -1.1230 c3        1 CHD     -0.079400
      2 C2          2.5000   -4.0010   -0.2740 c3        1 CHD     -0.107400
      3 C3          2.0480   -3.7890    1.1020 c3        1 CHD      0.150100
      4 O3          2.4140   -2.4590    1.5300 oh        1 CHD     -0.613800
      5 C4          0.5650   -3.9410    1.1640 c3        1 CHD     -0.104400
      6 C5         -0.1220   -2.8250    0.3570 c3        1 CHD     -0.045700
      7 C6          0.2310   -1.4570    0.9600 c3        1 CHD     -0.074400
      8 C7          1.3150   -0.6730    0.0500 c3        1 CHD      0.150100
      9 O7          2.4760   -1.2940    0.1150 oh        1 CHD     -0.629800
     10 C8          0.8270   -0.6250   -1.4480 c3        1 CHD     -0.070700
     11 C9         -0.1130   -1.7710   -1.7110 c3        1 CHD     -0.039700
     12 C10         0.3350   -2.8730   -1.0670 c3        1 CHD     -0.034000
     13 C11        -1.7660   -1.3660   -1.1240 c3        1 CHD     -0.068400
     14 C12        -2.0100    0.2650   -0.9470 c3        1 CHD      0.154100
     15 O12        -2.5260    0.7840   -2.1150 oh        1 CHD     -0.610800
     16 C13        -0.7710    0.8950   -0.6560 c3        1 CHD     -0.075000
     17 C14         0.1320    0.6370   -1.7030 c3        1 CHD     -0.072700
     18 C15         1.1770    1.8460   -1.7770 c3        1 CHD     -0.077400
     19 C16         0.3000    3.1290   -1.1170 c3        1 CHD     -0.077400
     20 C17        -0.9620    2.4470   -0.5490 c3        1 CHD     -0.051700
     21 C18        -0.2140    0.3570    0.6450 c3        1 CHD     -0.085100
     22 C19        -0.2300   -4.1360   -1.7490 c3        1 CHD     -0.089100
     23 C20        -1.1440    2.8310    0.8490 c3        1 CHD     -0.064700
     24 C21        -2.6190    2.7060    1.2230 c3        1 CHD     -0.088100
     25 C22        -0.6860    4.3010    1.0450 c3        1 CHD     -0.069400
     26 C23        -0.8160    4.6810    2.5190 c3        1 CHD     -0.197400
     27 O25        -1.6360    6.9090    2.9620 o         1 CHD     -0.850300
     28 C24        -0.6460    6.1930    2.6740 c         1 CHD      0.908600
     29 O26         0.4910    6.7090    2.5670 o         1 CHD     -0.850300
     30 H11         2.2720   -3.0470   -2.0450 hc        1 CHD      0.050700
     31 H12A        2.3300   -2.0630   -0.8050 hc        1 CHD      0.050700
     32 H21         3.4750   -4.0030   -0.3010 hc        1 CHD      0.044200
     33 H22         2.1610   -4.8600   -0.6030 hc        1 CHD      0.044200
     34 H3          2.4700   -4.4520    1.6920 h1        1 CHD      0.055700
     35 HO3         3.0640   -2.5110    2.1320 ho        1 CHD      0.426000
     36 H41         0.3130   -4.8100    0.7920 hc        1 CHD      0.044700
     37 H42         0.2720   -3.8910    2.1000 hc        1 CHD      0.044700
     38 H5         -1.0900   -2.9510    0.3900 hc        1 CHD      0.040700
     39 H61        -0.5820   -0.9170    1.0250 hc        1 CHD      0.053200
     40 H62         0.6020   -1.5890    1.8560 hc        1 CHD      0.053200
     41 H7          1.4180    0.2360    0.3840 h1        1 CHD      0.046700
     42 HO7         3.1190   -0.7040    0.2730 ho        1 CHD      0.404000
     43 H8          1.5980   -0.6970   -2.0430 hc        1 CHD      0.047700
     44 H9         -0.1460   -1.9490   -2.6720 hc        1 CHD      0.059700
     45 H111       -1.9080   -1.7990   -0.2620 hc        1 CHD      0.046200
     46 H112       -2.4220   -1.7140   -1.7640 hc        1 CHD      0.046200
     47 H12        -2.6390    0.4250   -0.2120 h1        1 CHD      0.035700
     48 HO12       -3.4030    0.6700   -2.1260 ho        1 CHD      0.409000
     49 H14        -0.3580    0.5760   -2.5510 hc        1 CHD      0.060700
     50 H151        1.4240    2.0350   -2.7010 hc        1 CHD      0.031700
     51 H152        1.9650    1.6550   -1.2390 hc        1 CHD      0.031700
     52 H161        0.0590    3.7770   -1.8140 hc        1 CHD      0.059700
     53 H162        0.8060    3.5610   -0.4060 hc        1 CHD      0.059700
     54 H17        -1.7490    2.7200   -1.0720 hc        1 CHD      0.038700
     55 H181        0.2430   -0.4790    0.4790 hc        1 CHD      0.037367
     56 H182       -0.9560    0.2060    1.2840 hc        1 CHD      0.037367
     57 H183        0.4170    1.0050    1.0220 hc        1 CHD      0.037367
     58 H191       -0.0210   -4.1110   -2.7100 hc        1 CHD      0.033700
     59 H192       -1.2050   -4.1650   -1.6260 hc        1 CHD      0.033700
     60 H193        0.1770   -4.9380   -1.3440 hc        1 CHD      0.033700
     61 H20        -0.6160    2.2490    1.4160 hc        1 CHD      0.047700
     62 H211       -2.7190    2.0500    1.9340 hc        1 CHD      0.025700
     63 H212       -3.1340    2.4170    0.4350 hc        1 CHD      0.025700
     64 H213       -2.9520    3.5700    1.5290 hc        1 CHD      0.025700
     65 H221       -1.2490    4.8940    0.5040 hc        1 CHD      0.049200
     66 H222        0.2520    4.3930    0.7640 hc        1 CHD      0.049200
     67 H231       -0.1240    4.2210    3.0370 hc        1 CHD      0.020700
     68 H232       -1.6950    4.4190    2.8460 hc        1 CHD      0.020700
@<TRIPOS>BOND
     1    1    2 1   
     2    1   12 1   
     3    1   30 1   
     4    1   31 1   
     5    2    3 1   
     6    2   32 1   
     7    2   33 1   
     8    3    4 1   
     9    3    5 1   
    10    3   34 1   
    11    4   35 1   
    12    5    6 1   
    13    5   36 1   
    14    5   37 1   
    15    6    7 1   
    16    6   12 1   
    17    6   38 1   
    18    7    8 1   
    19    7   39 1   
    20    7   40 1   
    21    8    9 1   
    22    8   10 1   
    23    8   41 1   
    24    9   42 1   
    25   10   11 1   
    26   10   17 1   
    27   10   43 1   
    28   11   12 1   
    29   11   13 1   
    30   11   44 1   
    31   12   22 1   
    32   13   14 1   
    33   13   45 1   
    34   13   46 1   
    35   14   15 1   
    36   14   16 1   
    37   14   47 1   
    38   15   48 1   
    39   16   17 1   
    40   16   20 1   
    41   16   21 1   
    42   17   18 1   
    43   17   49 1   
    44   18   19 1   
    45   18   50 1   
    46   18   51 1   
    47   19   20 1   
    48   19   52 1   
    49   19   53 1   
    50   20   23 1   
    51   20   54 1   
    52   21   55 1   
    53   21   56 1   
    54   21   57 1   
    55   22   58 1   
    56   22   59 1   
    57   22   60 1   
    58   23   24 1   
    59   23   25 1   
    60   23   61 1   
    61   24   62 1   
    62   24   63 1   
    63   24   64 1   
    64   25   26 1   
    65   25   65 1   
    66   25   66 1   
    67   26   28 1   
    68   26   67 1   
    69   26   68 1   
    70   27   28 1   
    71   28   29 1   
@<TRIPOS>SUBSTRUCTURE
     1 CHD         1 TEMP              0 ****  ****    0 ROOT
