@<TRIPOS>MOLECULE
CHF
   36    36     1     0     0
SMALL
bcc


@<TRIPOS>ATOM
      1 N          -1.9680   -0.3140   -1.2570 n3        1 CHF     -0.906800
      2 CA         -0.5710   -0.0570   -1.2230 c3        1 CHF      0.189500
      3 CB         -0.1230    0.1080    0.2130 c3        1 CHF     -0.064400
      4 CG         -0.5890    1.2750    0.6960 c3        1 CHF     -0.051700
      5 CD1        -1.3840    1.0790    2.0580 c3        1 CHF     -0.070900
      6 CD2         0.5920    2.1900    1.3000 c3        1 CHF     -0.070900
      7 CE1        -0.5740    0.3590    3.1230 c3        1 CHF     -0.074400
      8 CE2         1.4100    1.4810    2.3490 c3        1 CHF     -0.074400
      9 CZ          0.7500    0.4060    2.8560 c3        1 CHF     -0.072400
     10 CH          0.1700   -1.2150   -1.8520 c3        1 CHF      0.289600
     11 OH1        -0.5810   -2.3950   -1.6910 oh        1 CHF     -0.642300
     12 OH2         1.4210   -1.3670   -1.2260 oh        1 CHF     -0.642300
     13 CM          0.3730   -0.9430   -3.3280 c3        1 CHF      0.196600
     14 F1          1.3500   -0.0410   -3.4850 f         1 CHF     -0.259300
     15 F2         -0.7640   -0.4680   -3.8540 f         1 CHF     -0.259300
     16 C           0.7540   -2.2270   -4.0290 c         1 CHF      0.919600
     17 O          -0.1380   -3.0420   -4.3800 o         1 CHF     -0.791800
     18 OXT         1.9680   -2.5020   -4.2230 o         1 CHF     -0.791800
     19 H          -2.1530   -0.9070   -1.9290 hn        1 CHF      0.353300
     20 H2         -2.4180    0.4690   -1.4090 hn        1 CHF      0.353300
     21 HA         -0.3780    0.7610   -1.7210 h1        1 CHF      0.070700
     22 HB2        -0.4740   -0.6310    0.7520 hc        1 CHF      0.057700
     23 HB3         0.8560    0.1050    0.2530 hc        1 CHF      0.057700
     24 HG         -1.1200    1.7620    0.0350 hc        1 CHF      0.042700
     25 HD12       -2.1950    0.5620    1.8760 hc        1 CHF      0.042200
     26 HD13       -1.6430    1.9580    2.4000 hc        1 CHF      0.042200
     27 HD23        0.1960    2.9900    1.6980 hc        1 CHF      0.042200
     28 HD22        1.1840    2.4610    0.5690 hc        1 CHF      0.042200
     29 HE12       -0.8590   -0.5770    3.1630 hc        1 CHF      0.030950
     30 HE13       -0.7410    0.7810    3.9910 hc        1 CHF      0.030950
     31 HE23        2.2520    1.1800    1.9480 hc        1 CHF      0.030950
     32 HE22        1.6090    2.1070    3.0760 hc        1 CHF      0.030950
     33 HZ2         1.2030    0.1850    3.6980 hc        1 CHF      0.024700
     34 HZ3         0.9270   -0.3350    2.2370 hc        1 CHF      0.024700
     35 HH1        -0.0800   -3.0130   -1.2950 ho        1 CHF      0.448500
     36 HH2         1.7370   -2.1820   -1.3880 ho        1 CHF      0.448500
@<TRIPOS>BOND
     1    1    2 1   
     2    1   19 1   
     3    1   20 1   
     4    2    3 1   
     5    2   10 1   
     6    2   21 1   
     7    3    4 1   
     8    3   22 1   
     9    3   23 1   
    10    4    5 1   
    11    4    6 1   
    12    4   24 1   
    13    5    7 1   
    14    5   25 1   
    15    5   26 1   
    16    6    8 1   
    17    6   27 1   
    18    6   28 1   
    19    7    9 1   
    20    7   29 1   
    21    7   30 1   
    22    8    9 1   
    23    8   31 1   
    24    8   32 1   
    25    9   33 1   
    26    9   34 1   
    27   10   11 1   
    28   10   12 1   
    29   10   13 1   
    30   11   35 1   
    31   12   36 1   
    32   13   14 1   
    33   13   15 1   
    34   13   16 1   
    35   16   17 1   
    36   16   18 1   
@<TRIPOS>SUBSTRUCTURE
     1 CHF         1 TEMP              0 ****  ****    0 ROOT
