@<TRIPOS>MOLECULE
CHF
   36    36     1     0     0
SMALL
bcc


@<TRIPOS>ATOM
      1 N          -0.0920    1.9730   -0.2250 n3        1 CHF     -0.905800
      2 CA         -0.0960    0.5250   -0.2170 c3        1 CHF      0.187500
      3 CB          0.7490   -0.0780   -1.3470 c3        1 CHF     -0.062400
      4 CG          0.2020    0.2200   -2.7340 c3        1 CHF     -0.060700
      5 CD1         1.2800   -0.0460   -3.7790 c3        1 CHF     -0.073900
      6 CD2        -1.0300   -0.6230   -3.0340 c3        1 CHF     -0.073900
      7 CE1         0.7670    0.2050   -5.1810 c3        1 CHF     -0.074900
      8 CE2        -1.5460   -0.3700   -4.4350 c3        1 CHF     -0.074900
      9 CZ         -0.4700   -0.6190   -5.4730 c3        1 CHF     -0.073400
     10 CH          0.3890   -0.0920    1.1390 c3        1 CHF      0.290600
     11 OH1         0.2180   -1.4830    1.0420 oh        1 CHF     -0.642300
     12 OH2         1.7700    0.1380    1.2650 oh        1 CHF     -0.642300
     13 CM         -0.3740    0.5010    2.3970 c3        1 CHF      0.195600
     14 F1          0.0490    1.7960    2.6420 f         1 CHF     -0.259300
     15 F2         -1.7090    0.6930    2.1200 f         1 CHF     -0.259300
     16 C          -0.1240   -0.4150    3.6830 c         1 CHF      0.919600
     17 O           0.9760   -1.0370    3.6730 o         1 CHF     -0.791800
     18 OXT        -1.0030   -0.4400    4.5640 o         1 CHF     -0.791800
     19 H           0.8290    2.3090   -0.0160 hn        1 CHF      0.353300
     20 H2         -0.7180    2.3120    0.4850 hn        1 CHF      0.353300
     21 HA         -1.1670    0.1820   -0.3370 h1        1 CHF      0.070700
     22 HB2         1.7990    0.3100   -1.2630 hc        1 CHF      0.057200
     23 HB3         0.7900   -1.1880   -1.1850 hc        1 CHF      0.057200
     24 HG         -0.0880    1.3060   -2.7960 hc        1 CHF      0.063700
     25 HD12        2.1620    0.6160   -3.5800 hc        1 CHF      0.040200
     26 HD13        1.6280   -1.1090   -3.6890 hc        1 CHF      0.040200
     27 HD23       -0.7770   -1.7100   -2.9170 hc        1 CHF      0.040200
     28 HD22       -1.8360   -0.3830   -2.2910 hc        1 CHF      0.040200
     29 HE12        0.5250    1.2940   -5.3000 hc        1 CHF      0.030700
     30 HE13        1.5680   -0.0450   -5.9250 hc        1 CHF      0.030700
     31 HE23       -1.9020    0.6910   -4.5160 hc        1 CHF      0.030700
     32 HE22       -2.4240   -1.0370   -4.6380 hc        1 CHF      0.030700
     33 HZ2        -0.8620   -0.3660   -6.4920 hc        1 CHF      0.028200
     34 HZ3        -0.2010   -1.7080   -5.4760 hc        1 CHF      0.028200
     35 HH1         0.5440   -1.8890    1.8620 ho        1 CHF      0.448000
     36 HH2         2.0360   -0.1460    2.1570 ho        1 CHF      0.448000
@<TRIPOS>BOND
     1    1    2 1   
     2    1   19 1   
     3    1   20 1   
     4    2    3 1   
     5    2   10 1   
     6    2   21 1   
     7    3    4 1   
     8    3   22 1   
     9    3   23 1   
    10    4    5 1   
    11    4    6 1   
    12    4   24 1   
    13    5    7 1   
    14    5   25 1   
    15    5   26 1   
    16    6    8 1   
    17    6   27 1   
    18    6   28 1   
    19    7    9 1   
    20    7   29 1   
    21    7   30 1   
    22    8    9 1   
    23    8   31 1   
    24    8   32 1   
    25    9   33 1   
    26    9   34 1   
    27   10   11 1   
    28   10   12 1   
    29   10   13 1   
    30   11   35 1   
    31   12   36 1   
    32   13   14 1   
    33   13   15 1   
    34   13   16 1   
    35   16   17 1   
    36   16   18 1   
@<TRIPOS>SUBSTRUCTURE
     1 CHF         1 TEMP              0 ****  ****    0 ROOT
