@<TRIPOS>MOLECULE
CHH
   28    26     1     0     0
SMALL
bcc


@<TRIPOS>ATOM
      1 O7         -1.1500   -0.2880    3.0800 o         1 CHH     -0.281000
      2 C5          0.0680   -0.2880    3.0800 c1        1 CHH      0.232000
      3 C6          0.8330   -0.2880    4.4060 c2        1 CHH     -0.270000
      4 C4          0.8350   -0.3410    1.7510 c3        1 CHH     -0.222000
      5 C3         -0.1310   -0.0530    0.5880 c3        1 CHH     -0.179000
      6 C2          0.6410   -0.1060   -0.7490 c3        1 CHH     -0.121000
      7 N1         -0.2790    0.1680   -1.8590 n4        1 CHH      0.029000
      8 C9         -0.8630    1.4820   -1.6890 c3        1 CHH     -0.188333
      9 C10         0.4470    0.1210   -3.1110 c3        1 CHH     -0.188333
     10 C8         -1.3290   -0.8290   -1.8730 c3        1 CHH     -0.188333
     11 H61         1.3430    0.5410    4.4870 ha        1 CHH      0.117667
     12 H62         0.2000   -0.3540    5.1470 ha        1 CHH      0.117667
     13 H63         1.4430   -1.0490    4.4300 ha        1 CHH      0.117667
     14 H41         1.2260   -1.2290    1.6370 hc        1 CHH      0.117000
     15 H42         1.5450    0.3280    1.7580 hc        1 CHH      0.117000
     16 H31        -0.5230    0.8340    0.7030 hc        1 CHH      0.119000
     17 H32        -0.8410   -0.7230    0.5810 hc        1 CHH      0.119000
     18 H21         1.0330   -0.9920   -0.8630 hx        1 CHH      0.136000
     19 H22         1.3500    0.5650   -0.7420 hx        1 CHH      0.136000
     20 H91        -1.1830    1.8090   -2.5510 hx        1 CHH      0.142222
     21 H92        -0.1900    2.0940   -1.3380 hx        1 CHH      0.142222
     22 H93        -1.6110    1.4270   -1.0640 hx        1 CHH      0.142222
     23 H101        0.8450   -0.7630   -3.2240 hx        1 CHH      0.142222
     24 H102        1.1520    0.7960   -3.1040 hx        1 CHH      0.142222
     25 H103       -0.1660    0.2980   -3.8500 hx        1 CHH      0.142222
     26 H81        -1.9920   -0.6130   -1.1900 hx        1 CHH      0.142222
     27 H82        -0.9460   -1.7080   -1.6880 hx        1 CHH      0.142222
     28 H83        -1.7570   -0.8390   -2.7500 hx        1 CHH      0.142222
@<TRIPOS>BOND
     1    1    2 1   
     2    2    4 1   
     3    3   11 1   
     4    3   12 1   
     5    3   13 1   
     6    4    5 1   
     7    4   14 1   
     8    4   15 1   
     9    5    6 1   
    10    5   16 1   
    11    5   17 1   
    12    6    7 1   
    13    6   18 1   
    14    6   19 1   
    15    7    8 1   
    16    7    9 1   
    17    7   10 1   
    18    8   20 1   
    19    8   21 1   
    20    8   22 1   
    21    9   23 1   
    22    9   24 1   
    23    9   25 1   
    24   10   26 1   
    25   10   27 1   
    26   10   28 1   
@<TRIPOS>SUBSTRUCTURE
     1 CHH         1 TEMP              0 ****  ****    0 ROOT
