@<TRIPOS>MOLECULE
CHH
   28    27     1     0     0
SMALL
bcc


@<TRIPOS>ATOM
      1 O7         -0.0590   -0.0340    0.1620 o         1 CHH     -0.520100
      2 C5          1.1730   -0.0160    0.0960 c         1 CHH      0.571100
      3 C6          2.0630    0.0000    1.2900 c3        1 CHH     -0.202100
      4 C4          1.8860   -0.0070   -1.2360 c3        1 CHH     -0.193400
      5 C3          0.8920    0.0040   -2.3800 c3        1 CHH     -0.100400
      6 C2          1.6350   -0.0020   -3.7060 c3        1 CHH      0.115800
      7 N1          0.7530    0.0020   -4.9320 n4        1 CHH     -0.603800
      8 C9         -0.1050    1.2220   -4.9550 c3        1 CHH      0.087767
      9 C10         1.6330    0.0020   -6.1420 c3        1 CHH      0.087767
     10 C8         -0.1110   -1.2140   -4.9590 c3        1 CHH      0.087767
     11 H61         1.4610   -0.0560    2.2310 hc        1 CHH      0.078367
     12 H62         2.7640   -0.8690    1.2580 hc        1 CHH      0.078367
     13 H63         2.6630    0.9440    1.3040 hc        1 CHH      0.078367
     14 H41         2.5420   -0.9150   -1.2930 hc        1 CHH      0.077700
     15 H42         2.5490    0.8970   -1.2800 hc        1 CHH      0.077700
     16 H31         0.2420    0.9150   -2.2830 hc        1 CHH      0.079200
     17 H32         0.2240   -0.8930   -2.2850 hc        1 CHH      0.079200
     18 H21         2.2840   -0.9220   -3.7700 hx        1 CHH      0.096700
     19 H22         2.2950    0.9110   -3.7720 hx        1 CHH      0.096700
     20 H91        -0.6760    1.2550   -5.9210 hx        1 CHH      0.102922
     21 H92        -0.8300    1.1900   -4.0980 hx        1 CHH      0.102922
     22 H93         0.5420    2.1350   -4.8680 hx        1 CHH      0.102922
     23 H101        2.2780   -0.9160   -6.1340 hx        1 CHH      0.102922
     24 H102        2.2800    0.9190   -6.1330 hx        1 CHH      0.102922
     25 H103        0.9960    0.0030   -7.0660 hx        1 CHH      0.102922
     26 H81        -0.8330   -1.1830   -4.0990 hx        1 CHH      0.102922
     27 H82        -0.6840   -1.2400   -5.9240 hx        1 CHH      0.102922
     28 H83         0.5330   -2.1300   -4.8770 hx        1 CHH      0.102922
@<TRIPOS>BOND
     1    1    2 2   
     2    2    3 1   
     3    2    4 1   
     4    3   11 1   
     5    3   12 1   
     6    3   13 1   
     7    4    5 1   
     8    4   14 1   
     9    4   15 1   
    10    5    6 1   
    11    5   16 1   
    12    5   17 1   
    13    6    7 1   
    14    6   18 1   
    15    6   19 1   
    16    7    8 1   
    17    7    9 1   
    18    7   10 1   
    19    8   20 1   
    20    8   21 1   
    21    8   22 1   
    22    9   23 1   
    23    9   24 1   
    24    9   25 1   
    25   10   26 1   
    26   10   27 1   
    27   10   28 1   
@<TRIPOS>SUBSTRUCTURE
     1 CHH         1 TEMP              0 ****  ****    0 ROOT
