@<TRIPOS>MOLECULE
CHH
   28    27     1     0     0
SMALL
bcc


@<TRIPOS>ATOM
      1 O7          2.7840    1.3000    0.0010 o         1 CHH     -0.520100
      2 C5          2.8310    0.0670    0.0010 c         1 CHH      0.571100
      3 C6          4.1010   -0.7110    0.0010 c3        1 CHH     -0.202100
      4 C4          1.5700   -0.7650    0.0000 c3        1 CHH     -0.193400
      5 C3          0.3400    0.1210    0.0000 c3        1 CHH     -0.100400
      6 C2         -0.9130   -0.7400   -0.0000 c3        1 CHH      0.115800
      7 N1         -2.2150    0.0260   -0.0010 n4        1 CHH     -0.603800
      8 C9         -2.3180    0.8820   -1.2190 c3        1 CHH      0.087767
      9 C10        -3.3390   -0.9610   -0.0010 c3        1 CHH      0.087767
     10 C8         -2.3180    0.8810    1.2180 c3        1 CHH      0.087767
     11 H61         4.9840   -0.0230    0.0010 hc        1 CHH      0.078367
     12 H62         4.1510   -1.3600    0.9100 hc        1 CHH      0.078367
     13 H63         4.1510   -1.3610   -0.9060 hc        1 CHH      0.078367
     14 H41         1.5800   -1.4260   -0.9060 hc        1 CHH      0.077700
     15 H42         1.5790   -1.4270    0.9060 hc        1 CHH      0.077700
     16 H31         0.3750    0.7850    0.9050 hc        1 CHH      0.079700
     17 H32         0.3750    0.7860   -0.9030 hc        1 CHH      0.079700
     18 H21        -0.9170   -1.3980   -0.9170 hx        1 CHH      0.096700
     19 H22        -0.9180   -1.3980    0.9160 hx        1 CHH      0.096700
     20 H91        -2.1750    0.2470   -2.1330 hx        1 CHH      0.102922
     21 H92        -3.3310    1.3630   -1.2480 hx        1 CHH      0.102922
     22 H93        -1.5290    1.6800   -1.1870 hx        1 CHH      0.102922
     23 H101       -3.2720   -1.6030    0.9170 hx        1 CHH      0.102922
     24 H102       -4.3170   -0.4100   -0.0010 hx        1 CHH      0.102922
     25 H103       -3.2710   -1.6030   -0.9180 hx        1 CHH      0.102922
     26 H81        -1.5290    1.6800    1.1860 hx        1 CHH      0.102922
     27 H82        -3.3320    1.3630    1.2470 hx        1 CHH      0.102922
     28 H83        -2.1750    0.2460    2.1320 hx        1 CHH      0.102922
@<TRIPOS>BOND
     1    1    2 2   
     2    2    3 1   
     3    2    4 1   
     4    3   11 1   
     5    3   12 1   
     6    3   13 1   
     7    4    5 1   
     8    4   14 1   
     9    4   15 1   
    10    5    6 1   
    11    5   16 1   
    12    5   17 1   
    13    6    7 1   
    14    6   18 1   
    15    6   19 1   
    16    7    8 1   
    17    7    9 1   
    18    7   10 1   
    19    8   20 1   
    20    8   21 1   
    21    8   22 1   
    22    9   23 1   
    23    9   24 1   
    24    9   25 1   
    25   10   26 1   
    26   10   27 1   
    27   10   28 1   
@<TRIPOS>SUBSTRUCTURE
     1 CHH         1 TEMP              0 ****  ****    0 ROOT
