@<TRIPOS>MOLECULE
CHH
   28    27     1     0     0
SMALL
bcc


@<TRIPOS>ATOM
      1 O7         -0.0570   -0.0000    0.1630 o         1 CHH     -0.520100
      2 C5          1.1750   -0.0000    0.0960 c         1 CHH      0.571100
      3 C6          2.0670   -0.0010    1.2900 c3        1 CHH     -0.202100
      4 C4          1.8870   -0.0000   -1.2360 c3        1 CHH     -0.193400
      5 C3          0.8920   -0.0000   -2.3800 c3        1 CHH     -0.100400
      6 C2          1.6340    0.0000   -3.7070 c3        1 CHH      0.115800
      7 N1          0.7520    0.0000   -4.9320 n4        1 CHH     -0.603800
      8 C9         -0.1100    1.2190   -4.9560 c3        1 CHH      0.087767
      9 C10         1.6310    0.0000   -6.1420 c3        1 CHH      0.087767
     10 C8         -0.1100   -1.2180   -4.9560 c3        1 CHH      0.087767
     11 H61         2.7190    0.9070    1.2790 hc        1 CHH      0.078367
     12 H62         2.7180   -0.9090    1.2790 hc        1 CHH      0.078367
     13 H63         1.4630   -0.0000    2.2310 hc        1 CHH      0.078367
     14 H41         2.5470   -0.9060   -1.2880 hc        1 CHH      0.077700
     15 H42         2.5470    0.9060   -1.2880 hc        1 CHH      0.077700
     16 H31         0.2330    0.9040   -2.2830 hc        1 CHH      0.079700
     17 H32         0.2340   -0.9050   -2.2840 hc        1 CHH      0.079700
     18 H21         2.2890   -0.9160   -3.7720 hx        1 CHH      0.096700
     19 H22         2.2890    0.9170   -3.7720 hx        1 CHH      0.096700
     20 H91        -0.8320    1.1870   -4.0970 hx        1 CHH      0.102922
     21 H92        -0.6820    1.2480   -5.9210 hx        1 CHH      0.102922
     22 H93         0.5360    2.1330   -4.8720 hx        1 CHH      0.102922
     23 H101        2.2770   -0.9170   -6.1340 hx        1 CHH      0.102922
     24 H102        0.9920    0.0000   -7.0660 hx        1 CHH      0.102922
     25 H103        2.2770    0.9180   -6.1340 hx        1 CHH      0.102922
     26 H81         0.5360   -2.1320   -4.8720 hx        1 CHH      0.102922
     27 H82        -0.6820   -1.2480   -5.9210 hx        1 CHH      0.102922
     28 H83        -0.8320   -1.1870   -4.0970 hx        1 CHH      0.102922
@<TRIPOS>BOND
     1    1    2 2   
     2    2    3 1   
     3    2    4 1   
     4    3   11 1   
     5    3   12 1   
     6    3   13 1   
     7    4    5 1   
     8    4   14 1   
     9    4   15 1   
    10    5    6 1   
    11    5   16 1   
    12    5   17 1   
    13    6    7 1   
    14    6   18 1   
    15    6   19 1   
    16    7    8 1   
    17    7    9 1   
    18    7   10 1   
    19    8   20 1   
    20    8   21 1   
    21    8   22 1   
    22    9   23 1   
    23    9   24 1   
    24    9   25 1   
    25   10   26 1   
    26   10   27 1   
    27   10   28 1   
@<TRIPOS>SUBSTRUCTURE
     1 CHH         1 TEMP              0 ****  ****    0 ROOT
