@<TRIPOS>MOLECULE
CHH
   28    27     1     0     0
SMALL
bcc


@<TRIPOS>ATOM
      1 O7         -0.0620   -0.0170    0.1610 o         1 CHH     -0.520100
      2 C5          1.1700   -0.0160    0.0960 c         1 CHH      0.571100
      3 C6          2.0590   -0.0250    1.2910 c3        1 CHH     -0.202100
      4 C4          1.8840   -0.0060   -1.2350 c3        1 CHH     -0.193400
      5 C3          0.8910   -0.0100   -2.3800 c3        1 CHH     -0.100400
      6 C2          1.6350    0.0060   -3.7060 c3        1 CHH      0.115800
      7 N1          0.7550    0.0110   -4.9330 n4        1 CHH     -0.603800
      8 C9         -0.1060    1.2300   -4.9540 c3        1 CHH      0.087767
      9 C10         1.6360    0.0150   -6.1410 c3        1 CHH      0.087767
     10 C8         -0.1070   -1.2070   -4.9630 c3        1 CHH      0.087767
     11 H61         2.7240    0.8740    1.2800 hc        1 CHH      0.078367
     12 H62         2.6980   -0.9420    1.2840 hc        1 CHH      0.078367
     13 H63         1.4540   -0.0150    2.2320 hc        1 CHH      0.078367
     14 H41         2.5510   -0.9060   -1.2880 hc        1 CHH      0.077700
     15 H42         2.5370    0.9060   -1.2820 hc        1 CHH      0.077700
     16 H31         0.2220    0.8870   -2.2790 hc        1 CHH      0.079700
     17 H32         0.2420   -0.9220   -2.2910 hc        1 CHH      0.079700
     18 H21         2.2960   -0.9060   -3.7770 hx        1 CHH      0.096700
     19 H22         2.2850    0.9270   -3.7620 hx        1 CHH      0.096700
     20 H91        -0.8280    1.1960   -4.0940 hx        1 CHH      0.102922
     21 H92        -0.6790    1.2610   -5.9180 hx        1 CHH      0.102922
     22 H93         0.5400    2.1430   -4.8690 hx        1 CHH      0.102922
     23 H101        2.2800   -0.9040   -6.1370 hx        1 CHH      0.102922
     24 H102        0.9990    0.0220   -7.0660 hx        1 CHH      0.102922
     25 H103        2.2840    0.9310   -6.1270 hx        1 CHH      0.102922
     26 H81         0.5380   -2.1220   -4.8780 hx        1 CHH      0.102922
     27 H82        -0.6750   -1.2350   -5.9300 hx        1 CHH      0.102922
     28 H83        -0.8330   -1.1770   -4.1060 hx        1 CHH      0.102922
@<TRIPOS>BOND
     1    1    2 2   
     2    2    3 1   
     3    2    4 1   
     4    3   11 1   
     5    3   12 1   
     6    3   13 1   
     7    4    5 1   
     8    4   14 1   
     9    4   15 1   
    10    5    6 1   
    11    5   16 1   
    12    5   17 1   
    13    6    7 1   
    14    6   18 1   
    15    6   19 1   
    16    7    8 1   
    17    7    9 1   
    18    7   10 1   
    19    8   20 1   
    20    8   21 1   
    21    8   22 1   
    22    9   23 1   
    23    9   24 1   
    24    9   25 1   
    25   10   26 1   
    26   10   27 1   
    27   10   28 1   
@<TRIPOS>SUBSTRUCTURE
     1 CHH         1 TEMP              0 ****  ****    0 ROOT
