@<TRIPOS>MOLECULE
CHI
   54    57     1     0     0
SMALL
bcc


@<TRIPOS>ATOM
      1 CL1        -2.2880   -1.0310   -7.6020 cl        1 CHI     -0.098400
      2 C1         -2.1280   -0.5350   -5.9810 ca        1 CHI     -0.013600
      3 C2         -2.8820    0.5720   -5.5350 ca        1 CHI     -0.096000
      4 C3         -2.7910    1.0220   -4.2300 ca        1 CHI     -0.139000
      5 C4         -1.9230    0.3420   -3.3580 ca        1 CHI     -0.031200
      6 N1         -1.5940    0.5940   -2.0240 na        1 CHI     -0.176400
      7 C5         -1.1560   -0.7960   -3.8130 ca        1 CHI     -0.109800
      8 C6         -1.2650   -1.2240   -5.1370 ca        1 CHI     -0.064000
      9 C7         -0.3930   -1.2580   -2.6770 cc        1 CHI     -0.091200
     10 C8         -0.7000   -0.4150   -1.6090 cd        1 CHI     -0.139300
     11 C9         -0.1570   -0.5300   -0.2360 c         1 CHI      0.695300
     12 O1          0.1370   -1.6410    0.2460 o         1 CHI     -0.588100
     13 N2          0.0660    0.6460    0.4640 n         1 CHI     -0.546900
     14 C10         0.3760    0.6390    1.8710 c3        1 CHI      0.042700
     15 C11        -0.8420    1.1100    2.7120 c         1 CHI      0.630100
     16 O2         -1.7060    1.8470    2.1880 o         1 CHI     -0.622100
     17 N3         -0.9240    0.7940    4.0600 n         1 CHI     -0.451800
     18 C12        -0.0920   -0.1950    4.7090 c3        1 CHI      0.083000
     19 C13        -0.8270   -1.4880    5.0640 c3        1 CHI     -0.122900
     20 C14        -2.0770   -1.1740    5.8810 c3        1 CHI      0.143100
     21 O3         -2.7620   -2.4060    6.0580 oh        1 CHI     -0.594800
     22 C15        -2.9530   -0.1500    5.1660 c3        1 CHI     -0.122900
     23 C16        -2.1460    1.0910    4.7870 c3        1 CHI      0.083000
     24 C17         1.5510    1.5720    2.2290 c3        1 CHI     -0.040100
     25 C18         2.8320    1.1250    1.6220 ca        1 CHI     -0.096300
     26 C19         3.4510    1.8890    0.6260 ca        1 CHI     -0.095500
     27 C20         4.6610    1.4880    0.0700 ca        1 CHI     -0.161000
     28 C21         5.2680    0.2990    0.5160 ca        1 CHI      0.127900
     29 F1          6.4470   -0.0990   -0.0180 f         1 CHI     -0.139900
     30 C22         4.6520   -0.4770    1.5160 ca        1 CHI     -0.161000
     31 C23         3.4440   -0.0570    2.0590 ca        1 CHI     -0.095500
     32 H21        -3.5550    1.0840   -6.2420 ha        1 CHI      0.148000
     33 H31        -3.3770    1.8850   -3.8880 ha        1 CHI      0.142000
     34 HN1        -2.1430    1.1380   -1.4090 hn        1 CHI      0.302700
     35 H61        -0.6800   -2.0850   -5.4930 ha        1 CHI      0.154000
     36 H7          0.2900   -2.1040   -2.6540 ha        1 CHI      0.176000
     37 HN2        -0.2670    1.5090    0.1020 hn        1 CHI      0.321500
     38 H101        0.6480   -0.4260    2.1460 h1        1 CHI      0.108700
     39 H121        0.2880    0.2750    5.6650 h1        1 CHI      0.061450
     40 H122        0.8060   -0.4450    4.0820 h1        1 CHI      0.061450
     41 H131       -0.1450   -2.1460    5.6600 hc        1 CHI      0.065200
     42 H132       -1.1190   -2.0490    4.1390 hc        1 CHI      0.065200
     43 H14        -1.7780   -0.7710    6.8910 h1        1 CHI      0.032700
     44 HO3        -3.5950   -2.2020    6.4970 ho        1 CHI      0.402000
     45 H151       -3.3990   -0.6210    4.2520 hc        1 CHI      0.065200
     46 H152       -3.7960    0.1640    5.8350 hc        1 CHI      0.065200
     47 H161       -1.8490    1.6350    5.7290 h1        1 CHI      0.061450
     48 H162       -2.7930    1.7790    4.1710 h1        1 CHI      0.061450
     49 H171        1.3090    2.6200    1.9070 hc        1 CHI      0.064700
     50 H172        1.6570    1.5800    3.3480 hc        1 CHI      0.064700
     51 H191        2.9770    2.8180    0.2750 ha        1 CHI      0.135000
     52 H201        5.1470    2.0870   -0.7130 ha        1 CHI      0.150500
     53 H221        5.1300   -1.4070    1.8550 ha        1 CHI      0.150500
     54 H231        2.9600   -0.6660    2.8380 ha        1 CHI      0.135000
@<TRIPOS>BOND
     1    1    2 1   
     2    2    3 ar  
     3    2    8 ar  
     4    3    4 ar  
     5    3   32 1   
     6    4    5 ar  
     7    4   33 1   
     8    5    6 1   
     9    5    7 ar  
    10    6   10 1   
    11    6   34 1   
    12    7    8 ar  
    13    7    9 1   
    14    8   35 1   
    15    9   10 2   
    16    9   36 1   
    17   10   11 1   
    18   11   12 2   
    19   11   13 1   
    20   13   14 1   
    21   13   37 1   
    22   14   15 1   
    23   14   24 1   
    24   14   38 1   
    25   15   16 2   
    26   15   17 1   
    27   17   18 1   
    28   17   23 1   
    29   18   19 1   
    30   18   39 1   
    31   18   40 1   
    32   19   20 1   
    33   19   41 1   
    34   19   42 1   
    35   20   21 1   
    36   20   22 1   
    37   20   43 1   
    38   21   44 1   
    39   22   23 1   
    40   22   45 1   
    41   22   46 1   
    42   23   47 1   
    43   23   48 1   
    44   24   25 1   
    45   24   49 1   
    46   24   50 1   
    47   25   26 ar  
    48   25   31 ar  
    49   26   27 ar  
    50   26   51 1   
    51   27   28 ar  
    52   27   52 1   
    53   28   29 1   
    54   28   30 ar  
    55   30   31 ar  
    56   30   53 1   
    57   31   54 1   
@<TRIPOS>SUBSTRUCTURE
     1 CHI         1 TEMP              0 ****  ****    0 ROOT
