@<TRIPOS>MOLECULE
CHI
   55    58     1     0     0
SMALL
bcc


@<TRIPOS>ATOM
      1 CL1         1.5660   -3.1620    1.2090 cl        1 CHI     -0.047400
      2 C1          2.9700   -2.3490    0.7200 ca        1 CHI     -0.009600
      3 C2          3.9120   -1.9660    1.7090 ca        1 CHI     -0.051000
      4 C3          5.0750   -1.2980    1.3790 ca        1 CHI     -0.146000
      5 C4          5.3030   -1.0040    0.0210 ca        1 CHI      0.006800
      6 N1          6.3470   -0.2940   -0.5820 na        1 CHI     -0.164400
      7 C5          4.3490   -1.4030   -0.9910 ca        1 CHI     -0.140800
      8 C6          3.1740   -2.0750   -0.6240 ca        1 CHI     -0.047000
      9 C7          4.8800   -0.9760   -2.2500 cc        1 CHI      0.026800
     10 C8          6.1110   -0.3370   -1.9830 cd        1 CHI     -0.250300
     11 C9          6.9190    0.2640   -3.0070 c         1 CHI      0.592300
     12 O1          6.8440    0.0900   -4.2200 o         1 CHI     -0.457100
     13 N2          7.9700    1.2760   -2.5780 n4        1 CHI     -0.670800
     14 C10         9.3690    0.8210   -2.8960 c3        1 CHI      0.051500
     15 C11         9.9060   -0.0860   -1.7590 c         1 CHI      0.651100
     16 O2          9.3350   -0.0130   -0.6420 o         1 CHI     -0.656100
     17 N3         11.0130   -0.8570   -1.9650 n         1 CHI     -0.416800
     18 C12        11.6110   -1.1200   -3.2610 c3        1 CHI      0.078000
     19 C13        11.5130   -2.5820   -3.6920 c3        1 CHI     -0.122400
     20 C14        12.0600   -3.5040   -2.6050 c3        1 CHI      0.145100
     21 O3         11.7650   -4.8250   -3.0320 oh        1 CHI     -0.587800
     22 C15        11.4020   -3.2170   -1.2570 c3        1 CHI     -0.122400
     23 C16        11.4900   -1.7360   -0.9020 c3        1 CHI      0.078000
     24 C17        10.3180    2.0210   -3.0550 c3        1 CHI     -0.048100
     25 C18         9.8220    2.9880   -4.0680 ca        1 CHI     -0.181300
     26 C19         9.2710    4.2110   -3.6660 ca        1 CHI     -0.098500
     27 C20         8.8340    5.1360   -4.6060 ca        1 CHI     -0.156500
     28 C21         8.9510    4.8380   -5.9790 ca        1 CHI      0.166900
     29 F1          8.5270    5.7290   -6.9000 f         1 CHI     -0.110900
     30 C22         9.5110    3.6120   -6.3910 ca        1 CHI     -0.156500
     31 C23         9.9440    2.7020   -5.4340 ca        1 CHI     -0.098500
     32 H21         3.7050   -2.2100    2.7660 ha        1 CHI      0.169000
     33 H31         5.7990   -1.0020    2.1520 ha        1 CHI      0.161000
     34 HN1         7.2660   -0.2940   -0.1960 hn        1 CHI      0.319700
     35 H61         2.4410   -2.3690   -1.3910 ha        1 CHI      0.169000
     36 H7          4.4210   -1.0980   -3.2330 ha        1 CHI      0.189000
     37 HN2         7.9090    1.4690   -1.5690 hn        1 CHI      0.472800
     38 H101        9.2980    0.2550   -3.8740 hx        1 CHI      0.131700
     39 H121       12.7020   -0.8340   -3.1790 h1        1 CHI      0.071950
     40 H122       11.1510   -0.4760   -4.0590 h1        1 CHI      0.071950
     41 H131       12.1070   -2.7210   -4.6320 hc        1 CHI      0.074450
     42 H132       10.4520   -2.8650   -3.9160 hc        1 CHI      0.074450
     43 H14        13.1750   -3.3700   -2.5180 h1        1 CHI      0.045700
     44 HO3        12.1820   -5.4260   -2.4030 ho        1 CHI      0.415000
     45 H151       10.3340   -3.5530   -1.2900 hc        1 CHI      0.074450
     46 H152       11.9170   -3.8010   -0.4510 hc        1 CHI      0.074450
     47 H161       12.5680   -1.4590   -0.7130 h1        1 CHI      0.071950
     48 H162       10.9050   -1.5410    0.0410 h1        1 CHI      0.071950
     49 H171       11.3200    1.6170   -3.3690 hc        1 CHI      0.093700
     50 H172       10.4610    2.5250   -2.0610 hc        1 CHI      0.093700
     51 H191        9.2100    4.4650   -2.5950 ha        1 CHI      0.141000
     52 H201        8.4100    6.1040   -4.2940 ha        1 CHI      0.171500
     53 H221        9.6090    3.3920   -7.4660 ha        1 CHI      0.171500
     54 H231       10.3960    1.7510   -5.7580 ha        1 CHI      0.141000
     55 H22         7.8040    2.1530   -3.0960 hn        1 CHI      0.472800
@<TRIPOS>BOND
     1    1    2 1   
     2    2    3 ar  
     3    2    8 ar  
     4    3    4 ar  
     5    3   32 1   
     6    4    5 ar  
     7    4   33 1   
     8    5    6 1   
     9    5    7 ar  
    10    6   10 1   
    11    6   34 1   
    12    7    8 ar  
    13    7    9 1   
    14    8   35 1   
    15    9   10 2   
    16    9   36 1   
    17   10   11 1   
    18   11   12 2   
    19   11   13 1   
    20   13   14 1   
    21   13   37 1   
    22   13   55 1   
    23   14   15 1   
    24   14   24 1   
    25   14   38 1   
    26   15   16 2   
    27   15   17 1   
    28   17   18 1   
    29   17   23 1   
    30   18   19 1   
    31   18   39 1   
    32   18   40 1   
    33   19   20 1   
    34   19   41 1   
    35   19   42 1   
    36   20   21 1   
    37   20   22 1   
    38   20   43 1   
    39   21   44 1   
    40   22   23 1   
    41   22   45 1   
    42   22   46 1   
    43   23   47 1   
    44   23   48 1   
    45   24   25 1   
    46   24   49 1   
    47   24   50 1   
    48   25   26 ar  
    49   25   31 ar  
    50   26   27 ar  
    51   26   51 1   
    52   27   28 ar  
    53   27   52 1   
    54   28   29 1   
    55   28   30 ar  
    56   30   31 ar  
    57   30   53 1   
    58   31   54 1   
@<TRIPOS>SUBSTRUCTURE
     1 CHI         1 TEMP              0 ****  ****    0 ROOT
