@<TRIPOS>MOLECULE
CHI
   55    58     1     0     0
SMALL
bcc


@<TRIPOS>ATOM
      1 CL1         1.5610   -3.1240    1.2310 cl        1 CHI     -0.047400
      2 C1          2.9660   -2.3170    0.7350 ca        1 CHI     -0.009600
      3 C2          3.9070   -1.9250    1.7220 ca        1 CHI     -0.051000
      4 C3          5.0710   -1.2610    1.3870 ca        1 CHI     -0.146000
      5 C4          5.3010   -0.9800    0.0260 ca        1 CHI      0.006800
      6 N1          6.3460   -0.2770   -0.5830 na        1 CHI     -0.164400
      7 C5          4.3470   -1.3880   -0.9830 ca        1 CHI     -0.140800
      8 C6          3.1710   -2.0560   -0.6110 ca        1 CHI     -0.047000
      9 C7          4.8800   -0.9740   -2.2460 cc        1 CHI      0.026800
     10 C8          6.1100   -0.3330   -1.9830 cd        1 CHI     -0.250300
     11 C9          6.9200    0.2580   -3.0120 c         1 CHI      0.592300
     12 O1          6.8460    0.0720   -4.2240 o         1 CHI     -0.457100
     13 N2          7.9710    1.2740   -2.5920 n4        1 CHI     -0.670800
     14 C10         9.3700    0.8150   -2.9040 c3        1 CHI      0.051500
     15 C11         9.9050   -0.0810   -1.7590 c         1 CHI      0.651100
     16 O2          9.3340    0.0030   -0.6430 o         1 CHI     -0.656100
     17 N3         11.0120   -0.8550   -1.9570 n         1 CHI     -0.416800
     18 C12        11.6120   -1.1290   -3.2490 c3        1 CHI      0.078000
     19 C13        11.5140   -2.5950   -3.6660 c3        1 CHI     -0.122400
     20 C14        12.0590   -3.5070   -2.5710 c3        1 CHI      0.145100
     21 O3         11.7650   -4.8320   -2.9860 oh        1 CHI     -0.587800
     22 C15        11.4010   -3.2070   -1.2260 c3        1 CHI     -0.122400
     23 C16        11.4890   -1.7230   -0.8840 c3        1 CHI      0.078000
     24 C17        10.3190    2.0140   -3.0740 c3        1 CHI     -0.048100
     25 C18         9.8240    2.9710   -4.0960 ca        1 CHI     -0.181300
     26 C19         9.2730    4.1980   -3.7050 ca        1 CHI     -0.098500
     27 C20         8.8370    5.1150   -4.6550 ca        1 CHI     -0.156500
     28 C21         8.9550    4.8040   -6.0250 ca        1 CHI      0.166900
     29 F1          8.5330    5.6860   -6.9540 f         1 CHI     -0.110900
     30 C22         9.5170    3.5740   -6.4250 ca        1 CHI     -0.156500
     31 C23         9.9480    2.6730   -5.4600 ca        1 CHI     -0.098500
     32 H21         3.6990   -2.1590    2.7800 ha        1 CHI      0.169000
     33 H31         5.7940   -0.9580    2.1580 ha        1 CHI      0.161000
     34 HN1         7.2640   -0.2740   -0.1960 hn        1 CHI      0.319700
     35 H61         2.4390   -2.3570   -1.3760 ha        1 CHI      0.169000
     36 H7          4.4220   -1.1060   -3.2280 ha        1 CHI      0.189000
     37 HN2         7.9090    1.4760   -1.5850 hn        1 CHI      0.472800
     38 H101        9.3000    0.2400   -3.8770 hx        1 CHI      0.131700
     39 H121       12.7030   -0.8420   -3.1690 h1        1 CHI      0.071950
     40 H122       11.1530   -0.4920   -4.0540 h1        1 CHI      0.071950
     41 H131       12.1090   -2.7420   -4.6050 hc        1 CHI      0.074450
     42 H132       10.4540   -2.8800   -3.8890 hc        1 CHI      0.074450
     43 H14        13.1750   -3.3720   -2.4830 h1        1 CHI      0.045700
     44 HO3        12.1820   -5.4270   -2.3500 ho        1 CHI      0.415000
     45 H151       10.3320   -3.5440   -1.2570 hc        1 CHI      0.074450
     46 H152       11.9140   -3.7840   -0.4140 hc        1 CHI      0.074450
     47 H161       12.5660   -1.4450   -0.6980 h1        1 CHI      0.071950
     48 H162       10.9020   -1.5200    0.0560 h1        1 CHI      0.071950
     49 H171       10.4610    2.5270   -2.0840 hc        1 CHI      0.093700
     50 H172       11.3220    1.6070   -3.3830 hc        1 CHI      0.093700
     51 H191        9.2100    4.4610   -2.6370 ha        1 CHI      0.141000
     52 H201        8.4130    6.0850   -4.3520 ha        1 CHI      0.171500
     53 H221        9.6160    3.3450   -7.4980 ha        1 CHI      0.171500
     54 H231       10.4010    1.7200   -5.7740 ha        1 CHI      0.141000
     55 H22         7.8050    2.1460   -3.1190 hn        1 CHI      0.472800
@<TRIPOS>BOND
     1    1    2 1   
     2    2    3 ar  
     3    2    8 ar  
     4    3    4 ar  
     5    3   32 1   
     6    4    5 ar  
     7    4   33 1   
     8    5    6 1   
     9    5    7 ar  
    10    6   10 1   
    11    6   34 1   
    12    7    8 ar  
    13    7    9 1   
    14    8   35 1   
    15    9   10 2   
    16    9   36 1   
    17   10   11 1   
    18   11   12 2   
    19   11   13 1   
    20   13   14 1   
    21   13   37 1   
    22   13   55 1   
    23   14   15 1   
    24   14   24 1   
    25   14   38 1   
    26   15   16 2   
    27   15   17 1   
    28   17   18 1   
    29   17   23 1   
    30   18   19 1   
    31   18   39 1   
    32   18   40 1   
    33   19   20 1   
    34   19   41 1   
    35   19   42 1   
    36   20   21 1   
    37   20   22 1   
    38   20   43 1   
    39   21   44 1   
    40   22   23 1   
    41   22   45 1   
    42   22   46 1   
    43   23   47 1   
    44   23   48 1   
    45   24   25 1   
    46   24   49 1   
    47   24   50 1   
    48   25   26 ar  
    49   25   31 ar  
    50   26   27 ar  
    51   26   51 1   
    52   27   28 ar  
    53   27   52 1   
    54   28   29 1   
    55   28   30 ar  
    56   30   31 ar  
    57   30   53 1   
    58   31   54 1   
@<TRIPOS>SUBSTRUCTURE
     1 CHI         1 TEMP              0 ****  ****    0 ROOT
