@<TRIPOS>MOLECULE
CHI
   55    58     1     0     0
SMALL
bcc


@<TRIPOS>ATOM
      1 Cl1         1.5900   -3.1860    1.2310 cl        1 CHI     -0.047400
      2 C1          2.9910   -2.3700    0.7400 ca        1 CHI     -0.009600
      3 C2          3.9420   -2.0000    1.7260 ca        1 CHI     -0.051000
      4 C3          5.1040   -1.3310    1.3950 ca        1 CHI     -0.146000
      5 C4          5.3210   -1.0210    0.0380 ca        1 CHI      0.006800
      6 N1          6.3620   -0.3060   -0.5650 na        1 CHI     -0.164400
      7 C5          4.3580   -1.4060   -0.9710 ca        1 CHI     -0.140800
      8 C6          3.1850   -2.0800   -0.6020 ca        1 CHI     -0.047000
      9 C7          4.8800   -0.9660   -2.2290 cc        1 CHI      0.026800
     10 C8          6.1140   -0.3330   -1.9640 cd        1 CHI     -0.250300
     11 C9          6.9150    0.2790   -2.9880 c         1 CHI      0.592300
     12 O1          6.8290    0.1200   -4.2030 o         1 CHI     -0.457100
     13 N2          7.9720    1.2830   -2.5550 ny        1 CHI     -0.670800
     14 C10         9.3670    0.8290   -2.8900 c3        1 CHI      0.051500
     15 C11         9.9110   -0.0930   -1.7690 c         1 CHI      0.651100
     16 O2          9.3500   -0.0310   -0.6460 o         1 CHI     -0.656100
     17 N3         11.0140   -0.8640   -1.9920 n         1 CHI     -0.416800
     18 C12        11.6010   -1.1140   -3.2960 c3        1 CHI      0.078000
     19 C13        11.4950   -2.5700   -3.7420 c3        1 CHI     -0.122400
     20 C14        12.0480   -3.5070   -2.6700 c3        1 CHI      0.145100
     21 O3         11.7460   -4.8210   -3.1100 oh        1 CHI     -0.587800
     22 C15        11.4030   -3.2320   -1.3140 c3        1 CHI     -0.122400
     23 C16        11.4980   -1.7560   -0.9430 c3        1 CHI      0.078000
     24 C17        10.3180    2.0280   -3.0430 c3        1 CHI     -0.048100
     25 C18         9.8160    3.0070   -4.0420 ca        1 CHI     -0.181300
     26 C19         9.2710    4.2270   -3.6210 ca        1 CHI     -0.098500
     27 C20         8.8290    5.1640   -4.5480 ca        1 CHI     -0.156500
     28 C21         8.9340    4.8810   -5.9240 ca        1 CHI      0.166900
     29 F1          8.5050    5.7840   -6.8310 f         1 CHI     -0.110900
     30 C22         9.4880    3.6590   -6.3550 ca        1 CHI     -0.156500
     31 C23         9.9270    2.7370   -5.4120 ca        1 CHI     -0.098500
     32 H21         3.7430   -2.2560    2.7810 ha        1 CHI      0.169000
     33 H31         5.8340   -1.0450    2.1650 ha        1 CHI      0.161000
     34 HN1         7.2840   -0.3130   -0.1860 hn        1 CHI      0.319700
     35 H61         2.4450   -2.3640   -1.3660 ha        1 CHI      0.169000
     36 H7          4.4130   -1.0760   -3.2090 ha        1 CHI      0.189000
     37 HN2         7.9200    1.4650   -1.5440 hn        1 CHI      0.472800
     38 H101        9.2870    0.2740   -3.8740 hx        1 CHI      0.131700
     39 H121       11.1360   -0.4600   -4.0830 h1        1 CHI      0.071950
     40 H122       12.6930   -0.8320   -3.2200 h1        1 CHI      0.071950
     41 H131       10.4320   -2.8480   -3.9610 hc        1 CHI      0.074200
     42 H132       12.0810   -2.7000   -4.6890 hc        1 CHI      0.074200
     43 H14        13.1650   -3.3760   -2.5910 h1        1 CHI      0.045700
     44 HO3        12.1670   -5.4300   -2.4910 ho        1 CHI      0.415000
     45 H151       10.3330   -3.5660   -1.3420 hc        1 CHI      0.074200
     46 H152       11.9220   -3.8270   -0.5190 hc        1 CHI      0.074200
     47 H161       10.9210   -1.5700    0.0070 h1        1 CHI      0.071950
     48 H162       12.5780   -1.4840   -0.7600 h1        1 CHI      0.071950
     49 H171       10.4700    2.5210   -2.0450 hc        1 CHI      0.093700
     50 H172       11.3170    1.6260   -3.3700 hc        1 CHI      0.093700
     51 H191        9.2190    4.4690   -2.5470 ha        1 CHI      0.141000
     52 H201        8.4100    6.1290   -4.2200 ha        1 CHI      0.171500
     53 H221        9.5770    3.4510   -7.4330 ha        1 CHI      0.171500
     54 H231       10.3740    1.7890   -5.7500 ha        1 CHI      0.141000
     55 H22         7.8040    2.1670   -3.0630 hn        1 CHI      0.472800
@<TRIPOS>BOND
     1    1    2 1   
     2    2    3 ar  
     3    2    8 ar  
     4    3    4 ar  
     5    3   32 1   
     6    4    5 ar  
     7    4   33 1   
     8    5    6 1   
     9    5    7 ar  
    10    6   10 1   
    11    6   34 1   
    12    7    8 ar  
    13    7    9 1   
    14    8   35 1   
    15    9   10 2   
    16    9   36 1   
    17   10   11 1   
    18   11   12 2   
    19   11   13 1   
    20   13   14 1   
    21   13   37 1   
    22   13   55 1   
    23   14   15 1   
    24   14   24 1   
    25   14   38 1   
    26   15   16 2   
    27   15   17 1   
    28   17   18 1   
    29   17   23 1   
    30   18   19 1   
    31   18   39 1   
    32   18   40 1   
    33   19   20 1   
    34   19   41 1   
    35   19   42 1   
    36   20   21 1   
    37   20   22 1   
    38   20   43 1   
    39   21   44 1   
    40   22   23 1   
    41   22   45 1   
    42   22   46 1   
    43   23   47 1   
    44   23   48 1   
    45   24   25 1   
    46   24   49 1   
    47   24   50 1   
    48   25   26 ar  
    49   25   31 ar  
    50   26   27 ar  
    51   26   51 1   
    52   27   28 ar  
    53   27   52 1   
    54   28   29 1   
    55   28   30 ar  
    56   30   31 ar  
    57   30   53 1   
    58   31   54 1   
@<TRIPOS>SUBSTRUCTURE
     1 CHI         1 TEMP              0 ****  ****    0 ROOT
