@<TRIPOS>MOLECULE
CHI
   54    48     1     0     0
SMALL
bcc


@<TRIPOS>ATOM
      1 CL1        -8.6040   -2.4050    1.9630 cl        1 CHI     -0.017000
      2 C1         -6.9420   -1.9140    2.1750 c2        1 CHI     -0.091000
      3 C2         -6.2410   -2.3060    3.3080 c2        1 CHI     -0.093000
      4 C3         -4.8710   -2.1120    3.3760 c1        1 CHI     -0.139000
      5 C4         -4.1930   -1.5210    2.3020 c1        1 CHI     -0.042500
      6 N1         -2.8400   -1.2710    2.0780 n1        1 CHI     -0.197000
      7 C5         -4.8890   -1.1320    1.1790 c1        1 CHI     -0.042500
      8 C6         -6.2710   -1.3280    1.1110 c1        1 CHI     -0.063000
      9 C7         -3.9760   -0.6430    0.2590 c1        1 CHI     -0.097000
     10 C8         -2.7090   -0.7320    0.8220 c1        1 CHI     -0.102000
     11 C9         -1.5380   -0.0640    0.0400 c1        1 CHI      0.369000
     12 O1         -1.7140    0.3310   -1.0930 o         1 CHI     -0.357000
     13 N2         -0.2380    0.0940    0.6720 n3        1 CHI     -0.377000
     14 C10         0.7450    0.9420    0.0800 c3        1 CHI      0.014000
     15 C11         2.1300    0.5740    0.6230 c2        1 CHI      0.296000
     16 O2          2.5170    1.0530    1.6700 o         1 CHI     -0.384000
     17 N3          2.9800   -0.3720   -0.1080 n         1 CHI     -0.313000
     18 C12         4.3040   -0.7830    0.3640 c3        1 CHI     -0.032500
     19 C13         4.4590   -2.3090    0.4060 c3        1 CHI     -0.195500
     20 C14         4.0740   -2.9500   -0.8870 c3        1 CHI      0.029000
     21 O3          4.0700   -4.3780   -0.7160 oh        1 CHI     -0.325000
     22 C15         2.7210   -2.5140   -1.3480 c3        1 CHI     -0.195500
     23 C16         2.5810   -0.9900   -1.3740 c3        1 CHI     -0.032500
     24 C17         0.4380    2.3870    0.4200 c3        1 CHI     -0.136000
     25 C18         0.6580    3.2940   -0.8630 c2        1 CHI     -0.100000
     26 C19         1.7350    4.1690   -0.9170 c2        1 CHI     -0.091000
     27 C20         1.8970    5.0180   -2.0250 c1        1 CHI     -0.167000
     28 C21         0.9820    4.9830   -3.0630 c1        1 CHI      0.092000
     29 F1          1.1280    5.7960   -4.1070 f         1 CHI     -0.106000
     30 C22        -0.0900    4.1130   -3.0100 c1        1 CHI     -0.167000
     31 C23        -0.2530    3.2590   -1.8960 c1        1 CHI     -0.100000
     32 H21        -6.7220   -2.6650    4.0800 ha        1 CHI      0.150000
     33 H31        -4.3830   -2.3850    4.1650 ha        1 CHI      0.143000
     34 HN1        -2.1690   -1.4350    2.6560 DU        1 CHI      0.212500
     35 H61        -6.7520   -1.1070    0.2960 ha        1 CHI      0.155000
     36 H7         -4.1840   -0.3000   -0.6220 DU        1 CHI      0.212500
     37 HN2        -0.0600   -0.3310    1.4580 hn        1 CHI      0.236000
     38 H101        0.7340    0.8260   -0.8880 h1        1 CHI      0.146000
     39 H121        4.4420   -0.4290    1.2560 h1        1 CHI      0.104500
     40 H122        4.9850   -0.4090   -0.2350 h1        1 CHI      0.104500
     41 H131        3.8950   -2.6640    1.1150 hc        1 CHI      0.100750
     42 H132        5.3940   -2.5280    0.6030 hc        1 CHI      0.100750
     43 H14         4.7350   -2.7130   -1.5700 h1        1 CHI      0.074000
     44 HO3         4.7840   -4.7270   -1.1180 ho        1 CHI      0.200000
     45 H151        2.0450   -2.8840   -0.7440 hc        1 CHI      0.100750
     46 H152        2.5650   -2.8630   -2.2510 hc        1 CHI      0.100750
     47 H161        1.6460   -0.7590   -1.5580 h1        1 CHI      0.104500
     48 H162        3.1450   -0.6320   -2.0950 h1        1 CHI      0.104500
     49 H171        1.0370    2.6880    1.1400 hc        1 CHI      0.109500
     50 H172       -0.4840    2.4620    0.7150 hc        1 CHI      0.109500
     51 H191        2.3810    4.1940   -0.1840 ha        1 CHI      0.156000
     52 H201        2.6560    5.6340   -2.0630 ha        1 CHI      0.150000
     53 H221       -0.7330    4.0880   -3.7410 ha        1 CHI      0.150000
     54 H231       -1.0060    2.6480   -1.8590 ha        1 CHI      0.140000
@<TRIPOS>BOND
     1    1    2 1   
     2    2    3 1   
     3    2    8 1   
     4    3    4 1   
     5    3   32 1   
     6    4   33 1   
     7    5    7 1   
     8    6   10 1   
     9    8   35 1   
    10    9   10 1   
    11   11   12 1   
    12   11   13 1   
    13   13   14 1   
    14   13   37 1   
    15   14   15 1   
    16   14   24 1   
    17   14   38 1   
    18   15   16 1   
    19   15   17 1   
    20   17   18 1   
    21   17   23 1   
    22   18   19 1   
    23   18   39 1   
    24   18   40 1   
    25   19   20 1   
    26   19   41 1   
    27   19   42 1   
    28   20   21 1   
    29   20   22 1   
    30   20   43 1   
    31   21   44 1   
    32   22   23 1   
    33   22   45 1   
    34   22   46 1   
    35   23   47 1   
    36   23   48 1   
    37   24   25 1   
    38   24   49 1   
    39   24   50 1   
    40   25   26 1   
    41   25   31 1   
    42   26   27 1   
    43   26   51 1   
    44   27   52 1   
    45   28   29 1   
    46   28   30 1   
    47   30   53 1   
    48   31   54 1   
@<TRIPOS>SUBSTRUCTURE
     1 CHI         1 TEMP              0 ****  ****    0 ROOT
