@<TRIPOS>MOLECULE
CHJ
   32    34     1     0     0
SMALL
bcc


@<TRIPOS>ATOM
      1 C1          0.4190    1.0580    0.2970 ca        1 CHJ     -0.215000
      2 C2          1.8080    1.0590    0.5230 ca        1 CHJ      0.172100
      3 O13         2.7420    1.5410   -0.3850 os        1 CHJ     -0.225200
      4 C14         2.2510    1.9590   -1.6190 ca        1 CHJ      0.045100
      5 C15         2.2220    1.0610   -2.7080 ca        1 CHJ      0.139100
      6 O20         2.5290   -0.2510   -2.4550 oh        1 CHJ     -0.472100
      7 C16         1.8810    1.5270   -3.9860 ca        1 CHJ     -0.210000
      8 C17         1.5730    2.8770   -4.1600 ca        1 CHJ      0.058400
      9 Cl1         1.1600    3.4420   -5.7070 cl        1 CHJ     -0.078400
     10 C18         1.5990    3.7690   -3.0820 ca        1 CHJ     -0.155000
     11 C19         1.9380    3.3080   -1.8120 ca        1 CHJ     -0.088000
     12 C3          2.3550    0.5790    1.7170 ca        1 CHJ     -0.178000
     13 C4          1.4710    0.0930    2.6940 ca        1 CHJ      0.181100
     14 C5          0.0730    0.0800    2.4940 ca        1 CHJ     -0.180800
     15 C6         -0.4300    0.5710    1.2760 ca        1 CHJ     -0.044000
     16 C7         -0.7710   -0.4390    3.5500 cc        1 CHJ      0.055600
     17 C12        -2.2400   -0.4640    3.3630 c3        1 CHJ     -0.073900
     18 C8         -0.1920   -0.8920    4.6880 cd        1 CHJ     -0.271200
     19 C9          1.2480   -0.8650    4.8670 c         1 CHJ      0.723800
     20 O10         1.9240   -1.2320    5.8270 o         1 CHJ     -0.566500
     21 O11         2.0640   -0.3640    3.8490 os        1 CHJ     -0.324200
     22 H1          0.0180    1.4370   -0.6540 ha        1 CHJ      0.151000
     23 H2          2.5140   -0.7310   -3.2970 ho        1 CHJ      0.426000
     24 H3          1.8630    0.8310   -4.8390 ha        1 CHJ      0.155000
     25 H4          1.3590    4.8320   -3.2340 ha        1 CHJ      0.157000
     26 H5          1.9730    3.9990   -0.9560 ha        1 CHJ      0.159000
     27 H6          3.4400    0.5760    1.8890 ha        1 CHJ      0.178000
     28 H7         -1.5170    0.5680    1.1010 ha        1 CHJ      0.140000
     29 H8         -2.7550   -0.8900    4.2590 hc        1 CHJ      0.058033
     30 H9         -2.6240    0.5730    3.1920 hc        1 CHJ      0.058033
     31 H10        -2.5030   -1.0900    2.4730 hc        1 CHJ      0.058033
     32 H11        -0.7680   -1.3000    5.5320 ha        1 CHJ      0.168000
@<TRIPOS>BOND
     1    1    2 ar  
     2    1   15 ar  
     3    1   22 1   
     4    2    3 1   
     5    2   12 ar  
     6    3    4 1   
     7    4    5 ar  
     8    4   11 ar  
     9    5    6 1   
    10    5    7 ar  
    11    6   23 1   
    12    7    8 ar  
    13    7   24 1   
    14    8    9 1   
    15    8   10 ar  
    16   10   11 ar  
    17   10   25 1   
    18   11   26 1   
    19   12   13 ar  
    20   12   27 1   
    21   13   14 ar  
    22   13   21 1   
    23   14   15 ar  
    24   14   16 1   
    25   15   28 1   
    26   16   17 1   
    27   16   18 2   
    28   17   29 1   
    29   17   30 1   
    30   17   31 1   
    31   18   19 1   
    32   18   32 1   
    33   19   20 2   
    34   19   21 1   
@<TRIPOS>SUBSTRUCTURE
     1 CHJ         1 TEMP              0 ****  ****    0 ROOT
