@<TRIPOS>MOLECULE
CHJ
   32    34     1     0     0
SMALL
bcc


@<TRIPOS>ATOM
      1 C1          0.4200    1.0590    0.2970 ca        1 CHJ     -0.215000
      2 C2          1.8080    1.0560    0.5250 ca        1 CHJ      0.172100
      3 O13         2.7440    1.5420   -0.3790 os        1 CHJ     -0.225200
      4 C14         2.2550    1.9690   -1.6100 ca        1 CHJ      0.045100
      5 C15         2.2250    1.0790   -2.7060 ca        1 CHJ      0.139100
      6 O20         2.5290   -0.2340   -2.4620 oh        1 CHJ     -0.472100
      7 C16         1.8870    1.5550   -3.9810 ca        1 CHJ     -0.210000
      8 C17         1.5820    2.9080   -4.1450 ca        1 CHJ      0.058400
      9 CL1         1.1710    3.4840   -5.6890 cl        1 CHJ     -0.078400
     10 C18         1.6090    3.7920   -3.0610 ca        1 CHJ     -0.155000
     11 C19         1.9450    3.3210   -1.7940 ca        1 CHJ     -0.088000
     12 C3          2.3530    0.5670    1.7160 ca        1 CHJ     -0.178000
     13 C4          1.4670    0.0770    2.6890 ca        1 CHJ      0.181100
     14 C5          0.0690    0.0680    2.4870 ca        1 CHJ     -0.180800
     15 C6         -0.4310    0.5680    1.2730 ca        1 CHJ     -0.044000
     16 C7         -0.7770   -0.4570    3.5400 cc        1 CHJ      0.055600
     17 C12        -2.2450   -0.4780    3.3510 c3        1 CHJ     -0.073900
     18 C8         -0.2000   -0.9180    4.6760 cd        1 CHJ     -0.271200
     19 C9          1.2410   -0.8950    4.8550 c         1 CHJ      0.723800
     20 O10         1.9140   -1.2700    5.8140 o         1 CHJ     -0.566500
     21 O11         2.0590   -0.3900    3.8420 os        1 CHJ     -0.324200
     22 H1          0.0200    1.4460   -0.6510 ha        1 CHJ      0.151000
     23 H2          2.5140   -0.7090   -3.3080 ho        1 CHJ      0.426000
     24 H3          1.8680    0.8660   -4.8380 ha        1 CHJ      0.155000
     25 H4          1.3710    4.8570   -3.2050 ha        1 CHJ      0.157000
     26 H5          1.9810    4.0050   -0.9330 ha        1 CHJ      0.159000
     27 H6          3.4380    0.5610    1.8900 ha        1 CHJ      0.178000
     28 H7         -1.5180    0.5680    1.0970 ha        1 CHJ      0.140000
     29 H8         -2.7620   -0.9080    4.2440 hc        1 CHJ      0.058033
     30 H9         -2.6270    0.5620    3.1870 hc        1 CHJ      0.058033
     31 H10        -2.5090   -1.0970    2.4570 hc        1 CHJ      0.058033
     32 H11        -0.7780   -1.3300    5.5160 ha        1 CHJ      0.168000
@<TRIPOS>BOND
     1    1    2 ar  
     2    1   15 ar  
     3    1   22 1   
     4    2    3 1   
     5    2   12 ar  
     6    3    4 1   
     7    4    5 ar  
     8    4   11 ar  
     9    5    6 1   
    10    5    7 ar  
    11    6   23 1   
    12    7    8 ar  
    13    7   24 1   
    14    8    9 1   
    15    8   10 ar  
    16   10   11 ar  
    17   10   25 1   
    18   11   26 1   
    19   12   13 ar  
    20   12   27 1   
    21   13   14 ar  
    22   13   21 1   
    23   14   15 ar  
    24   14   16 1   
    25   15   28 1   
    26   16   17 1   
    27   16   18 2   
    28   17   29 1   
    29   17   30 1   
    30   17   31 1   
    31   18   19 1   
    32   18   32 1   
    33   19   20 2   
    34   19   21 1   
@<TRIPOS>SUBSTRUCTURE
     1 CHJ         1 TEMP              0 ****  ****    0 ROOT
