@<TRIPOS>MOLECULE
CHJ
   32    24     1     0     0
SMALL
bcc


@<TRIPOS>ATOM
      1 C1         -0.9580   -0.9300   -0.7130 c1        1 CHJ     -0.215000
      2 C2          0.4440   -0.9980   -0.6620 c1        1 CHJ      0.127000
      3 O13         1.1880   -1.0570   -1.8530 o         1 CHJ     -0.135000
      4 C14         1.4120    0.2450   -2.3300 c1        1 CHJ      0.000000
      5 C15         0.8700    0.6410   -3.5420 c1        1 CHJ     -0.009000
      6 O20         0.0910   -0.2590   -4.2910 o         1 CHJ     -0.226000
      7 C16         1.1370    1.9070   -4.0400 c1        1 CHJ     -0.168667
      8 C17         1.9470    2.7770   -3.3260 c1        1 CHJ     -0.020000
      9 CL1         2.2640    4.3770   -3.9420 cl        1 CHJ     -0.000000
     10 C18         2.4890    2.3810   -2.1150 c1        1 CHJ     -0.155000
     11 C19         2.2220    1.1150   -1.6170 c1        1 CHJ     -0.088000
     12 C3          1.0980   -1.0120    0.5700 c2        1 CHJ     -0.178000
     13 C4          0.3580   -0.9580    1.7560 c1        1 CHJ      0.136000
     14 C5         -1.0450   -0.8900    1.7050 c1        1 CHJ     -0.009000
     15 C6         -1.6980   -0.8760    0.4690 c1        1 CHJ     -0.168667
     16 C7         -1.8430   -0.8630    2.9820 c1        1 CHJ     -0.009000
     17 C12        -3.3530   -0.9520    2.9330 c2        1 CHJ     -0.196000
     18 C8         -1.1580   -0.8800    4.2550 c1        1 CHJ     -0.168667
     19 C9          0.3160   -0.9020    4.2920 c1        1 CHJ      0.339000
     20 O10         0.8960   -0.9870    5.3550 o         1 CHJ     -0.291000
     21 O11         1.0640   -0.8580    3.0680 os        1 CHJ     -0.189000
     22 H1         -1.4140   -0.9100   -1.5750 ha        1 CHJ      0.151000
     23 H2          0.5560   -0.5380   -4.9950 ho        1 CHJ      0.225000
     24 H3          0.7540    2.1870   -4.8940 ha        1 CHJ      0.154333
     25 H4          3.0600    2.9930   -1.6130 ha        1 CHJ      0.157000
     26 H5          2.6050    0.8360   -0.7630 ha        1 CHJ      0.159000
     27 H6          2.0720   -1.0590    0.6050 ha        1 CHJ      0.178000
     28 H7         -2.6730   -0.8290    0.4330 ha        1 CHJ      0.154333
     29 H8         -3.6190   -1.6540    2.3000 ha        1 CHJ      0.097333
     30 H9         -3.7210   -0.0930    2.6410 ha        1 CHJ      0.097333
     31 H10        -3.6960   -1.1680    3.8250 ha        1 CHJ      0.097333
     32 H11        -1.6650   -0.7860    5.0830 ha        1 CHJ      0.154333
@<TRIPOS>BOND
     1    1    2 1   
     2    1   22 1   
     3    2   12 1   
     4    3    4 1   
     5    4   11 1   
     6    5    7 1   
     7    6   23 1   
     8    7   24 1   
     9    8    9 1   
    10    8   10 1   
    11   10   25 1   
    12   11   26 1   
    13   12   13 1   
    14   12   27 1   
    15   13   21 1   
    16   14   15 1   
    17   15   28 1   
    18   16   18 1   
    19   17   29 1   
    20   17   30 1   
    21   17   31 1   
    22   18   32 1   
    23   19   20 1   
    24   19   21 1   
@<TRIPOS>SUBSTRUCTURE
     1 CHJ         1 TEMP              0 ****  ****    0 ROOT
