@<TRIPOS>MOLECULE
CHJ
   32    34     1     0     0
SMALL
bcc


@<TRIPOS>ATOM
      1 C1         -0.4110    0.4940   -0.7350 ca        1 CHJ     -0.212000
      2 C2         -0.3390   -0.5670    0.1850 ca        1 CHJ      0.153100
      3 O13         0.8500   -1.1730    0.5730 os        1 CHJ     -0.250200
      4 C14         2.0290   -0.5110    0.2280 ca        1 CHJ     -0.008900
      5 C15         2.9250   -1.2000   -0.6130 ca        1 CHJ      0.145100
      6 O20         2.6380   -2.4140   -1.1780 oh        1 CHJ     -0.484100
      7 C16         4.1850   -0.6440   -0.8920 ca        1 CHJ     -0.150000
      8 C17         4.5180    0.5860   -0.3260 ca        1 CHJ      0.048400
      9 CL1         6.0360    1.2690   -0.6620 cl        1 CHJ     -0.078400
     10 C18         3.6270    1.2690    0.5140 ca        1 CHJ     -0.152000
     11 C19         2.3810    0.7180    0.7940 ca        1 CHJ     -0.095000
     12 C3         -1.4870   -1.1200    0.7580 ca        1 CHJ     -0.177000
     13 C4         -2.7300   -0.5860    0.3790 ca        1 CHJ      0.180100
     14 C5         -2.8330    0.4780   -0.5440 ca        1 CHJ     -0.174800
     15 C6         -1.6500    1.0040   -1.0890 ca        1 CHJ     -0.044000
     16 C7         -4.1530    0.9730   -0.8820 cc        1 CHJ      0.052600
     17 C12        -4.2860    2.0860   -1.8490 c3        1 CHJ     -0.074900
     18 C8         -5.2350    0.4010   -0.3010 cd        1 CHJ     -0.266200
     19 C9         -5.0980   -0.6910    0.6460 c         1 CHJ      0.722800
     20 O10        -5.9670   -1.3120    1.2550 o         1 CHJ     -0.561500
     21 O11        -3.8260   -1.1710    0.9720 os        1 CHJ     -0.324200
     22 H1          0.5100    0.9120   -1.1670 ha        1 CHJ      0.157000
     23 H2          1.7580   -2.6880   -0.8690 ho        1 CHJ      0.441000
     24 H3          4.8810   -1.1890   -1.5470 ha        1 CHJ      0.172000
     25 H4          3.9120    2.2350    0.9570 ha        1 CHJ      0.156000
     26 H5          1.6710    1.2370    1.4550 ha        1 CHJ      0.156000
     27 H6         -1.4280   -1.9460    1.4800 ha        1 CHJ      0.178000
     28 H7         -1.7100    1.8330   -1.8120 ha        1 CHJ      0.144000
     29 H8         -3.8440    1.7940   -2.8350 hc        1 CHJ      0.059033
     30 H9         -5.3590    2.3570   -2.0090 hc        1 CHJ      0.059033
     31 H10        -3.7450    2.9910   -1.4720 hc        1 CHJ      0.059033
     32 H11        -6.2660    0.7240   -0.5090 ha        1 CHJ      0.170000
@<TRIPOS>BOND
     1    1    2 ar  
     2    1   15 ar  
     3    1   22 1   
     4    2    3 1   
     5    2   12 ar  
     6    3    4 1   
     7    4    5 ar  
     8    4   11 ar  
     9    5    6 1   
    10    5    7 ar  
    11    6   23 1   
    12    7    8 ar  
    13    7   24 1   
    14    8    9 1   
    15    8   10 ar  
    16   10   11 ar  
    17   10   25 1   
    18   11   26 1   
    19   12   13 ar  
    20   12   27 1   
    21   13   14 ar  
    22   13   21 1   
    23   14   15 ar  
    24   14   16 1   
    25   15   28 1   
    26   16   17 1   
    27   16   18 2   
    28   17   29 1   
    29   17   30 1   
    30   17   31 1   
    31   18   19 1   
    32   18   32 1   
    33   19   20 2   
    34   19   21 1   
@<TRIPOS>SUBSTRUCTURE
     1 CHJ         1 TEMP              0 ****  ****    0 ROOT
