@<TRIPOS>MOLECULE
CHK
   56    56     1     0     0
SMALL
bcc


@<TRIPOS>ATOM
      1 OX1         1.1180   -2.0110    0.2330 o         1 CHK     -0.412100
      2 CX1         1.6950   -0.9650    0.4830 c         1 CHK      0.556100
      3 CX2         2.1620   -0.4900    1.8310 c3        1 CHK     -0.158400
      4 CX3         0.9820    0.0040    2.6620 c3        1 CHK     -0.068700
      5 CX4         0.3450    1.2390    2.0420 c3        1 CHK     -0.077400
      6 CX5        -0.7790    1.7680    2.9120 c3        1 CHK     -0.077400
      7 CX6        -0.3020    2.0510    4.3210 c3        1 CHK     -0.082400
      8 CX7         0.3400    0.8270    4.9380 c3        1 CHK     -0.077400
      9 CX8         1.4700    0.3030    4.0750 c3        1 CHK     -0.077400
     10 NX1         1.9410   -0.0030   -0.6750 nx        1 CHK     -0.583200
     11 CX9         3.3780   -0.0620   -1.0860 c3        1 CHK      0.102800
     12 CXA         3.7970    1.1220   -1.9640 c3        1 CHK      0.110400
     13 OX2         3.4440    2.2990   -1.2580 oh        1 CHK     -0.631800
     14 CXB         0.9870   -0.2120   -1.8040 c3        1 CHK      0.074800
     15 CXC         1.3530   -1.3240   -2.8090 c3        1 CHK      0.112100
     16 OX3         1.8450   -2.4700   -2.1600 oh        1 CHK     -0.607800
     17 CXD         0.1040   -1.5950   -3.6800 c3        1 CHK      0.123100
     18 OX4        -0.1530   -0.4480   -4.4560 oh        1 CHK     -0.598800
     19 CXE         0.3120   -2.8840   -4.4980 c3        1 CHK      0.113100
     20 OX5         0.0260   -3.9380   -3.5910 oh        1 CHK     -0.605800
     21 CXF        -0.6250   -2.9180   -5.7180 c3        1 CHK      0.113100
     22 OX6         0.0200   -2.1270   -6.7070 oh        1 CHK     -0.625800
     23 CXG        -0.8450   -4.3460   -6.2270 c3        1 CHK      0.094400
     24 OX7        -1.5730   -4.2080   -7.4350 oh        1 CHK     -0.605800
     25 HX21        2.9370    0.3170    1.7540 hc        1 CHK      0.102200
     26 HX22        2.6340   -1.3760    2.3440 hc        1 CHK      0.102200
     27 H1          0.2090   -0.8150    2.7160 hc        1 CHK      0.079700
     28 HX41       -0.0690    0.9830    1.0310 hc        1 CHK      0.039450
     29 HX42        1.1200    2.0390    1.9080 hc        1 CHK      0.039450
     30 HX51       -1.1890    2.7070    2.4560 hc        1 CHK      0.056200
     31 HX52       -1.6120    1.0160    2.9420 hc        1 CHK      0.056200
     32 HX61        0.4350    2.8960    4.3060 hc        1 CHK      0.055700
     33 HX62       -1.1720    2.3750    4.9500 hc        1 CHK      0.055700
     34 HX71        0.7410    1.0830    5.9530 hc        1 CHK      0.056200
     35 HX72       -0.4320    0.0240    5.0730 hc        1 CHK      0.056200
     36 HX81        2.2940    1.0630    4.0340 hc        1 CHK      0.039450
     37 HX82        1.8890   -0.6320    4.5320 hc        1 CHK      0.039450
     38 HX91        3.9980   -0.0500   -0.1440 hx        1 CHK      0.117200
     39 HX92        3.5630   -1.0310   -1.6340 hx        1 CHK      0.117200
     40 HXA1        4.9060    1.0590   -2.1280 h1        1 CHK      0.068700
     41 HXA2        3.2680    1.1010   -2.9560 h1        1 CHK      0.068700
     42 HX2         3.8980    3.0410   -1.6790 ho        1 CHK      0.449000
     43 HXB1        0.9120    0.7540   -2.3840 hx        1 CHK      0.111200
     44 HXB2       -0.0190   -0.4390   -1.3460 hx        1 CHK      0.111200
     45 HXC         2.1990   -0.9720   -3.4670 h1        1 CHK      0.080700
     46 HX3         1.0970   -3.0390   -1.9130 ho        1 CHK      0.452000
     47 HXD        -0.8030   -1.7250   -3.0210 h1        1 CHK      0.093700
     48 HX4         0.2600   -0.5530   -5.3270 ho        1 CHK      0.445000
     49 HXE         1.3800   -2.9470   -4.8500 h1        1 CHK      0.069700
     50 HX5         0.3480   -4.7560   -3.9910 ho        1 CHK      0.427000
     51 HXF        -1.6190   -2.4550   -5.4610 h1        1 CHK      0.075700
     52 HX6        -0.4940   -2.2170   -7.5230 ho        1 CHK      0.448000
     53 HXG1        0.1390   -4.8500   -6.4230 h1        1 CHK      0.041200
     54 HXG2       -1.4350   -4.9380   -5.4780 h1        1 CHK      0.041200
     55 HX7        -1.7110   -5.0960   -7.7860 ho        1 CHK      0.425000
     56 HX11        1.7720    0.9500   -0.3080 hn        1 CHK      0.468800
@<TRIPOS>BOND
     1    1    2 2   
     2    2    3 1   
     3    2   10 1   
     4    3    4 1   
     5    3   25 1   
     6    3   26 1   
     7    4    5 1   
     8    4    9 1   
     9    4   27 1   
    10    5    6 1   
    11    5   28 1   
    12    5   29 1   
    13    6    7 1   
    14    6   30 1   
    15    6   31 1   
    16    7    8 1   
    17    7   32 1   
    18    7   33 1   
    19    8    9 1   
    20    8   34 1   
    21    8   35 1   
    22    9   36 1   
    23    9   37 1   
    24   10   11 1   
    25   10   14 1   
    26   10   56 1   
    27   11   12 1   
    28   11   38 1   
    29   11   39 1   
    30   12   13 1   
    31   12   40 1   
    32   12   41 1   
    33   13   42 1   
    34   14   15 1   
    35   14   43 1   
    36   14   44 1   
    37   15   16 1   
    38   15   17 1   
    39   15   45 1   
    40   16   46 1   
    41   17   18 1   
    42   17   19 1   
    43   17   47 1   
    44   18   48 1   
    45   19   20 1   
    46   19   21 1   
    47   19   49 1   
    48   20   50 1   
    49   21   22 1   
    50   21   23 1   
    51   21   51 1   
    52   22   52 1   
    53   23   24 1   
    54   23   53 1   
    55   23   54 1   
    56   24   55 1   
@<TRIPOS>SUBSTRUCTURE
     1 CHK         1 TEMP              0 ****  ****    0 ROOT
