@<TRIPOS>MOLECULE
CHK
   55    55     1     0     0
SMALL
bcc


@<TRIPOS>ATOM
      1 OX1        -1.0460    0.4280    1.4320 o         1 CHK     -0.632100
      2 CX1         0.0340   -0.1160    1.7510 c         1 CHK      0.678100
      3 CX2         0.2670   -0.7070    3.1250 c3        1 CHK     -0.148400
      4 CX3        -0.8220   -0.3070    4.1100 c3        1 CHK     -0.056700
      5 CX4        -0.6720    1.1490    4.5270 c3        1 CHK     -0.074400
      6 CX5        -1.7230    1.5370    5.5460 c3        1 CHK     -0.074900
      7 CX6        -1.6820    0.6250    6.7550 c3        1 CHK     -0.077400
      8 CX7        -1.8180   -0.8280    6.3490 c3        1 CHK     -0.074900
      9 CX8        -0.7680   -1.2180    5.3300 c3        1 CHK     -0.074400
     10 NX1         1.0470   -0.1920    0.7970 n         1 CHK     -0.480800
     11 CX9         2.2850   -0.8880    1.0150 c3        1 CHK      0.098000
     12 CXA         3.4700   -0.0050    1.4440 c3        1 CHK      0.105400
     13 OX2         3.3490    0.2150    2.8380 oh        1 CHK     -0.607800
     14 CXB         0.8690    0.4630   -0.4760 c3        1 CHK      0.061000
     15 CXC         0.2080   -0.4080   -1.5620 c3        1 CHK      0.096100
     16 OX3        -1.0930   -0.8420   -1.2140 oh        1 CHK     -0.619800
     17 CXD         0.1470    0.4010   -2.8770 c3        1 CHK      0.083100
     18 OX4         1.4540    0.7660   -3.2700 oh        1 CHK     -0.599800
     19 CXE        -0.6010   -0.4040   -3.9580 c3        1 CHK      0.125100
     20 OX5        -1.9980   -0.2070   -3.8270 oh        1 CHK     -0.607800
     21 CXF        -0.2050    0.0640   -5.3690 c3        1 CHK      0.145100
     22 OX6         1.0220   -0.5960   -5.6610 oh        1 CHK     -0.623800
     23 CXG        -1.2750   -0.3080   -6.3980 c3        1 CHK      0.101400
     24 OX7        -0.7560    0.0790   -7.6620 oh        1 CHK     -0.620800
     25 HX21        0.2810   -1.8250    3.0210 hc        1 CHK      0.079200
     26 HX22        1.2690   -0.3780    3.5150 hc        1 CHK      0.079200
     27 H1         -1.8250   -0.4300    3.6090 hc        1 CHK      0.072700
     28 HX41        0.3490    1.3130    4.9590 hc        1 CHK      0.041950
     29 HX42       -0.7700    1.7980    3.6160 hc        1 CHK      0.041950
     30 HX51       -2.7390    1.4850    5.0720 hc        1 CHK      0.040200
     31 HX52       -1.5560    2.5970    5.8690 hc        1 CHK      0.040200
     32 HX61       -2.5100    0.8970    7.4600 hc        1 CHK      0.037700
     33 HX62       -0.7130    0.7720    7.3010 hc        1 CHK      0.037700
     34 HX71       -2.8390   -1.0000    5.9170 hc        1 CHK      0.040200
     35 HX72       -1.7200   -1.4820    7.2540 hc        1 CHK      0.040200
     36 HX81       -0.9310   -2.2810    5.0130 hc        1 CHK      0.041950
     37 HX82        0.2510   -1.1560    5.7960 hc        1 CHK      0.041950
     38 HX91        2.5810   -1.3930    0.0500 h1        1 CHK      0.061200
     39 HX92        2.1430   -1.6860    1.7980 h1        1 CHK      0.061200
     40 HXA1        3.4830    0.9700    0.8890 h1        1 CHK      0.033700
     41 HXA2        4.4260   -0.5580    1.2350 h1        1 CHK      0.033700
     42 HX2         4.0170    0.8680    3.0790 ho        1 CHK      0.406000
     43 HXB1        0.2280    1.3800   -0.3250 h1        1 CHK      0.074200
     44 HXB2        1.8720    0.7930   -0.8710 h1        1 CHK      0.074200
     45 HXC         0.7970   -1.3530   -1.7300 h1        1 CHK      0.066700
     46 HX3        -1.4820   -0.1860   -0.6150 ho        1 CHK      0.436000
     47 HXD        -0.3880    1.3770   -2.7010 h1        1 CHK      0.085700
     48 HX4         1.8420    0.0200   -3.7500 ho        1 CHK      0.423000
     49 HXE        -0.3530   -1.4980   -3.8500 h1        1 CHK      0.057700
     50 HX5        -2.2530   -0.5930   -2.9750 ho        1 CHK      0.431000
     51 HXF        -0.0370    1.1770   -5.3770 h1        1 CHK      0.066700
     52 HX6         1.2380   -0.3810   -6.5780 ho        1 CHK      0.430000
     53 HXG1       -1.4630   -1.4130   -6.3810 h1        1 CHK      0.048200
     54 HXG2       -2.2270    0.2410   -6.1740 h1        1 CHK      0.048200
     55 HX7        -1.4320   -0.1330   -8.3150 ho        1 CHK      0.410000
@<TRIPOS>BOND
     1    1    2 2   
     2    2    3 1   
     3    2   10 1   
     4    3    4 1   
     5    3   25 1   
     6    3   26 1   
     7    4    5 1   
     8    4    9 1   
     9    4   27 1   
    10    5    6 1   
    11    5   28 1   
    12    5   29 1   
    13    6    7 1   
    14    6   30 1   
    15    6   31 1   
    16    7    8 1   
    17    7   32 1   
    18    7   33 1   
    19    8    9 1   
    20    8   34 1   
    21    8   35 1   
    22    9   36 1   
    23    9   37 1   
    24   10   11 1   
    25   10   14 1   
    26   11   12 1   
    27   11   38 1   
    28   11   39 1   
    29   12   13 1   
    30   12   40 1   
    31   12   41 1   
    32   13   42 1   
    33   14   15 1   
    34   14   43 1   
    35   14   44 1   
    36   15   16 1   
    37   15   17 1   
    38   15   45 1   
    39   16   46 1   
    40   17   18 1   
    41   17   19 1   
    42   17   47 1   
    43   18   48 1   
    44   19   20 1   
    45   19   21 1   
    46   19   49 1   
    47   20   50 1   
    48   21   22 1   
    49   21   23 1   
    50   21   51 1   
    51   22   52 1   
    52   23   24 1   
    53   23   53 1   
    54   23   54 1   
    55   24   55 1   
@<TRIPOS>SUBSTRUCTURE
     1 CHK         1 TEMP              0 ****  ****    0 ROOT
