@<TRIPOS>MOLECULE
CHK
   56    56     1     0     0
SMALL
bcc


@<TRIPOS>ATOM
      1 OX1         1.1490   -2.0020    0.2050 o         1 CHK     -0.412100
      2 CX1         1.7080   -0.9460    0.4550 c         1 CHK      0.556100
      3 CX2         2.1930   -0.4760    1.7980 c3        1 CHK     -0.158400
      4 CX3         1.0190   -0.0170    2.6590 c3        1 CHK     -0.068700
      5 CX4         0.3410    1.2100    2.0670 c3        1 CHK     -0.077400
      6 CX5        -0.7760    1.7030    2.9650 c3        1 CHK     -0.077400
      7 CX6        -0.2750    1.9820    4.3670 c3        1 CHK     -0.082400
      8 CX7         0.4070    0.7660    4.9570 c3        1 CHK     -0.077400
      9 CX8         1.5300    0.2770    4.0650 c3        1 CHK     -0.077400
     10 NX1         1.9070    0.0330   -0.6970 n4        1 CHK     -0.583200
     11 CX9         3.3360    0.0110   -1.1390 c3        1 CHK      0.102800
     12 CXA         3.7100    1.2140   -2.0120 c3        1 CHK      0.110400
     13 OX2         3.3460    2.3750   -1.2850 oh        1 CHK     -0.631800
     14 CXB         0.9350   -0.1840   -1.8090 c3        1 CHK      0.074800
     15 CXC         1.3030   -1.2770   -2.8330 c3        1 CHK      0.112100
     16 OX3         1.8350   -2.4180   -2.2080 oh        1 CHK     -0.607800
     17 CXD         0.0430   -1.5660   -3.6800 c3        1 CHK      0.123100
     18 OX4        -0.2570   -0.4170   -4.4370 oh        1 CHK     -0.598800
     19 CXE         0.2620   -2.8410   -4.5170 c3        1 CHK      0.113100
     20 OX5         0.0190   -3.9120   -3.6170 oh        1 CHK     -0.605800
     21 CXF        -0.7010   -2.8830   -5.7170 c3        1 CHK      0.113100
     22 OX6        -0.0950   -2.0670   -6.7110 oh        1 CHK     -0.625800
     23 CXG        -0.8990   -4.3100   -6.2380 c3        1 CHK      0.094400
     24 OX7        -1.6550   -4.1760   -7.4290 oh        1 CHK     -0.605800
     25 HX21        2.6950   -1.3560    2.2910 hc        1 CHK      0.102200
     26 HX22        2.9480    0.3500    1.7140 hc        1 CHK      0.102200
     27 H1          0.2670   -0.8540    2.7200 hc        1 CHK      0.079700
     28 HX41       -0.0870    0.9550    1.0610 hc        1 CHK      0.039450
     29 HX42        1.0960    2.0280    1.9250 hc        1 CHK      0.039450
     30 HX51       -1.5900    0.9320    3.0050 hc        1 CHK      0.056200
     31 HX52       -1.2150    2.6370    2.5290 hc        1 CHK      0.056200
     32 HX61        0.4430    2.8440    4.3460 hc        1 CHK      0.055700
     33 HX62       -1.1390    2.2800    5.0180 hc        1 CHK      0.055700
     34 HX71        0.8240    1.0200    5.9660 hc        1 CHK      0.056200
     35 HX72       -0.3430   -0.0560    5.1000 hc        1 CHK      0.056200
     36 HX81        1.9800   -0.6530    4.5020 hc        1 CHK      0.039450
     37 HX82        2.3360    1.0560    4.0150 hc        1 CHK      0.039450
     38 HX91        3.5310   -0.9470   -1.7020 hx        1 CHK      0.117200
     39 HX92        3.9760    0.0280   -0.2100 hx        1 CHK      0.117200
     40 HXA1        3.1610    1.1920   -2.9920 h1        1 CHK      0.068700
     41 HXA2        4.8160    1.1790   -2.2000 h1        1 CHK      0.068700
     42 HX2         3.7740    3.1320   -1.7070 ho        1 CHK      0.449000
     43 HXB1       -0.0560   -0.4380   -1.3310 hx        1 CHK      0.111200
     44 HXB2        0.8260    0.7860   -2.3750 hx        1 CHK      0.111200
     45 HXC         2.1280   -0.8980   -3.5050 h1        1 CHK      0.080700
     46 HX3         1.1060   -3.0070   -1.9520 ho        1 CHK      0.452000
     47 HXD        -0.8470   -1.7240   -3.0040 h1        1 CHK      0.093700
     48 HX4         0.1400   -0.5030   -5.3180 ho        1 CHK      0.445000
     49 HXE         1.3230   -2.8770   -4.8930 h1        1 CHK      0.069700
     50 HX5         0.3500   -4.7180   -4.0320 ho        1 CHK      0.427000
     51 HXF        -1.6990   -2.4460   -5.4340 h1        1 CHK      0.075700
     52 HX6        -0.6240   -2.1600   -7.5160 ho        1 CHK      0.448000
     53 HXG1       -1.4590   -4.9230   -5.4840 h1        1 CHK      0.041200
     54 HXG2        0.0910   -4.7890   -6.4600 h1        1 CHK      0.041200
     55 HX7        -1.7820   -5.0630   -7.7870 ho        1 CHK      0.425000
     56 HX11        1.7250    0.9790   -0.3150 hn        1 CHK      0.468800
@<TRIPOS>BOND
     1    1    2 2   
     2    2    3 1   
     3    2   10 1   
     4    3    4 1   
     5    3   25 1   
     6    3   26 1   
     7    4    5 1   
     8    4    9 1   
     9    4   27 1   
    10    5    6 1   
    11    5   28 1   
    12    5   29 1   
    13    6    7 1   
    14    6   30 1   
    15    6   31 1   
    16    7    8 1   
    17    7   32 1   
    18    7   33 1   
    19    8    9 1   
    20    8   34 1   
    21    8   35 1   
    22    9   36 1   
    23    9   37 1   
    24   10   11 1   
    25   10   14 1   
    26   10   56 1   
    27   11   12 1   
    28   11   38 1   
    29   11   39 1   
    30   12   13 1   
    31   12   40 1   
    32   12   41 1   
    33   13   42 1   
    34   14   15 1   
    35   14   43 1   
    36   14   44 1   
    37   15   16 1   
    38   15   17 1   
    39   15   45 1   
    40   16   46 1   
    41   17   18 1   
    42   17   19 1   
    43   17   47 1   
    44   18   48 1   
    45   19   20 1   
    46   19   21 1   
    47   19   49 1   
    48   20   50 1   
    49   21   22 1   
    50   21   23 1   
    51   21   51 1   
    52   22   52 1   
    53   23   24 1   
    54   23   53 1   
    55   23   54 1   
    56   24   55 1   
@<TRIPOS>SUBSTRUCTURE
     1 CHK         1 TEMP              0 ****  ****    0 ROOT
