@<TRIPOS>MOLECULE
CHK
   56    56     1     0     0
SMALL
bcc


@<TRIPOS>ATOM
      1 OX1         1.1100   -2.0150    0.2290 o         1 CHK     -0.412100
      2 CX1         1.6930   -0.9730    0.4810 c         1 CHK      0.556100
      3 CX2         2.1610   -0.5020    1.8290 c3        1 CHK     -0.158400
      4 CX3         0.9820   -0.0000    2.6590 c3        1 CHK     -0.068700
      5 CX4         0.3530    1.2380    2.0380 c3        1 CHK     -0.077400
      6 CX5        -0.7700    1.7730    2.9050 c3        1 CHK     -0.077400
      7 CX6        -0.2940    2.0540    4.3140 c3        1 CHK     -0.082400
      8 CX7         0.3410    0.8260    4.9330 c3        1 CHK     -0.077400
      9 CX8         1.4700    0.2960    4.0730 c3        1 CHK     -0.077400
     10 NX1         1.9470   -0.0130   -0.6760 n4        1 CHK     -0.583200
     11 CX9         3.3840   -0.0830   -1.0870 c3        1 CHK      0.102800
     12 CXA         3.8120    1.0990   -1.9640 c3        1 CHK      0.110400
     13 OX2         3.4680    2.2780   -1.2570 oh        1 CHK     -0.631800
     14 CXB         0.9930   -0.2140   -1.8070 c3        1 CHK      0.074800
     15 CXC         1.3510   -1.3290   -2.8120 c3        1 CHK      0.112100
     16 OX3         1.8350   -2.4780   -2.1630 oh        1 CHK     -0.607800
     17 CXD         0.1010   -1.5900   -3.6840 c3        1 CHK      0.123100
     18 OX4        -0.1470   -0.4420   -4.4600 oh        1 CHK     -0.598800
     19 CXE         0.2990   -2.8810   -4.5010 c3        1 CHK      0.113100
     20 OX5         0.0050   -3.9330   -3.5950 oh        1 CHK     -0.605800
     21 CXF        -0.6380   -2.9080   -5.7220 c3        1 CHK      0.113100
     22 OX6         0.0140   -2.1230   -6.7110 oh        1 CHK     -0.625800
     23 CXG        -0.8690   -4.3350   -6.2310 c3        1 CHK      0.094400
     24 OX7        -1.5950   -4.1910   -7.4390 oh        1 CHK     -0.605800
     25 HX21        2.6260   -1.3910    2.3430 hc        1 CHK      0.102200
     26 HX22        2.9410    0.3010    1.7540 hc        1 CHK      0.102200
     27 H1          0.2040   -0.8150    2.7120 hc        1 CHK      0.079700
     28 HX41       -0.0600    0.9840    1.0250 hc        1 CHK      0.039450
     29 HX42        1.1330    2.0330    1.9040 hc        1 CHK      0.039450
     30 HX51       -1.6070    1.0260    2.9340 hc        1 CHK      0.056200
     31 HX52       -1.1730    2.7140    2.4480 hc        1 CHK      0.056200
     32 HX61        0.4490    2.8950    4.3000 hc        1 CHK      0.055700
     33 HX62       -1.1630    2.3830    4.9420 hc        1 CHK      0.055700
     34 HX71        0.7420    1.0810    5.9490 hc        1 CHK      0.056200
     35 HX72       -0.4350    0.0280    5.0680 hc        1 CHK      0.056200
     36 HX81        2.2980    1.0520    4.0320 hc        1 CHK      0.039450
     37 HX82        1.8830   -0.6410    4.5300 hc        1 CHK      0.039450
     38 HX91        3.5620   -1.0530   -1.6350 hx        1 CHK      0.117200
     39 HX92        4.0030   -0.0750   -0.1430 hx        1 CHK      0.117200
     40 HXA1        3.2850    1.0820   -2.9550 h1        1 CHK      0.068700
     41 HXA2        4.9210    1.0280   -2.1270 h1        1 CHK      0.068700
     42 HX2         3.9280    3.0170   -1.6770 ho        1 CHK      0.449000
     43 HXB1       -0.0150   -0.4330   -1.3500 hx        1 CHK      0.111200
     44 HXB2        0.9260    0.7530   -2.3860 hx        1 CHK      0.111200
     45 HXC         2.2000   -0.9820   -3.4700 h1        1 CHK      0.080700
     46 HX3         1.0830   -3.0420   -1.9170 ho        1 CHK      0.452000
     47 HXD        -0.8080   -1.7130   -3.0260 h1        1 CHK      0.093700
     48 HX4         0.2660   -0.5500   -5.3310 ho        1 CHK      0.445000
     49 HXE         1.3670   -2.9520   -4.8530 h1        1 CHK      0.069700
     50 HX5         0.3210   -4.7530   -3.9940 ho        1 CHK      0.427000
     51 HXF        -1.6280   -2.4370   -5.4650 h1        1 CHK      0.075700
     52 HX6        -0.5010   -2.2090   -7.5270 ho        1 CHK      0.448000
     53 HXG1        0.1110   -4.8460   -6.4250 h1        1 CHK      0.041200
     54 HXG2       -1.4630   -4.9210   -5.4810 h1        1 CHK      0.041200
     55 HX7        -1.7400   -5.0790   -7.7890 ho        1 CHK      0.425000
     56 HX11        1.7850    0.9420   -0.3090 hn        1 CHK      0.468800
@<TRIPOS>BOND
     1    1    2 2   
     2    2    3 1   
     3    2   10 1   
     4    3    4 1   
     5    3   25 1   
     6    3   26 1   
     7    4    5 1   
     8    4    9 1   
     9    4   27 1   
    10    5    6 1   
    11    5   28 1   
    12    5   29 1   
    13    6    7 1   
    14    6   30 1   
    15    6   31 1   
    16    7    8 1   
    17    7   32 1   
    18    7   33 1   
    19    8    9 1   
    20    8   34 1   
    21    8   35 1   
    22    9   36 1   
    23    9   37 1   
    24   10   11 1   
    25   10   14 1   
    26   10   56 1   
    27   11   12 1   
    28   11   38 1   
    29   11   39 1   
    30   12   13 1   
    31   12   40 1   
    32   12   41 1   
    33   13   42 1   
    34   14   15 1   
    35   14   43 1   
    36   14   44 1   
    37   15   16 1   
    38   15   17 1   
    39   15   45 1   
    40   16   46 1   
    41   17   18 1   
    42   17   19 1   
    43   17   47 1   
    44   18   48 1   
    45   19   20 1   
    46   19   21 1   
    47   19   49 1   
    48   20   50 1   
    49   21   22 1   
    50   21   23 1   
    51   21   51 1   
    52   22   52 1   
    53   23   24 1   
    54   23   53 1   
    55   23   54 1   
    56   24   55 1   
@<TRIPOS>SUBSTRUCTURE
     1 CHK         1 TEMP              0 ****  ****    0 ROOT
