@<TRIPOS>MOLECULE
CHM
   10     9     1     0     0
SMALL
bcc


@<TRIPOS>ATOM
      1 C1         -1.2740    0.0570   -0.4070 c3        1 CHM     -0.079000
      2 C2          0.2380   -0.0010   -0.4200 c         1 CHM      0.557100
      3 C3          1.0040   -0.0360    0.8840 c3        1 CHM     -0.079000
      4 O           0.8360   -0.0190   -1.4770 o         1 CHM     -0.485100
      5 CL1        -1.8730   -0.0300   -2.0420 cl        1 CHM     -0.152400
      6 CL3         2.7130   -0.1280    0.5510 cl        1 CHM     -0.152400
      7 H11        -1.5650    0.8960    0.0030 h1        1 CHM      0.098200
      8 H12        -1.6250   -0.6960    0.1090 h1        1 CHM      0.098200
      9 H31         0.8150    0.7760    1.3960 h1        1 CHM      0.098200
     10 H32         0.7300   -0.8190    1.4020 h1        1 CHM      0.098200
@<TRIPOS>BOND
     1    1    2 1   
     2    1    5 1   
     3    1    7 1   
     4    1    8 1   
     5    2    3 1   
     6    2    4 2   
     7    3    6 1   
     8    3    9 1   
     9    3   10 1   
@<TRIPOS>SUBSTRUCTURE
     1 CHM         1 TEMP              0 ****  ****    0 ROOT
