@<TRIPOS>MOLECULE
CHM
   10     9     1     0     0
SMALL
bcc


@<TRIPOS>ATOM
      1 C1          0.0770   -0.0000   -0.0060 c3        1 CHM     -0.086000
      2 C2          1.5790   -0.0000   -0.1260 c         1 CHM      0.551100
      3 C3          2.2280    0.0000    1.2350 c3        1 CHM     -0.086000
      4 O           2.1930   -0.0000   -1.1890 o         1 CHM     -0.459100
      5 CL1        -0.7820   -0.0000   -1.5210 cl        1 CHM     -0.134400
      6 CL3         3.9690    0.0000    1.2190 cl        1 CHM     -0.134400
      7 H11        -0.2480    0.9140    0.5510 h1        1 CHM      0.087700
      8 H12        -0.2480   -0.9140    0.5510 h1        1 CHM      0.087700
      9 H31         1.9080    0.9140    1.7950 h1        1 CHM      0.087700
     10 H32         1.9080   -0.9140    1.7950 h1        1 CHM      0.087700
@<TRIPOS>BOND
     1    1    2 1   
     2    1    5 1   
     3    1    7 1   
     4    1    8 1   
     5    2    3 1   
     6    2    4 2   
     7    3    6 1   
     8    3    9 1   
     9    3   10 1   
@<TRIPOS>SUBSTRUCTURE
     1 CHM         1 TEMP              0 ****  ****    0 ROOT
