@<TRIPOS>MOLECULE
CHM
   10     9     1     0     0
SMALL
bcc


@<TRIPOS>ATOM
      1 C1         -0.9100    0.0000   -1.2410 c3        1 CHM     -0.079000
      2 C2         -0.0550    0.0000   -0.0000 c         1 CHM      0.557100
      3 C3         -0.9100   -0.0000    1.2410 c3        1 CHM     -0.079000
      4 O           1.1720    0.0000   -0.0000 o         1 CHM     -0.485100
      5 CL1        -0.0260    0.0010   -2.7420 cl        1 CHM     -0.152400
      6 CL3        -0.0260   -0.0010    2.7420 cl        1 CHM     -0.152400
      7 H11        -1.5550    0.9140   -1.2440 h1        1 CHM      0.098200
      8 H12        -1.5550   -0.9140   -1.2440 h1        1 CHM      0.098200
      9 H31        -1.5550    0.9140    1.2440 h1        1 CHM      0.098200
     10 H32        -1.5550   -0.9140    1.2440 h1        1 CHM      0.098200
@<TRIPOS>BOND
     1    1    2 1   
     2    1    5 1   
     3    1    7 1   
     4    1    8 1   
     5    2    3 1   
     6    2    4 2   
     7    3    6 1   
     8    3    9 1   
     9    3   10 1   
@<TRIPOS>SUBSTRUCTURE
     1 CHM         1 TEMP              0 ****  ****    0 ROOT
