@<TRIPOS>MOLECULE
CHM
   10     9     1     0     0
SMALL
bcc


@<TRIPOS>ATOM
      1 C1          0.2890   -0.5880   -0.1730 c3        1 CHM     -0.079000
      2 C2          1.6500    0.0520   -0.1410 c         1 CHM      0.557100
      3 C3          2.1220    0.5740    1.1880 c3        1 CHM     -0.079000
      4 O           2.3430    0.1450   -1.1550 o         1 CHM     -0.485100
      5 Cl1        -0.9670    0.5940    0.1100 cl        1 CHM     -0.152400
      6 Cl3         2.4190   -0.7370    2.3060 cl        1 CHM     -0.152400
      7 H11         0.2060   -1.3650    0.6260 h1        1 CHM      0.097700
      8 H12         0.0930   -1.0460   -1.1740 h1        1 CHM      0.097700
      9 H31         3.0830    1.1340    1.0720 h1        1 CHM      0.097700
     10 H32         1.3460    1.2360    1.6450 h1        1 CHM      0.097700
@<TRIPOS>BOND
     1    1    2 1   
     2    1    5 1   
     3    1    7 1   
     4    1    8 1   
     5    2    3 1   
     6    2    4 2   
     7    3    6 1   
     8    3    9 1   
     9    3   10 1   
@<TRIPOS>SUBSTRUCTURE
     1 CHM         1 TEMP              0 ****  ****    0 ROOT
