@<TRIPOS>MOLECULE
CHN
   25    25     1     0     0
SMALL
bcc


@<TRIPOS>ATOM
      1 N1         -0.3870   -0.0200    3.3060 n3        1 CHN     -0.916800
      2 C1          0.5030   -0.4270    2.2450 c3        1 CHN      0.159800
      3 C2          0.2630    0.3030    0.9160 c3        1 CHN     -0.060700
      4 C7          1.3720   -0.0630   -0.0600 c3        1 CHN     -0.067900
      5 C6          1.1630    0.6020   -1.4020 c3        1 CHN     -0.069900
      6 C5         -0.2000    0.2490   -2.0190 c3        1 CHN      0.172500
      7 C4         -1.3050    0.6050   -1.0120 c3        1 CHN     -0.069900
      8 C3         -1.0940   -0.0570    0.3320 c3        1 CHN     -0.067900
      9 N2         -0.2650   -1.1390   -2.4440 n3        1 CHN     -0.912800
     10 HN11       -0.4230    0.9770    3.3860 hn        1 CHN      0.346300
     11 HN12       -0.0860   -0.4080    4.1780 hn        1 CHN      0.346300
     12 H11         1.5910   -0.2810    2.5220 h1        1 CHN      0.025700
     13 H12         0.3480   -1.5320    2.0830 h1        1 CHN      0.025700
     14 H21         0.2960    1.4150    1.0920 hc        1 CHN      0.038700
     15 H71         2.3620    0.2560    0.3600 hc        1 CHN      0.049950
     16 H72         1.4010   -1.1770   -0.1900 hc        1 CHN      0.049950
     17 H61         1.2030    1.7160   -1.2810 hc        1 CHN      0.037700
     18 H62         1.9900    0.3080   -2.0990 hc        1 CHN      0.037700
     19 H51        -0.3400    0.9420   -2.9100 h1        1 CHN      0.000700
     20 H41        -1.3050    1.7200   -0.8870 hc        1 CHN      0.037700
     21 H42        -2.3080    0.3120   -1.4190 hc        1 CHN      0.037700
     22 H31        -1.1670   -1.1710    0.2210 hc        1 CHN      0.049950
     23 H32        -1.9040    0.2660    1.0370 hc        1 CHN      0.049950
     24 HN21       -1.1760   -1.3510   -2.7990 hn        1 CHN      0.348800
     25 HN22        0.4190   -1.3150   -3.1520 hn        1 CHN      0.348800
@<TRIPOS>BOND
     1    1    2 1   
     2    1   10 1   
     3    1   11 1   
     4    2    3 1   
     5    2   12 1   
     6    2   13 1   
     7    3    4 1   
     8    3    8 1   
     9    3   14 1   
    10    4    5 1   
    11    4   15 1   
    12    4   16 1   
    13    5    6 1   
    14    5   17 1   
    15    5   18 1   
    16    6    7 1   
    17    6    9 1   
    18    6   19 1   
    19    7    8 1   
    20    7   20 1   
    21    7   21 1   
    22    8   22 1   
    23    8   23 1   
    24    9   24 1   
    25    9   25 1   
@<TRIPOS>SUBSTRUCTURE
     1 CHN         1 TEMP              0 ****  ****    0 ROOT
