@<TRIPOS>MOLECULE
CHN
   27    27     1     0     0
SMALL
bcc


@<TRIPOS>ATOM
      1 N1         -0.0590   -0.4000   -0.1210 n4        1 CHN     -0.837600
      2 C1          1.3790   -0.0220   -0.0150 c3        1 CHN      0.100800
      3 C2          1.8870    0.0850    1.4260 c3        1 CHN     -0.097700
      4 C7          3.4100   -0.0100    1.4180 c3        1 CHN     -0.092400
      5 C6          3.9630    0.0540    2.8250 c3        1 CHN     -0.111400
      6 C5          3.5120    1.2880    3.6080 c3        1 CHN      0.124500
      7 C4          1.9990    1.4870    3.4970 c3        1 CHN     -0.111400
      8 C3          1.4700    1.3930    2.0810 c3        1 CHN     -0.092400
      9 N2          4.2760    2.5210    3.2010 n4        1 CHN     -0.843600
     10 HN11       -0.3330   -0.4450   -1.1120 hn        1 CHN      0.471800
     11 HN12       -0.6510    0.2900    0.3540 hn        1 CHN      0.471800
     12 H11         1.9740   -0.8100   -0.5680 hx        1 CHN      0.122700
     13 H12         1.5130    0.9660   -0.5470 hx        1 CHN      0.122700
     14 H21         1.4880   -0.7760    2.0380 hc        1 CHN      0.088700
     15 H71         3.8360    0.8140    0.7870 hc        1 CHN      0.068450
     16 H72         3.7320   -0.9830    0.9550 hc        1 CHN      0.068450
     17 H61         3.6080   -0.8430    3.4090 hc        1 CHN      0.102950
     18 H62         5.0840   -0.0150    2.7890 hc        1 CHN      0.102950
     19 H51         3.7690    1.1280    4.7050 hx        1 CHN      0.131700
     20 H41         1.6870    2.4690    3.9490 hc        1 CHN      0.102950
     21 H42         1.5270    0.6820    4.1280 hc        1 CHN      0.102950
     22 H31         1.8390    2.2580    1.4690 hc        1 CHN      0.068450
     23 H32         0.3500    1.4710    2.1210 hc        1 CHN      0.068450
     24 HN21        4.1060    2.7360    2.2150 hn        1 CHN      0.465467
     25 HN22        5.2820    2.3650    3.3380 hn        1 CHN      0.465467
     26 H13        -0.2220   -1.3200    0.3060 hn        1 CHN      0.471800
     27 H23         3.9790    3.3200    3.7730 hn        1 CHN      0.465467
@<TRIPOS>BOND
     1    1    2 1   
     2    1   10 1   
     3    1   11 1   
     4    1   26 1   
     5    2    3 1   
     6    2   12 1   
     7    2   13 1   
     8    3    4 1   
     9    3    8 1   
    10    3   14 1   
    11    4    5 1   
    12    4   15 1   
    13    4   16 1   
    14    5    6 1   
    15    5   17 1   
    16    5   18 1   
    17    6    7 1   
    18    6    9 1   
    19    6   19 1   
    20    7    8 1   
    21    7   20 1   
    22    7   21 1   
    23    8   22 1   
    24    8   23 1   
    25    9   24 1   
    26    9   25 1   
    27    9   27 1   
@<TRIPOS>SUBSTRUCTURE
     1 CHN         1 TEMP              0 ****  ****    0 ROOT
