@<TRIPOS>MOLECULE
CHN
   25    25     1     0     0
SMALL
bcc


@<TRIPOS>ATOM
      1 N1          0.7250    0.1900   -3.2390 n3        1 CHN     -0.916800
      2 C1         -0.2280   -0.2130   -2.2580 c3        1 CHN      0.159800
      3 C2          0.3920   -0.0980   -0.8690 c3        1 CHN     -0.060700
      4 C7         -0.0300    1.2240   -0.2520 c3        1 CHN     -0.067900
      5 C6          0.3890    1.3460    1.1970 c3        1 CHN     -0.069900
      6 C5         -0.0470    0.1520    2.0300 c3        1 CHN      0.172500
      7 C4          0.3740   -1.1710    1.4130 c3        1 CHN     -0.069900
      8 C3         -0.0440   -1.2930   -0.0350 c3        1 CHN     -0.067900
      9 N2         -1.4750    0.1700    2.1540 n3        1 CHN     -0.912800
     10 HN11        0.3670    0.0810   -4.0750 hn        1 CHN      0.346300
     11 HN12        1.4800   -0.3230   -3.1610 hn        1 CHN      0.346300
     12 H11        -0.4920   -1.1420   -2.4220 h1        1 CHN      0.025700
     13 H12        -1.0170    0.3650   -2.3130 h1        1 CHN      0.025700
     14 H21         1.3640   -0.1100   -0.9540 hc        1 CHN      0.038700
     15 H71        -1.0030    1.3030   -0.3080 hc        1 CHN      0.049950
     16 H72         0.3770    1.9540   -0.7610 hc        1 CHN      0.049950
     17 H61         1.3630    1.4220    1.2390 hc        1 CHN      0.037700
     18 H62        -0.0090    2.1560    1.5740 hc        1 CHN      0.037700
     19 H51         0.3490    0.2260    2.9200 h1        1 CHN      0.000700
     20 H41         1.3480   -1.2500    1.4690 hc        1 CHN      0.037700
     21 H42        -0.0320   -1.9010    1.9220 hc        1 CHN      0.037700
     22 H31        -1.0190   -1.3690   -0.0780 hc        1 CHN      0.049950
     23 H32         0.3530   -2.1030   -0.4120 hc        1 CHN      0.049950
     24 HN21       -1.7350    0.9390    2.5800 hn        1 CHN      0.348800
     25 HN22       -1.7490   -0.5560    2.6410 hn        1 CHN      0.348800
@<TRIPOS>BOND
     1    1    2 1   
     2    1   10 1   
     3    1   11 1   
     4    2    3 1   
     5    2   12 1   
     6    2   13 1   
     7    3    4 1   
     8    3    8 1   
     9    3   14 1   
    10    4    5 1   
    11    4   15 1   
    12    4   16 1   
    13    5    6 1   
    14    5   17 1   
    15    5   18 1   
    16    6    7 1   
    17    6    9 1   
    18    6   19 1   
    19    7    8 1   
    20    7   20 1   
    21    7   21 1   
    22    8   22 1   
    23    8   23 1   
    24    9   24 1   
    25    9   25 1   
@<TRIPOS>SUBSTRUCTURE
     1 CHN         1 TEMP              0 ****  ****    0 ROOT
