@<TRIPOS>MOLECULE
CHN
   27    27     1     0     0
SMALL
bcc


@<TRIPOS>ATOM
      1 N1         -0.0490   -0.4540   -0.1020 nz        1 CHN     -0.837600
      2 C1          1.3880   -0.0690   -0.0000 c3        1 CHN      0.100800
      3 C2          1.8910    0.0710    1.4400 c3        1 CHN     -0.097700
      4 C7          3.4140   -0.0180    1.4380 c3        1 CHN     -0.092400
      5 C6          3.9620    0.0790    2.8450 c3        1 CHN     -0.111400
      6 C5          3.5050    1.3290    3.5990 c3        1 CHN      0.124500
      7 C4          1.9910    1.5210    3.4790 c3        1 CHN     -0.111400
      8 C3          1.4670    1.3930    2.0640 c3        1 CHN     -0.092400
      9 N2          4.2660    2.5550    3.1660 nz        1 CHN     -0.843600
     10 HN11       -0.6450    0.2450    0.3550 hn        1 CHN      0.471800
     11 HN12       -0.3200   -0.5230   -1.0930 hn        1 CHN      0.471800
     12 H11         1.5200    0.9060   -0.5540 hx        1 CHN      0.122700
     13 H12         1.9860   -0.8680   -0.5330 hx        1 CHN      0.122700
     14 H21         1.4930   -0.7770    2.0690 hc        1 CHN      0.088700
     15 H71         3.8390    0.7930    0.7890 hc        1 CHN      0.068450
     16 H72         3.7410   -1.0000    0.9980 hc        1 CHN      0.068450
     17 H61         5.0840    0.0130    2.8140 hc        1 CHN      0.102950
     18 H62         3.6090   -0.8050    3.4480 hc        1 CHN      0.102950
     19 H51         3.7600    1.1960    4.6990 hx        1 CHN      0.131700
     20 H41         1.6750    2.5110    3.9070 hc        1 CHN      0.102950
     21 H42         1.5200    0.7280    4.1270 hc        1 CHN      0.102950
     22 H31         1.8350    2.2450    1.4330 hc        1 CHN      0.068450
     23 H32         0.3470    1.4680    2.0990 hc        1 CHN      0.068450
     24 HN21        4.0990    2.7480    2.1750 hn        1 CHN      0.465467
     25 HN22        5.2720    2.4070    3.3100 hn        1 CHN      0.465467
     26 H13        -0.2100   -1.3640    0.3460 hn        1 CHN      0.471800
     27 H23         3.9650    3.3660    3.7190 hn        1 CHN      0.465467
@<TRIPOS>BOND
     1    1    2 1   
     2    1   10 1   
     3    1   11 1   
     4    1   26 1   
     5    2    3 1   
     6    2   12 1   
     7    2   13 1   
     8    3    4 1   
     9    3    8 1   
    10    3   14 1   
    11    4    5 1   
    12    4   15 1   
    13    4   16 1   
    14    5    6 1   
    15    5   17 1   
    16    5   18 1   
    17    6    7 1   
    18    6    9 1   
    19    6   19 1   
    20    7    8 1   
    21    7   20 1   
    22    7   21 1   
    23    8   22 1   
    24    8   23 1   
    25    9   24 1   
    26    9   25 1   
    27    9   27 1   
@<TRIPOS>SUBSTRUCTURE
     1 CHN         1 TEMP              0 ****  ****    0 ROOT
