@<TRIPOS>MOLECULE
CHN
   27    27     1     0     0
SMALL
bcc


@<TRIPOS>ATOM
      1 N1         -0.0310   -0.4740   -0.1130 n4        1 CHN     -0.837600
      2 C1          1.4060   -0.0910   -0.0000 c3        1 CHN      0.100800
      3 C2          1.8950    0.0670    1.4430 c3        1 CHN     -0.097700
      4 C7          3.4180   -0.0270    1.4580 c3        1 CHN     -0.092400
      5 C6          3.9510    0.0870    2.8690 c3        1 CHN     -0.111400
      6 C5          3.4890    1.3480    3.6030 c3        1 CHN      0.124500
      7 C4          1.9770    1.5420    3.4650 c3        1 CHN     -0.111400
      8 C3          1.4670    1.3970    2.0460 c3        1 CHN     -0.092400
      9 N2          4.2570    2.5670    3.1620 n4        1 CHN     -0.843600
     10 HN11       -0.1990   -1.3780    0.3460 hn        1 CHN      0.471800
     11 HN12       -0.6290    0.2320    0.3300 hn        1 CHN      0.471800
     12 H11         2.0080   -0.8980   -0.5170 hx        1 CHN      0.122700
     13 H12         1.5460    0.8770   -0.5650 hx        1 CHN      0.122700
     14 H21         1.4880   -0.7720    2.0790 hc        1 CHN      0.088700
     15 H71         3.8510    0.7750    0.8040 hc        1 CHN      0.068450
     16 H72         3.7470   -1.0150    1.0340 hc        1 CHN      0.068450
     17 H61         3.5890   -0.7880    3.4800 hc        1 CHN      0.102950
     18 H62         5.0730    0.0190    2.8520 hc        1 CHN      0.102950
     19 H51         3.7320    1.2280    4.7080 hx        1 CHN      0.131700
     20 H41         1.6590    2.5380    3.8770 hc        1 CHN      0.102950
     21 H42         1.4970    0.7580    4.1170 hc        1 CHN      0.102950
     22 H31         0.3470    1.4750    2.0680 hc        1 CHN      0.068450
     23 H32         1.8440    2.2400    1.4080 hc        1 CHN      0.068450
     24 HN21        5.2610    2.4180    3.3190 hn        1 CHN      0.465467
     25 HN22        4.1010    2.7470    2.1670 hn        1 CHN      0.465467
     26 H13        -0.2910   -0.5550   -1.1050 hn        1 CHN      0.471800
     27 H23         3.9520    3.3850    3.7010 hn        1 CHN      0.465467
@<TRIPOS>BOND
     1    1    2 1   
     2    1   10 1   
     3    1   11 1   
     4    1   26 1   
     5    2    3 1   
     6    2   12 1   
     7    2   13 1   
     8    3    4 1   
     9    3    8 1   
    10    3   14 1   
    11    4    5 1   
    12    4   15 1   
    13    4   16 1   
    14    5    6 1   
    15    5   17 1   
    16    5   18 1   
    17    6    7 1   
    18    6    9 1   
    19    6   19 1   
    20    7    8 1   
    21    7   20 1   
    22    7   21 1   
    23    8   22 1   
    24    8   23 1   
    25    9   24 1   
    26    9   25 1   
    27    9   27 1   
@<TRIPOS>SUBSTRUCTURE
     1 CHN         1 TEMP              0 ****  ****    0 ROOT
