@<TRIPOS>MOLECULE
CHO
   74    77     1     0     0
SMALL
bcc


@<TRIPOS>ATOM
      1 C1          3.9730    0.8130    2.0920 c3        1 CHO     -0.074400
      2 C2          4.4680    0.8090    3.5460 c3        1 CHO     -0.108400
      3 C3          3.9530    2.0470    4.2650 c3        1 CHO      0.142100
      4 O3          4.4250    3.1920    3.6180 oh        1 CHO     -0.601800
      5 C4          2.4270    2.0450    4.2530 c3        1 CHO     -0.072400
      6 C5          1.9300    0.8150    3.5400 c3        1 CHO     -0.047700
      7 C6          0.4320    0.8070    3.5390 c3        1 CHO     -0.108400
      8 C7         -0.0710    0.8270    2.1270 c3        1 CHO      0.149100
      9 O7         -1.4860    0.8540    2.1300 oh        1 CHO     -0.598800
     10 C8          0.4580    2.0580    1.4240 c3        1 CHO     -0.030700
     11 C9          1.9830    2.0100    1.3920 c3        1 CHO     -0.037700
     12 C10         2.4540    0.8190    2.0780 c3        1 CHO     -0.029000
     13 C11         2.5300    1.9950   -0.2180 c3        1 CHO     -0.068400
     14 C12         1.5780    0.9780   -1.2200 c3        1 CHO     -0.064400
     15 C13         0.2660    0.8680   -0.6210 c3        1 CHO     -0.040000
     16 C14        -0.0520    2.0990    0.0380 c3        1 CHO     -0.052700
     17 C15        -1.6160    2.2780    0.0310 c3        1 CHO     -0.072400
     18 C16        -2.0880    1.3520   -1.2980 c3        1 CHO     -0.082400
     19 C17        -0.7960    0.6150   -1.7060 c3        1 CHO     -0.054700
     20 C18         0.2530   -0.2550    0.3680 c3        1 CHO     -0.086100
     21 C19         1.9540   -0.4110    1.3580 c3        1 CHO     -0.090100
     22 C20        -1.0640   -0.8410   -1.8200 c3        1 CHO     -0.058700
     23 C21        -0.0470   -1.4710   -2.7540 c3        1 CHO     -0.092100
     24 C22        -2.4740   -1.0590   -2.3820 c3        1 CHO     -0.073400
     25 C23        -2.6260   -2.5220   -2.8370 c3        1 CHO     -0.156400
     26 C24        -3.9940   -2.7140   -3.4950 c         1 CHO      0.634100
     27 O24        -4.7530   -1.7720   -3.6010 o         1 CHO     -0.658100
     28 N25        -4.3470   -3.9920   -4.0620 n         1 CHO     -0.516900
     29 C26        -5.5490   -4.1250   -4.8390 c3        1 CHO     -0.056000
     30 C27        -5.7180   -5.5780   -5.2680 c         1 CHO      0.906600
     31 OT1        -5.1900   -5.9810   -6.3360 o         1 CHO     -0.838300
     32 OT2        -6.4730   -6.3450   -4.6100 o         1 CHO     -0.838300
     33 H11         4.2990    0.0200    1.6370 hc        1 CHO      0.047200
     34 H12         4.3080    1.6150    1.6340 hc        1 CHO      0.047200
     35 H21         4.1400    0.0120    3.9970 hc        1 CHO      0.042200
     36 H22         5.4420    0.8090    3.5570 hc        1 CHO      0.042200
     37 H3          4.2720    2.0420    5.1960 h1        1 CHO      0.025700
     38 HO3         4.8820    3.6910    4.1940 ho        1 CHO      0.395000
     39 H41         2.1030    2.8450    3.7880 hc        1 CHO      0.056700
     40 H42         2.0940    2.0450    5.1730 hc        1 CHO      0.056700
     41 H5          2.2590    0.0160    4.0020 hc        1 CHO      0.040700
     42 H61         0.1120    0.0040    3.9850 hc        1 CHO      0.043200
     43 H62         0.1040    1.5910    4.0110 hc        1 CHO      0.043200
     44 H7          0.2310    0.0440    1.6700 h1        1 CHO      0.047700
     45 HO7        -1.7840    0.6610    2.9440 ho        1 CHO      0.393000
     46 H8          0.1680    2.8530    1.8990 hc        1 CHO      0.051700
     47 H9          2.3380    2.8020    1.8440 hc        1 CHO      0.036700
     48 H111        2.4990    2.9120   -0.5740 hc        1 CHO      0.034200
     49 H112        3.4580    1.6780   -0.2350 hc        1 CHO      0.034200
     50 H121        1.9930    0.0850   -1.2810 hc        1 CHO      0.040200
     51 H122        1.5030    1.3690   -2.1120 hc        1 CHO      0.040200
     52 H14         0.3640    2.8420   -0.4400 hc        1 CHO      0.039700
     53 H151       -1.8570    3.2180   -0.1000 hc        1 CHO      0.049200
     54 H152       -2.0090    1.9290    0.8520 hc        1 CHO      0.049200
     55 H161       -2.7790    0.7140   -1.0430 hc        1 CHO      0.048700
     56 H162       -2.4000    1.9280   -2.0270 hc        1 CHO      0.048700
     57 H17        -0.4780    0.9600   -2.5650 hc        1 CHO      0.044700
     58 H181        0.5520   -1.0850   -0.0730 hc        1 CHO      0.035033
     59 H182       -0.6590   -0.3780    0.7120 hc        1 CHO      0.035033
     60 H183        0.8530   -0.0460    1.1050 hc        1 CHO      0.035033
     61 H191        2.6720   -1.0840    1.3200 hc        1 CHO      0.037033
     62 H192        1.1810   -0.7830    1.8420 hc        1 CHO      0.037033
     63 H193        1.6860   -0.1720    0.4550 hc        1 CHO      0.037033
     64 H20        -0.9980   -1.2520   -0.9440 hc        1 CHO      0.047700
     65 H211       -0.3540   -1.3790   -3.6850 hc        1 CHO      0.030700
     66 H212        0.8180   -1.0180   -2.6490 hc        1 CHO      0.030700
     67 H213        0.0520   -2.4160   -2.5360 hc        1 CHO      0.030700
     68 H221       -3.1290   -0.8650   -1.6940 hc        1 CHO      0.057200
     69 H222       -2.6160   -0.4660   -3.1420 hc        1 CHO      0.057200
     70 H231       -2.5520   -3.1110   -2.0640 hc        1 CHO      0.053200
     71 H232       -1.9210   -2.7380   -3.4810 hc        1 CHO      0.053200
     72 HN         -3.7810   -4.7020   -3.9750 hn        1 CHO      0.322500
     73 H261       -5.4900   -3.5520   -5.6360 h1        1 CHO      0.040700
     74 H262       -6.3210   -3.8530   -4.2970 h1        1 CHO      0.040700
@<TRIPOS>BOND
     1    1    2 1   
     2    1   12 1   
     3    1   33 1   
     4    1   34 1   
     5    2    3 1   
     6    2   35 1   
     7    2   36 1   
     8    3    4 1   
     9    3    5 1   
    10    3   37 1   
    11    4   38 1   
    12    5    6 1   
    13    5   39 1   
    14    5   40 1   
    15    6    7 1   
    16    6   12 1   
    17    6   41 1   
    18    7    8 1   
    19    7   42 1   
    20    7   43 1   
    21    8    9 1   
    22    8   10 1   
    23    8   44 1   
    24    9   45 1   
    25   10   11 1   
    26   10   16 1   
    27   10   46 1   
    28   11   12 1   
    29   11   13 1   
    30   11   47 1   
    31   12   21 1   
    32   13   14 1   
    33   13   48 1   
    34   13   49 1   
    35   14   15 1   
    36   14   50 1   
    37   14   51 1   
    38   15   16 1   
    39   15   19 1   
    40   15   20 1   
    41   16   17 1   
    42   16   52 1   
    43   17   18 1   
    44   17   53 1   
    45   17   54 1   
    46   18   19 1   
    47   18   55 1   
    48   18   56 1   
    49   19   22 1   
    50   19   57 1   
    51   20   58 1   
    52   20   59 1   
    53   20   60 1   
    54   21   61 1   
    55   21   62 1   
    56   21   63 1   
    57   22   23 1   
    58   22   24 1   
    59   22   64 1   
    60   23   65 1   
    61   23   66 1   
    62   23   67 1   
    63   24   25 1   
    64   24   68 1   
    65   24   69 1   
    66   25   26 1   
    67   25   70 1   
    68   25   71 1   
    69   26   27 2   
    70   26   28 1   
    71   28   29 1   
    72   28   72 1   
    73   29   30 1   
    74   29   73 1   
    75   29   74 1   
    76   30   31 1   
    77   30   32 1   
@<TRIPOS>SUBSTRUCTURE
     1 CHO         1 TEMP              0 ****  ****    0 ROOT
