@<TRIPOS>MOLECULE
CHO
   75    78     1     0     0
SMALL
bcc


@<TRIPOS>ATOM
      1 C1          0.0860    0.1260    0.2740 c3        1 CHO     -0.073400
      2 C2          1.5950    0.0850    0.3180 c3        1 CHO     -0.074400
      3 C3          2.0740    0.2710    1.7530 c3        1 CHO      0.144100
      4 O3          3.4960    0.2680    1.7130 oh        1 CHO     -0.599800
      5 C4          1.5410    1.5780    2.3260 c3        1 CHO     -0.120400
      6 C5          0.0240    1.6560    2.2480 c3        1 CHO     -0.041700
      7 C6         -0.4630    2.9720    2.8340 c3        1 CHO     -0.107400
      8 C7         -0.2330    4.1840    1.9380 c3        1 CHO      0.145100
      9 O7          1.1430    4.5420    1.8520 oh        1 CHO     -0.598800
     10 C8         -0.7560    3.9320    0.5210 c3        1 CHO     -0.036700
     11 C9         -0.1720    2.6360   -0.0620 c3        1 CHO     -0.048700
     12 C10        -0.5190    1.4250    0.8220 c3        1 CHO     -0.035000
     13 C11        -0.5720    2.4370   -1.5190 c3        1 CHO     -0.072400
     14 C12        -0.3370    3.6520   -2.4040 c3        1 CHO     -0.065400
     15 C13        -0.9980    4.8900   -1.8210 c3        1 CHO     -0.045000
     16 C14        -0.4010    5.0770   -0.4030 c3        1 CHO     -0.062700
     17 C15        -0.8070    6.4900   -0.0130 c3        1 CHO     -0.071400
     18 C16        -0.7950    7.2650   -1.3320 c3        1 CHO     -0.082400
     19 C17        -0.6120    6.2410   -2.4730 c3        1 CHO     -0.055700
     20 C18        -2.5090    4.7340   -1.8050 c3        1 CHO     -0.086100
     21 C19        -2.0270    1.1950    0.9010 c3        1 CHO     -0.090100
     22 C20        -1.3780    6.6410   -3.7290 c3        1 CHO     -0.053700
     23 C21        -1.2140    5.6190   -4.8370 c3        1 CHO     -0.094100
     24 C22        -0.8910    8.0040   -4.2210 c3        1 CHO     -0.078400
     25 C23        -1.9480    8.6800   -5.0760 c3        1 CHO     -0.164400
     26 C24        -1.4130    9.9670   -5.6350 c         1 CHO      0.559100
     27 O24        -0.4180   10.1230   -6.3370 o         1 CHO     -0.475100
     28 N25        -2.1910   11.2080   -5.3270 ny        1 CHO     -0.666800
     29 C26        -2.1970   11.5230   -3.8710 c3        1 CHO     -0.076200
     30 C27        -3.5460   11.0210   -3.2000 c         1 CHO      0.925600
     31 OT1        -3.6160   11.1750   -1.9700 o         1 CHO     -0.763300
     32 OT2        -4.3810   10.5170   -4.0020 o         1 CHO     -0.763300
     33 H11        -0.2630   -0.0370   -0.7780 hc        1 CHO      0.042200
     34 H12        -0.3140   -0.7290    0.8850 hc        1 CHO      0.042200
     35 H21         1.9640   -0.9000   -0.0690 hc        1 CHO      0.056200
     36 H22         2.0360    0.8860   -0.3290 hc        1 CHO      0.056200
     37 H3          1.7260   -0.5930    2.3890 h1        1 CHO      0.029700
     38 HO3         3.8000    0.5080    2.5960 ho        1 CHO      0.397000
     39 H41         2.0040    2.4370    1.7700 hc        1 CHO      0.054700
     40 H42         1.8560    1.6660    3.3990 hc        1 CHO      0.054700
     41 H5         -0.3880    0.8250    2.8930 hc        1 CHO      0.043700
     42 H61         0.0460    3.1440    3.8200 hc        1 CHO      0.044700
     43 H62        -1.5640    2.8950    3.0350 hc        1 CHO      0.044700
     44 H7         -0.7910    5.0660    2.3730 h1        1 CHO      0.033700
     45 HO7         1.4740    4.5850    2.7570 ho        1 CHO      0.397000
     46 H8         -1.8750    3.8480    0.6040 hc        1 CHO      0.056700
     47 H9          0.9520    2.7540   -0.0380 hc        1 CHO      0.067700
     48 H111        0.0290    1.5880   -1.9430 hc        1 CHO      0.040200
     49 H112       -1.6530    2.1450   -1.5790 hc        1 CHO      0.040200
     50 H121        0.7650    3.8330   -2.5090 hc        1 CHO      0.040200
     51 H122       -0.7410    3.4350   -3.4260 hc        1 CHO      0.040200
     52 H14         0.7260    5.0740   -0.5020 hc        1 CHO      0.066700
     53 H151       -1.8250    6.5050    0.4490 hc        1 CHO      0.046700
     54 H152       -0.0890    6.9230    0.7260 hc        1 CHO      0.046700
     55 H161       -1.7540    7.8290   -1.4560 hc        1 CHO      0.046200
     56 H162        0.0430    8.0040   -1.3410 hc        1 CHO      0.046200
     57 H17         0.4800    6.1890   -2.7410 hc        1 CHO      0.047700
     58 H181       -2.9890    5.6490   -1.3800 hc        1 CHO      0.037033
     59 H182       -2.8940    4.5760   -2.8410 hc        1 CHO      0.037033
     60 H183       -2.8210    3.8560   -1.1900 hc        1 CHO      0.037033
     61 H191       -2.4330    0.9310   -0.1050 hc        1 CHO      0.035033
     62 H192       -2.5620    2.1000    1.2720 hc        1 CHO      0.035033
     63 H193       -2.2500    0.3510    1.5990 hc        1 CHO      0.035033
     64 H20        -2.4720    6.7280   -3.4690 hc        1 CHO      0.065700
     65 H211       -0.1470    5.3010   -4.9260 hc        1 CHO      0.036700
     66 H212       -1.8370    4.7150   -4.6340 hc        1 CHO      0.036700
     67 H213       -1.5370    6.0430   -5.8190 hc        1 CHO      0.036700
     68 H221       -0.6570    8.6690   -3.3480 hc        1 CHO      0.058200
     69 H222        0.0540    7.8760   -4.8120 hc        1 CHO      0.058200
     70 H231       -2.2170    8.0320   -5.9550 hc        1 CHO      0.118700
     71 H232       -2.8870    8.8500   -4.4700 hc        1 CHO      0.118700
     72 HN         -3.1980   11.0250   -5.5650 hn        1 CHO      0.460800
     73 H261       -1.3300   11.0270   -3.3640 hx        1 CHO      0.089700
     74 H262       -2.1300   12.6330   -3.7390 hx        1 CHO      0.089700
     75 H252       -1.8370   11.9940   -5.8730 hn        1 CHO      0.460800
@<TRIPOS>BOND
     1    1    2 1   
     2    1   12 1   
     3    1   33 1   
     4    1   34 1   
     5    2    3 1   
     6    2   35 1   
     7    2   36 1   
     8    3    4 1   
     9    3    5 1   
    10    3   37 1   
    11    4   38 1   
    12    5    6 1   
    13    5   39 1   
    14    5   40 1   
    15    6    7 1   
    16    6   12 1   
    17    6   41 1   
    18    7    8 1   
    19    7   42 1   
    20    7   43 1   
    21    8    9 1   
    22    8   10 1   
    23    8   44 1   
    24    9   45 1   
    25   10   11 1   
    26   10   16 1   
    27   10   46 1   
    28   11   12 1   
    29   11   13 1   
    30   11   47 1   
    31   12   21 1   
    32   13   14 1   
    33   13   48 1   
    34   13   49 1   
    35   14   15 1   
    36   14   50 1   
    37   14   51 1   
    38   15   16 1   
    39   15   19 1   
    40   15   20 1   
    41   16   17 1   
    42   16   52 1   
    43   17   18 1   
    44   17   53 1   
    45   17   54 1   
    46   18   19 1   
    47   18   55 1   
    48   18   56 1   
    49   19   22 1   
    50   19   57 1   
    51   20   58 1   
    52   20   59 1   
    53   20   60 1   
    54   21   61 1   
    55   21   62 1   
    56   21   63 1   
    57   22   23 1   
    58   22   24 1   
    59   22   64 1   
    60   23   65 1   
    61   23   66 1   
    62   23   67 1   
    63   24   25 1   
    64   24   68 1   
    65   24   69 1   
    66   25   26 1   
    67   25   70 1   
    68   25   71 1   
    69   26   27 2   
    70   26   28 1   
    71   28   29 1   
    72   28   72 1   
    73   28   75 1   
    74   29   30 1   
    75   29   73 1   
    76   29   74 1   
    77   30   31 1   
    78   30   32 1   
@<TRIPOS>SUBSTRUCTURE
     1 CHO         1 TEMP              0 ****  ****    0 ROOT
