@<TRIPOS>MOLECULE
CHO
   75    78     1     0     0
SMALL
bcc


@<TRIPOS>ATOM
      1 C1          0.0510    0.1180    0.2650 c3        1 CHO     -0.073400
      2 C2          1.5590    0.0660    0.3120 c3        1 CHO     -0.074400
      3 C3          2.0370    0.2470    1.7480 c3        1 CHO      0.144100
      4 O3          3.4590    0.2330    1.7110 oh        1 CHO     -0.599800
      5 C4          1.5130    1.5570    2.3220 c3        1 CHO     -0.120400
      6 C5         -0.0040    1.6450    2.2420 c3        1 CHO     -0.041700
      7 C6         -0.4830    2.9640    2.8300 c3        1 CHO     -0.107400
      8 C7         -0.2420    4.1760    1.9370 c3        1 CHO      0.145100
      9 O7          1.1360    4.5240    1.8530 oh        1 CHO     -0.598800
     10 C8         -0.7660    3.9300    0.5180 c3        1 CHO     -0.036700
     11 C9         -0.1890    2.6320   -0.0660 c3        1 CHO     -0.048700
     12 C10        -0.5460    1.4210    0.8150 c3        1 CHO     -0.035000
     13 C11        -0.5880    2.4380   -1.5250 c3        1 CHO     -0.072400
     14 C12        -0.3430    3.6520   -2.4070 c3        1 CHO     -0.065400
     15 C13        -0.9970    4.8940   -1.8230 c3        1 CHO     -0.045000
     16 C14        -0.4010    5.0740   -0.4030 c3        1 CHO     -0.062700
     17 C15        -0.7970    6.4890   -0.0110 c3        1 CHO     -0.071400
     18 C16        -0.7780    7.2670   -1.3290 c3        1 CHO     -0.082400
     19 C17        -0.6000    6.2440   -2.4710 c3        1 CHO     -0.055700
     20 C18        -2.5090    4.7480   -1.8090 c3        1 CHO     -0.086100
     21 C19        -2.0560    1.2020    0.8910 c3        1 CHO     -0.090100
     22 C20        -1.3620    6.6520   -3.7280 c3        1 CHO     -0.053700
     23 C21        -1.2020    5.6300   -4.8380 c3        1 CHO     -0.094100
     24 C22        -0.8640    8.0120   -4.2170 c3        1 CHO     -0.078400
     25 C23        -1.9150    8.6960   -5.0730 c3        1 CHO     -0.164400
     26 C24        -1.3700    9.9810   -5.6280 c         1 CHO      0.559100
     27 O24        -0.3720   10.1320   -6.3260 o         1 CHO     -0.475100
     28 N25        -2.1420   11.2260   -5.3210 n4        1 CHO     -0.666800
     29 C26        -2.1500   11.5400   -3.8650 c3        1 CHO     -0.076200
     30 C27        -3.5050   11.0450   -3.1980 c         1 CHO      0.925600
     31 OT1        -3.5770   11.1990   -1.9690 o         1 CHO     -0.763300
     32 OT2        -4.3400   10.5470   -4.0040 o         1 CHO     -0.763300
     33 H11        -0.2980   -0.0400   -0.7880 hc        1 CHO      0.042200
     34 H12        -0.3560   -0.7350    0.8740 hc        1 CHO      0.042200
     35 H21         2.0070    0.8660   -0.3330 hc        1 CHO      0.056200
     36 H22         1.9220   -0.9200   -0.0770 hc        1 CHO      0.056200
     37 H3          1.6820   -0.6160    2.3810 h1        1 CHO      0.029700
     38 HO3         3.7630    0.4700    2.5940 ho        1 CHO      0.397000
     39 H41         1.9830    2.4130    1.7690 hc        1 CHO      0.054700
     40 H42         1.8260    1.6400    3.3970 hc        1 CHO      0.054700
     41 H5         -0.4230    0.8160    2.8850 hc        1 CHO      0.043700
     42 H61         0.0260    3.1300    3.8170 hc        1 CHO      0.044700
     43 H62        -1.5850    2.8940    3.0290 hc        1 CHO      0.044700
     44 H7         -0.7950    5.0610    2.3720 h1        1 CHO      0.033700
     45 HO7         1.4660    4.5630    2.7580 ho        1 CHO      0.397000
     46 H8         -1.8840    3.8540    0.5990 hc        1 CHO      0.056700
     47 H9          0.9360    2.7410   -0.0410 hc        1 CHO      0.067700
     48 H111       -1.6710    2.1530   -1.5870 hc        1 CHO      0.040200
     49 H112        0.0080    1.5860   -1.9490 hc        1 CHO      0.040200
     50 H121       -0.7470    3.4400   -3.4300 hc        1 CHO      0.040200
     51 H122        0.7600    3.8260   -2.5100 hc        1 CHO      0.040200
     52 H14         0.7260    5.0640   -0.5000 hc        1 CHO      0.066700
     53 H151       -0.0780    6.9160    0.7300 hc        1 CHO      0.046700
     54 H152       -1.8160    6.5110    0.4490 hc        1 CHO      0.046700
     55 H161       -1.7330    7.8370   -1.4540 hc        1 CHO      0.046200
     56 H162        0.0650    8.0000   -1.3350 hc        1 CHO      0.046200
     57 H17         0.4920    6.1850   -2.7380 hc        1 CHO      0.047700
     58 H181       -2.9830    5.6660   -1.3840 hc        1 CHO      0.037033
     59 H182       -2.8930    4.5950   -2.8460 hc        1 CHO      0.037033
     60 H183       -2.8280    3.8720   -1.1960 hc        1 CHO      0.037033
     61 H191       -2.4620    0.9430   -0.1160 hc        1 CHO      0.035033
     62 H192       -2.5850    2.1090    1.2630 hc        1 CHO      0.035033
     63 H193       -2.2860    0.3580    1.5860 hc        1 CHO      0.035033
     64 H20        -2.4550    6.7450   -3.4700 hc        1 CHO      0.065700
     65 H211       -1.5210    6.0580   -5.8190 hc        1 CHO      0.036700
     66 H212       -0.1370    5.3050   -4.9250 hc        1 CHO      0.036700
     67 H213       -1.8330    4.7300   -4.6370 hc        1 CHO      0.036700
     68 H221       -0.6280    8.6740   -3.3420 hc        1 CHO      0.058200
     69 H222        0.0820    7.8780   -4.8060 hc        1 CHO      0.058200
     70 H231       -2.8540    8.8720   -4.4680 hc        1 CHO      0.118700
     71 H232       -2.1870    8.0520   -5.9540 hc        1 CHO      0.118700
     72 HN         -3.1500   11.0490   -5.5630 hn        1 CHO      0.460800
     73 H261       -1.2880   11.0390   -3.3560 hx        1 CHO      0.089700
     74 H262       -2.0770   12.6500   -3.7310 hx        1 CHO      0.089700
     75 H252       -1.7820   12.0110   -5.8650 hn        1 CHO      0.460800
@<TRIPOS>BOND
     1    1    2 1   
     2    1   12 1   
     3    1   33 1   
     4    1   34 1   
     5    2    3 1   
     6    2   35 1   
     7    2   36 1   
     8    3    4 1   
     9    3    5 1   
    10    3   37 1   
    11    4   38 1   
    12    5    6 1   
    13    5   39 1   
    14    5   40 1   
    15    6    7 1   
    16    6   12 1   
    17    6   41 1   
    18    7    8 1   
    19    7   42 1   
    20    7   43 1   
    21    8    9 1   
    22    8   10 1   
    23    8   44 1   
    24    9   45 1   
    25   10   11 1   
    26   10   16 1   
    27   10   46 1   
    28   11   12 1   
    29   11   13 1   
    30   11   47 1   
    31   12   21 1   
    32   13   14 1   
    33   13   48 1   
    34   13   49 1   
    35   14   15 1   
    36   14   50 1   
    37   14   51 1   
    38   15   16 1   
    39   15   19 1   
    40   15   20 1   
    41   16   17 1   
    42   16   52 1   
    43   17   18 1   
    44   17   53 1   
    45   17   54 1   
    46   18   19 1   
    47   18   55 1   
    48   18   56 1   
    49   19   22 1   
    50   19   57 1   
    51   20   58 1   
    52   20   59 1   
    53   20   60 1   
    54   21   61 1   
    55   21   62 1   
    56   21   63 1   
    57   22   23 1   
    58   22   24 1   
    59   22   64 1   
    60   23   65 1   
    61   23   66 1   
    62   23   67 1   
    63   24   25 1   
    64   24   68 1   
    65   24   69 1   
    66   25   26 1   
    67   25   70 1   
    68   25   71 1   
    69   26   27 2   
    70   26   28 1   
    71   28   29 1   
    72   28   72 1   
    73   28   75 1   
    74   29   30 1   
    75   29   73 1   
    76   29   74 1   
    77   30   31 1   
    78   30   32 1   
@<TRIPOS>SUBSTRUCTURE
     1 CHO         1 TEMP              0 ****  ****    0 ROOT
