@<TRIPOS>MOLECULE
CHO
   74    77     1     0     0
SMALL
bcc


@<TRIPOS>ATOM
      1 C1          5.5430   -1.9550    0.0240 c3        1 CHO     -0.068400
      2 C2          6.0070   -1.5300   -1.3490 c3        1 CHO     -0.112400
      3 C3          6.9180   -0.3140   -1.2350 c3        1 CHO      0.144100
      4 O3          7.3090    0.1740   -2.5130 oh        1 CHO     -0.601800
      5 C4          6.1880    0.8260   -0.5370 c3        1 CHO     -0.083400
      6 C5          5.6780    0.4060    0.8340 c3        1 CHO     -0.044700
      7 C6          4.9680    1.5750    1.5020 c3        1 CHO     -0.106400
      8 C7          3.5790    1.8680    0.9450 c3        1 CHO      0.144100
      9 O7          3.6260    2.4190   -0.3660 oh        1 CHO     -0.593800
     10 C8          2.7220    0.5980    0.9060 c3        1 CHO     -0.035700
     11 C9          3.4410   -0.5220    0.1400 c3        1 CHO     -0.048700
     12 C10         4.7940   -0.8580    0.7940 c3        1 CHO     -0.035000
     13 C11         2.5560   -1.7500   -0.0460 c3        1 CHO     -0.071400
     14 C12         1.1640   -1.4460   -0.5770 c3        1 CHO     -0.065400
     15 C13         0.4710   -0.3910    0.2700 c3        1 CHO     -0.047000
     16 C14         1.3870    0.8590    0.2430 c3        1 CHO     -0.065700
     17 C15         0.5050    1.9760    0.7790 c3        1 CHO     -0.072400
     18 C16        -0.9000    1.6180    0.2910 c3        1 CHO     -0.078400
     19 C17        -0.8400    0.1970   -0.3100 c3        1 CHO     -0.050700
     20 C18         0.2290   -0.9100    1.6770 c3        1 CHO     -0.082100
     21 C19         4.6200   -1.3800    2.2190 c3        1 CHO     -0.089100
     22 C20        -2.1230   -0.5850   -0.0560 c3        1 CHO     -0.058700
     23 C21        -2.0470   -1.9880   -0.6300 c3        1 CHO     -0.090100
     24 C22        -3.3180    0.1470   -0.6660 c3        1 CHO     -0.072400
     25 C23        -4.6180   -0.2450    0.0010 c3        1 CHO     -0.156400
     26 C24        -5.8000    0.4830   -0.6310 c         1 CHO      0.633100
     27 O24        -5.6280    1.2600   -1.6000 o         1 CHO     -0.657100
     28 N25        -7.0200    0.2930   -0.0380 n         1 CHO     -0.516900
     29 C26        -8.2600    0.6970   -0.6490 c3        1 CHO     -0.056000
     30 C27        -9.4560   -0.2330   -0.2850 c         1 CHO      0.906600
     31 OT1        -9.2440   -1.2410    0.4490 o         1 CHO     -0.838300
     32 OT2       -10.5770    0.0940   -0.7580 o         1 CHO     -0.838300
     33 H11         4.8930   -2.8640   -0.0600 hc        1 CHO      0.040700
     34 H12         6.4430   -2.2520    0.6290 hc        1 CHO      0.040700
     35 H21         6.5620   -2.3740   -1.8360 hc        1 CHO      0.047700
     36 H22         5.1300   -1.2810   -2.0020 hc        1 CHO      0.047700
     37 H3          7.8460   -0.5910   -0.6580 h1        1 CHO      0.025700
     38 HO3         7.5900   -0.5910   -3.0290 ho        1 CHO      0.396000
     39 H41         6.8910    1.6920   -0.4250 hc        1 CHO      0.063200
     40 H42         5.3380    1.1680   -1.1860 hc        1 CHO      0.063200
     41 H5          6.5810    0.1540    1.4640 hc        1 CHO      0.038700
     42 H61         4.8630    1.3570    2.5980 hc        1 CHO      0.042200
     43 H62         5.6050    2.4940    1.4020 hc        1 CHO      0.042200
     44 H7          3.0710    2.6200    1.6190 h1        1 CHO      0.031700
     45 HO7         4.2600    3.1460   -0.3390 ho        1 CHO      0.395000
     46 H8          2.5560    0.2920    1.9750 hc        1 CHO      0.053700
     47 H9          3.6620   -0.1120   -0.8900 hc        1 CHO      0.066700
     48 H111        3.0530   -2.4430   -0.7760 hc        1 CHO      0.034700
     49 H112        2.4620   -2.3000    0.9260 hc        1 CHO      0.034700
     50 H121        1.2350   -1.0830   -1.6360 hc        1 CHO      0.043700
     51 H122        0.5660   -2.3940   -0.5870 hc        1 CHO      0.043700
     52 H14         1.6030    1.1020   -0.8390 hc        1 CHO      0.066700
     53 H151        0.5420    2.0180    1.8960 hc        1 CHO      0.037700
     54 H152        0.8360    2.9690    0.3880 hc        1 CHO      0.037700
     55 H161       -1.6260    1.6520    1.1410 hc        1 CHO      0.048200
     56 H162       -1.2450    2.3460   -0.4830 hc        1 CHO      0.048200
     57 H17        -0.7090    0.2840   -1.4250 hc        1 CHO      0.049700
     58 H181        1.1840   -1.1900    2.1820 hc        1 CHO      0.033367
     59 H182       -0.2800   -0.1290    2.2930 hc        1 CHO      0.033367
     60 H183       -0.4210   -1.8190    1.6460 hc        1 CHO      0.033367
     61 H191        5.6200   -1.5600    2.6860 hc        1 CHO      0.034367
     62 H192        4.0670   -0.6520    2.8570 hc        1 CHO      0.034367
     63 H193        4.0590   -2.3450    2.2140 hc        1 CHO      0.034367
     64 H20        -2.2840   -0.6590    1.0570 hc        1 CHO      0.044700
     65 H211       -1.6180   -1.9670   -1.6610 hc        1 CHO      0.031700
     66 H212       -1.4090   -2.6460    0.0070 hc        1 CHO      0.031700
     67 H213       -3.0660   -2.4420   -0.6830 hc        1 CHO      0.031700
     68 H221       -3.1940    1.2570   -0.5710 hc        1 CHO      0.057200
     69 H222       -3.3800   -0.0740   -1.7640 hc        1 CHO      0.057200
     70 H231       -4.7870   -1.3500   -0.0950 hc        1 CHO      0.053200
     71 H232       -4.5730   -0.0020    1.0950 hc        1 CHO      0.053200
     72 HN         -7.1220   -0.4730    0.6000 hn        1 CHO      0.322500
     73 H261       -8.5060    1.7390   -0.3030 h1        1 CHO      0.040700
     74 H262       -8.1550    0.7240   -1.7680 h1        1 CHO      0.040700
@<TRIPOS>BOND
     1    1    2 1   
     2    1   12 1   
     3    1   33 1   
     4    1   34 1   
     5    2    3 1   
     6    2   35 1   
     7    2   36 1   
     8    3    4 1   
     9    3    5 1   
    10    3   37 1   
    11    4   38 1   
    12    5    6 1   
    13    5   39 1   
    14    5   40 1   
    15    6    7 1   
    16    6   12 1   
    17    6   41 1   
    18    7    8 1   
    19    7   42 1   
    20    7   43 1   
    21    8    9 1   
    22    8   10 1   
    23    8   44 1   
    24    9   45 1   
    25   10   11 1   
    26   10   16 1   
    27   10   46 1   
    28   11   12 1   
    29   11   13 1   
    30   11   47 1   
    31   12   21 1   
    32   13   14 1   
    33   13   48 1   
    34   13   49 1   
    35   14   15 1   
    36   14   50 1   
    37   14   51 1   
    38   15   16 1   
    39   15   19 1   
    40   15   20 1   
    41   16   17 1   
    42   16   52 1   
    43   17   18 1   
    44   17   53 1   
    45   17   54 1   
    46   18   19 1   
    47   18   55 1   
    48   18   56 1   
    49   19   22 1   
    50   19   57 1   
    51   20   58 1   
    52   20   59 1   
    53   20   60 1   
    54   21   61 1   
    55   21   62 1   
    56   21   63 1   
    57   22   23 1   
    58   22   24 1   
    59   22   64 1   
    60   23   65 1   
    61   23   66 1   
    62   23   67 1   
    63   24   25 1   
    64   24   68 1   
    65   24   69 1   
    66   25   26 1   
    67   25   70 1   
    68   25   71 1   
    69   26   27 2   
    70   26   28 1   
    71   28   29 1   
    72   28   72 1   
    73   29   30 1   
    74   29   73 1   
    75   29   74 1   
    76   30   31 1   
    77   30   32 1   
@<TRIPOS>SUBSTRUCTURE
     1 CHO         1 TEMP              0 ****  ****    0 ROOT
