@<TRIPOS>MOLECULE
CHO
   75    78     1     0     0
SMALL
bcc


@<TRIPOS>ATOM
      1 C1         -0.2160    0.0550    0.1310 c3        1 CHO     -0.069400
      2 C2          1.2660   -0.1690   -0.0510 c3        1 CHO     -0.113400
      3 C3          1.9630   -0.1780    1.3050 c3        1 CHO      0.144100
      4 O3          3.3750   -0.2820    1.1640 oh        1 CHO     -0.600800
      5 C4          1.6970    1.1260    2.0450 c3        1 CHO     -0.083400
      6 C5          0.2060    1.3820    2.2060 c3        1 CHO     -0.047700
      7 C6         -0.0200    2.6820    2.9630 c3        1 CHO     -0.106400
      8 C7          0.2330    3.9410    2.1420 c3        1 CHO      0.146100
      9 O7          1.6140    4.1570    1.8710 oh        1 CHO     -0.599800
     10 C8         -0.5190    3.8910    0.8080 c3        1 CHO     -0.037700
     11 C9         -0.1950    2.6000    0.0400 c3        1 CHO     -0.048700
     12 C10        -0.5630    1.3560    0.8680 c3        1 CHO     -0.035000
     13 C11        -0.8240    2.5920   -1.3480 c3        1 CHO     -0.072400
     14 C12        -0.5660    3.8510   -2.1600 c3        1 CHO     -0.065400
     15 C13        -0.9700    5.0950   -1.3850 c3        1 CHO     -0.045000
     16 C14        -0.1550    5.0710   -0.0670 c3        1 CHO     -0.062700
     17 C15        -0.3110    6.4780    0.4920 c3        1 CHO     -0.072400
     18 C16        -0.3890    7.3710   -0.7480 c3        1 CHO     -0.079400
     19 C17        -0.5100    6.4490   -1.9810 c3        1 CHO     -0.055700
     20 C18        -2.4700    5.1140   -1.1470 c3        1 CHO     -0.085100
     21 C19        -2.0610    1.2940    1.1610 c3        1 CHO     -0.091100
     22 C20        -1.3890    7.0580   -3.0680 c3        1 CHO     -0.051700
     23 C21        -1.5270    6.1370   -4.2650 c3        1 CHO     -0.101100
     24 C22        -0.7980    8.3940   -3.5200 c3        1 CHO     -0.079400
     25 C23        -1.8520    9.2570   -4.1840 c3        1 CHO     -0.166400
     26 C24        -1.2820   10.5970   -4.5480 c         1 CHO      0.560100
     27 O24        -0.4320   11.2480   -3.9490 o         1 CHO     -0.476100
     28 N25        -1.8140   11.2280   -5.7980 n4        1 CHO     -0.666800
     29 C26        -3.2880   11.4300   -5.7520 c3        1 CHO     -0.078200
     30 C27        -4.0360   10.2230   -6.4660 c         1 CHO      0.925600
     31 OT1        -5.2740   10.2440   -6.3830 o         1 CHO     -0.762800
     32 OT2        -3.2750    9.3850   -7.0260 o         1 CHO     -0.762800
     33 H11        -0.7260    0.0400   -0.8660 hc        1 CHO      0.042700
     34 H12        -0.6360   -0.8030    0.7250 hc        1 CHO      0.042700
     35 H21         1.4390   -1.1470   -0.5700 hc        1 CHO      0.048200
     36 H22         1.7120    0.6350   -0.6930 hc        1 CHO      0.048200
     37 H3          1.5920   -1.0520    1.9140 h1        1 CHO      0.029700
     38 HO3         3.5410   -1.0480    0.6020 ho        1 CHO      0.398000
     39 H41         2.1780    1.0740    3.0560 hc        1 CHO      0.062200
     40 H42         2.1850    1.9670    1.4850 hc        1 CHO      0.062200
     41 H5         -0.2120    0.5460    2.8400 hc        1 CHO      0.044700
     42 H61         0.6420    2.6960    3.8700 hc        1 CHO      0.045700
     43 H62        -1.0820    2.7120    3.3240 hc        1 CHO      0.045700
     44 H7         -0.1400    4.8340    2.7280 h1        1 CHO      0.030700
     45 HO7         2.0960    3.9500    2.6810 ho        1 CHO      0.401000
     46 H8         -1.6150    3.9290    1.0550 hc        1 CHO      0.055700
     47 H9          0.9260    2.5860   -0.1010 hc        1 CHO      0.066700
     48 H111       -0.4050    1.7250   -1.9270 hc        1 CHO      0.040700
     49 H112       -1.9310    2.4320   -1.2630 hc        1 CHO      0.040700
     50 H121        0.5230    3.9140   -2.4220 hc        1 CHO      0.042200
     51 H122       -1.1390    3.7840   -3.1210 hc        1 CHO      0.042200
     52 H14         0.9360    4.9460   -0.3400 hc        1 CHO      0.068700
     53 H151       -1.2400    6.5660    1.1070 hc        1 CHO      0.044700
     54 H152        0.5580    6.7470    1.1410 hc        1 CHO      0.044700
     55 H161        0.5280    8.0050   -0.8310 hc        1 CHO      0.038200
     56 H162       -1.2730    8.0510   -0.6780 hc        1 CHO      0.038200
     57 H17         0.5160    6.2950   -2.4190 hc        1 CHO      0.050700
     58 H181       -2.8010    4.2200   -0.5670 hc        1 CHO      0.036367
     59 H182       -3.0180    5.1100   -2.1210 hc        1 CHO      0.036367
     60 H183       -2.7600    6.0300   -0.5770 hc        1 CHO      0.036367
     61 H191       -2.4170    2.2140    1.6800 hc        1 CHO      0.035700
     62 H192       -2.6380    1.1750    0.2130 hc        1 CHO      0.035700
     63 H193       -2.2860    0.4180    1.8180 hc        1 CHO      0.035700
     64 H20        -2.4130    7.2490   -2.6360 hc        1 CHO      0.055700
     65 H211       -0.5340    5.7160   -4.5530 hc        1 CHO      0.043700
     66 H212       -1.9480    6.6860   -5.1430 hc        1 CHO      0.043700
     67 H213       -2.2170    5.2910   -4.0320 hc        1 CHO      0.043700
     68 H221       -0.3700    8.9510   -2.6450 hc        1 CHO      0.057200
     69 H222        0.0440    8.2020   -4.2360 hc        1 CHO      0.057200
     70 H231       -2.2850    8.7420   -5.0940 hc        1 CHO      0.124200
     71 H232       -2.7080    9.4460   -3.4770 hc        1 CHO      0.124200
     72 HN         -1.3250   12.1020   -5.9900 hn        1 CHO      0.460800
     73 H261       -3.6360   11.5060   -4.6920 hx        1 CHO      0.088700
     74 H262       -3.5430   12.3720   -6.3030 hx        1 CHO      0.088700
     75 H252       -1.6620   10.5480   -6.5860 hn        1 CHO      0.460800
@<TRIPOS>BOND
     1    1    2 1   
     2    1   12 1   
     3    1   33 1   
     4    1   34 1   
     5    2    3 1   
     6    2   35 1   
     7    2   36 1   
     8    3    4 1   
     9    3    5 1   
    10    3   37 1   
    11    4   38 1   
    12    5    6 1   
    13    5   39 1   
    14    5   40 1   
    15    6    7 1   
    16    6   12 1   
    17    6   41 1   
    18    7    8 1   
    19    7   42 1   
    20    7   43 1   
    21    8    9 1   
    22    8   10 1   
    23    8   44 1   
    24    9   45 1   
    25   10   11 1   
    26   10   16 1   
    27   10   46 1   
    28   11   12 1   
    29   11   13 1   
    30   11   47 1   
    31   12   21 1   
    32   13   14 1   
    33   13   48 1   
    34   13   49 1   
    35   14   15 1   
    36   14   50 1   
    37   14   51 1   
    38   15   16 1   
    39   15   19 1   
    40   15   20 1   
    41   16   17 1   
    42   16   52 1   
    43   17   18 1   
    44   17   53 1   
    45   17   54 1   
    46   18   19 1   
    47   18   55 1   
    48   18   56 1   
    49   19   22 1   
    50   19   57 1   
    51   20   58 1   
    52   20   59 1   
    53   20   60 1   
    54   21   61 1   
    55   21   62 1   
    56   21   63 1   
    57   22   23 1   
    58   22   24 1   
    59   22   64 1   
    60   23   65 1   
    61   23   66 1   
    62   23   67 1   
    63   24   25 1   
    64   24   68 1   
    65   24   69 1   
    66   25   26 1   
    67   25   70 1   
    68   25   71 1   
    69   26   27 2   
    70   26   28 1   
    71   28   29 1   
    72   28   72 1   
    73   28   75 1   
    74   29   30 1   
    75   29   73 1   
    76   29   74 1   
    77   30   31 1   
    78   30   32 1   
@<TRIPOS>SUBSTRUCTURE
     1 CHO         1 TEMP              0 ****  ****    0 ROOT
