@<TRIPOS>MOLECULE
CHP
   20    20     1     0     0
SMALL
bcc


@<TRIPOS>ATOM
      1 N          -0.1600    2.0050    2.3310 n3        1 CHP     -0.884800
      2 CA         -0.5260    0.6160    2.0640 c3        1 CHP      0.047800
      3 C           0.5380   -0.4040    2.6160 c         1 CHP      0.892600
      4 O           1.7550   -0.1190    2.4290 o         1 CHP     -0.829800
      5 OXT         0.1080   -1.4120    3.2330 o         1 CHP     -0.829800
      6 C1         -0.7260    0.3730    0.5940 ca        1 CHP     -0.037300
      7 C2          0.3850    0.3050   -0.2560 ca        1 CHP     -0.076000
      8 C3          0.2060    0.0890   -1.6220 ca        1 CHP     -0.062600
      9 CL3         1.5730    0.0180   -2.6490 cl        1 CHP     -0.137400
     10 C4         -1.0880   -0.0730   -2.1480 ca        1 CHP      0.097100
     11 O4         -1.3570   -0.2840   -3.4860 oh        1 CHP     -0.514100
     12 C5         -2.1990   -0.0190   -1.2950 ca        1 CHP     -0.166000
     13 C6         -2.0100    0.2070    0.0650 ca        1 CHP     -0.098000
     14 H           0.0470    2.0760    3.3120 hn        1 CHP      0.333800
     15 H2          0.6980    2.2010    1.8430 hn        1 CHP      0.333800
     16 HA         -1.4970    0.4180    2.6040 h1        1 CHP      0.054700
     17 HC2         1.3960    0.3910    0.1890 ha        1 CHP      0.194000
     18 HO4        -0.5080   -0.3610   -3.9470 ho        1 CHP      0.416000
     19 H5         -3.2040   -0.1550   -1.7160 ha        1 CHP      0.133000
     20 H6         -2.8830    0.2510    0.7340 ha        1 CHP      0.132000
@<TRIPOS>BOND
     1    1    2 1   
     2    1   14 1   
     3    1   15 1   
     4    2    3 1   
     5    2    6 1   
     6    2   16 1   
     7    3    4 1   
     8    3    5 1   
     9    6    7 ar  
    10    6   13 ar  
    11    7    8 ar  
    12    7   17 1   
    13    8    9 1   
    14    8   10 ar  
    15   10   11 1   
    16   10   12 ar  
    17   11   18 1   
    18   12   13 ar  
    19   12   19 1   
    20   13   20 1   
@<TRIPOS>SUBSTRUCTURE
     1 CHP         1 TEMP              0 ****  ****    0 ROOT
