@<TRIPOS>MOLECULE
CHQ
   31    33     1     0     0
SMALL
bcc


@<TRIPOS>ATOM
      1 N          -0.0800   -0.1440   -0.0560 n         1 CHQ     -0.571900
      2 CA          1.3530   -0.0090   -0.0100 c3        1 CHQ      0.044700
      3 C           1.8940    0.0290    1.4360 c         1 CHQ      0.676500
      4 O           2.8970    0.7050    1.7250 o         1 CHQ     -0.617500
      5 CB          1.8590    1.2510   -0.7410 c3        1 CHQ     -0.010100
      6 ND1         0.4010    1.9870   -2.6980 na        1 CHQ     -0.318900
      7 CE1         0.3940    1.7420   -4.0740 cc        1 CHQ      0.395400
      8 NE2         1.3830    0.8920   -4.4310 nd        1 CHQ     -0.664000
      9 CD2         2.0610    0.5850   -3.2560 cd        1 CHQ      0.310200
     10 CG          1.4720    1.2560   -2.1620 cc        1 CHQ     -0.238900
     11 NP          1.2830   -0.7960    2.3700 n         1 CHQ     -0.439800
     12 CAP        -0.0280   -1.3820    2.1150 c3        1 CHQ      0.019700
     13 CP         -0.7940   -0.7960    0.9240 c         1 CHQ      0.686500
     14 OP         -2.0280   -0.9250    0.8220 o         1 CHQ     -0.630500
     15 CBP        -0.8520   -1.2740    3.4180 c3        1 CHQ     -0.081400
     16 CGP         0.1080   -0.7700    4.4890 c3        1 CHQ     -0.099400
     17 CDP         1.4650   -0.5610    3.7970 c3        1 CHQ      0.075000
     18 H          -0.5450    0.1450   -0.8850 hn        1 CHQ      0.333500
     19 HA          1.8300   -0.9130   -0.5050 h1        1 CHQ      0.075700
     20 HBC1        1.4930    2.1680   -0.2080 hc        1 CHQ      0.083200
     21 HBC2        2.9820    1.2500   -0.6660 hc        1 CHQ      0.083200
     22 HE1        -0.3410    2.1900   -4.7520 h5        1 CHQ      0.064100
     23 HD2         2.9210   -0.0830   -3.2490 h4        1 CHQ      0.045100
     24 HAP         0.1340   -2.4740    1.8620 h1        1 CHQ      0.088700
     25 HBP1       -1.7140   -0.5760    3.2780 hc        1 CHQ      0.071200
     26 HBP2       -1.2660   -2.2780    3.6810 hc        1 CHQ      0.071200
     27 HGP1        0.2090   -1.5110    5.3190 hc        1 CHQ      0.057700
     28 HGP2       -0.2560    0.1900    4.9290 hc        1 CHQ      0.057700
     29 HDP1        1.8680    0.4740    3.9770 h1        1 CHQ      0.065700
     30 HDP2        2.2230   -1.3000    4.1770 h1        1 CHQ      0.065700
     31 HD1        -0.1840    2.6020   -2.2000 hn        1 CHQ      0.302700
@<TRIPOS>BOND
     1    1    2 1   
     2    1   13 1   
     3    1   18 1   
     4    2    3 1   
     5    2    5 1   
     6    2   19 1   
     7    3    4 2   
     8    3   11 1   
     9    5   10 1   
    10    5   20 1   
    11    5   21 1   
    12    6    7 1   
    13    6   10 1   
    14    6   31 1   
    15    7    8 2   
    16    7   22 1   
    17    8    9 1   
    18    9   10 2   
    19    9   23 1   
    20   11   12 1   
    21   11   17 1   
    22   12   13 1   
    23   12   15 1   
    24   12   24 1   
    25   13   14 2   
    26   15   16 1   
    27   15   25 1   
    28   15   26 1   
    29   16   17 1   
    30   16   27 1   
    31   16   28 1   
    32   17   29 1   
    33   17   30 1   
@<TRIPOS>SUBSTRUCTURE
     1 CHQ         1 TEMP              0 ****  ****    0 ROOT
