@<TRIPOS>MOLECULE
CHQ
   31    30     1     0     0
SMALL
bcc


@<TRIPOS>ATOM
      1 N          -1.3660    0.6690   -0.3350 n         1 CHQ     -0.571900
      2 CA          0.0610    0.6690   -0.3350 c3        1 CHQ      0.046700
      3 C           0.5800    0.6690    1.1200 c         1 CHQ      0.674500
      4 O           1.7080    1.0600    1.3640 o         1 CHQ     -0.621500
      5 CB          0.6570    1.8520   -1.1800 c3        1 CHQ     -0.018200
      6 ND1         2.0160    0.8990   -3.1450 n1        1 CHQ     -1.014500
      7 CE1         2.0070    1.1380   -4.4840 cg        1 CHQ      0.283800
      8 NE2         0.8480    1.7790   -4.7880 ne        1 CHQ     -0.408400
      9 CD2         0.1510    1.9350   -3.6540 c1        1 CHQ      0.116500
     10 CG          0.8800    1.3860   -2.6290 ce        1 CHQ      0.284400
     11 NP         -0.0220   -0.3690    1.9400 n         1 CHQ     -0.439800
     12 CAP        -0.8590   -1.1150    1.2850 c3        1 CHQ      0.019700
     13 CP         -1.9230   -0.3320    0.4910 c         1 CHQ      0.686500
     14 OP         -3.0430   -0.1900    0.9500 o         1 CHQ     -0.627500
     15 CBP        -1.6080   -2.0510    2.4030 c3        1 CHQ     -0.082400
     16 CGP        -0.7010   -2.3770    3.2810 c3        1 CHQ     -0.098400
     17 CDP         0.3420   -1.1870    3.2130 c3        1 CHQ      0.076000
     18 H          -1.8220    0.9590   -1.0700 hn        1 CHQ      0.341500
     19 HA          0.4060   -0.1030   -0.8240 h1        1 CHQ      0.067700
     20 HBC1        0.0340    2.6030   -1.1730 hc        1 CHQ      0.085200
     21 HBC2        1.5080    2.1320   -0.7940 hc        1 CHQ      0.085200
     22 HD1         2.6800    0.4810   -2.6800 DU        1 CHQ      0.212000
     23 HE1         2.7090    0.8910   -5.1150 DU        1 CHQ      0.212000
     24 HD2        -0.7230    2.3640   -3.5720 DU        1 CHQ      0.212000
     25 HAP        -0.3620   -1.6880    0.6700 h1        1 CHQ      0.086700
     26 HBP1       -1.9680   -2.8540    1.9810 hc        1 CHQ      0.071700
     27 HBP2       -2.3250   -1.5480    2.8340 hc        1 CHQ      0.071700
     28 HGP1       -1.1260   -2.3350    4.1590 hc        1 CHQ      0.057700
     29 HGP2       -0.2490   -3.1730    2.9430 hc        1 CHQ      0.057700
     30 HDP1        0.2630   -0.6250    4.0080 h1        1 CHQ      0.065200
     31 HDP2        1.2490   -1.5400    3.1390 h1        1 CHQ      0.065200
@<TRIPOS>BOND
     1    1    2 1   
     2    1   13 1   
     3    1   18 1   
     4    2    3 1   
     5    2    5 1   
     6    2   19 1   
     7    3    4 2   
     8    3   11 1   
     9    5   10 1   
    10    5   20 1   
    11    5   21 1   
    12    6    7 3   
    13    6   10 1   
    14    7    8 1   
    15    8    9 2   
    16    9   10 2   
    17   11   12 1   
    18   11   17 1   
    19   12   13 1   
    20   12   15 1   
    21   12   25 1   
    22   13   14 2   
    23   15   16 1   
    24   15   26 1   
    25   15   27 1   
    26   16   17 1   
    27   16   28 1   
    28   16   29 1   
    29   17   30 1   
    30   17   31 1   
@<TRIPOS>SUBSTRUCTURE
     1 CHQ         1 TEMP              0 ****  ****    0 ROOT
