@<TRIPOS>MOLECULE
CHQ
   31    33     1     0     0
SMALL
bcc


@<TRIPOS>ATOM
      1 N          -0.0790   -0.1470   -0.0570 ns        1 CHQ     -0.571900
      2 CA          1.3550   -0.0110   -0.0080 c3        1 CHQ      0.044700
      3 C           1.8920    0.0340    1.4390 c         1 CHQ      0.676500
      4 O           2.8940    0.7120    1.7270 o         1 CHQ     -0.617500
      5 CB          1.8620    1.2460   -0.7430 c3        1 CHQ     -0.010100
      6 ND1         0.4080    1.9730   -2.7080 na        1 CHQ     -0.318900
      7 CE1         0.4040    1.7210   -4.0820 cc        1 CHQ      0.395400
      8 NE2         1.3940    0.8700   -4.4330 nd        1 CHQ     -0.664000
      9 CD2         2.0690    0.5680   -3.2550 cd        1 CHQ      0.310200
     10 CG          1.4770    1.2450   -2.1650 cc        1 CHQ     -0.238900
     11 NP          1.2800   -0.7880    2.3760 n         1 CHQ     -0.439800
     12 CAP        -0.0310   -1.3760    2.1190 c3        1 CHQ      0.019700
     13 CP         -0.7940   -0.7960    0.9240 c         1 CHQ      0.686500
     14 OP         -2.0280   -0.9250    0.8200 o         1 CHQ     -0.630500
     15 CBP        -0.8580   -1.2640    3.4200 c3        1 CHQ     -0.081400
     16 CGP         0.1000   -0.7540    4.4910 c3        1 CHQ     -0.099400
     17 CDP         1.4580   -0.5460    3.8020 c3        1 CHQ      0.075000
     18 H          -0.5420    0.1380   -0.8890 hn        1 CHQ      0.333500
     19 HA          1.8330   -0.9170   -0.4980 h1        1 CHQ      0.075700
     20 HBC1        2.9850    1.2460   -0.6660 hc        1 CHQ      0.083200
     21 HBC2        1.4940    2.1650   -0.2150 hc        1 CHQ      0.083200
     22 HE1        -0.3290    2.1670   -4.7630 h5        1 CHQ      0.064100
     23 HD2         2.9290   -0.1010   -3.2430 h4        1 CHQ      0.045100
     24 HAP         0.1330   -2.4690    1.8710 h1        1 CHQ      0.088700
     25 HBP1       -1.2720   -2.2660    3.6860 hc        1 CHQ      0.071200
     26 HBP2       -1.7210   -0.5670    3.2750 hc        1 CHQ      0.071200
     27 HGP1       -0.2670    0.2080    4.9260 hc        1 CHQ      0.057700
     28 HGP2        0.1990   -1.4910    5.3240 hc        1 CHQ      0.057700
     29 HDP1        1.8590    0.4890    3.9780 h1        1 CHQ      0.065700
     30 HDP2        2.2160   -1.2830    4.1860 h1        1 CHQ      0.065700
     31 HD1        -0.1780    2.5910   -2.2130 hn        1 CHQ      0.302700
@<TRIPOS>BOND
     1    1    2 1   
     2    1   13 1   
     3    1   18 1   
     4    2    3 1   
     5    2    5 1   
     6    2   19 1   
     7    3    4 2   
     8    3   11 1   
     9    5   10 1   
    10    5   20 1   
    11    5   21 1   
    12    6    7 1   
    13    6   10 1   
    14    6   31 1   
    15    7    8 2   
    16    7   22 1   
    17    8    9 1   
    18    9   10 2   
    19    9   23 1   
    20   11   12 1   
    21   11   17 1   
    22   12   13 1   
    23   12   15 1   
    24   12   24 1   
    25   13   14 2   
    26   15   16 1   
    27   15   25 1   
    28   15   26 1   
    29   16   17 1   
    30   16   27 1   
    31   16   28 1   
    32   17   29 1   
    33   17   30 1   
@<TRIPOS>SUBSTRUCTURE
     1 CHQ         1 TEMP              0 ****  ****    0 ROOT
