@<TRIPOS>MOLECULE
CHQ
   31    33     1     0     0
SMALL
bcc


@<TRIPOS>ATOM
      1 N          -0.0810   -0.1350   -0.0570 n         1 CHQ     -0.571900
      2 CA          1.3530   -0.0080   -0.0130 c3        1 CHQ      0.044700
      3 C           1.8970    0.0230    1.4310 c         1 CHQ      0.676500
      4 O           2.9050    0.6930    1.7200 o         1 CHQ     -0.617500
      5 CB          1.8650    1.2500   -0.7430 c3        1 CHQ     -0.010100
      6 ND1         0.4080    2.0010   -2.6960 na        1 CHQ     -0.318900
      7 CE1         0.3960    1.7580   -4.0720 cc        1 CHQ      0.395400
      8 NE2         1.3790    0.9030   -4.4320 nd        1 CHQ     -0.664000
      9 CD2         2.0580    0.5890   -3.2600 cd        1 CHQ      0.310200
     10 CG          1.4750    1.2620   -2.1630 cc        1 CHQ     -0.238900
     11 NP          1.2840   -0.8010    2.3650 n         1 CHQ     -0.439800
     12 CAP        -0.0320   -1.3790    2.1100 c3        1 CHQ      0.019700
     13 CP         -0.7960   -0.7860    0.9230 c         1 CHQ      0.686500
     14 OP         -2.0310   -0.9070    0.8230 o         1 CHQ     -0.630500
     15 CBP        -0.8520   -1.2700    3.4150 c3        1 CHQ     -0.081400
     16 CGP         0.1130   -0.7740    4.4860 c3        1 CHQ     -0.099400
     17 CDP         1.4700   -0.5710    3.7920 c3        1 CHQ      0.075000
     18 H          -0.5460    0.1590   -0.8850 hn        1 CHQ      0.333500
     19 HA          1.8240   -0.9140   -0.5120 h1        1 CHQ      0.075700
     20 HBC1        2.9890    1.2430   -0.6700 hc        1 CHQ      0.083200
     21 HBC2        1.5050    2.1680   -0.2070 hc        1 CHQ      0.083200
     22 HE1        -0.3360    2.2120   -4.7470 h5        1 CHQ      0.064100
     23 HD2         2.9130   -0.0860   -3.2560 h4        1 CHQ      0.045100
     24 HAP         0.1240   -2.4710    1.8540 h1        1 CHQ      0.088700
     25 HBP1       -1.7110   -0.5670    3.2790 hc        1 CHQ      0.071200
     26 HBP2       -1.2720   -2.2720    3.6760 hc        1 CHQ      0.071200
     27 HGP1       -0.2450    0.1870    4.9290 hc        1 CHQ      0.057700
     28 HGP2        0.2120   -1.5180    5.3130 hc        1 CHQ      0.057700
     29 HDP1        2.2240   -1.3150    4.1680 h1        1 CHQ      0.065700
     30 HDP2        1.8780    0.4610    3.9740 h1        1 CHQ      0.065700
     31 HD1        -0.1720    2.6190   -2.1950 hn        1 CHQ      0.302700
@<TRIPOS>BOND
     1    1    2 1   
     2    1   13 1   
     3    1   18 1   
     4    2    3 1   
     5    2    5 1   
     6    2   19 1   
     7    3    4 2   
     8    3   11 1   
     9    5   10 1   
    10    5   20 1   
    11    5   21 1   
    12    6    7 1   
    13    6   10 1   
    14    6   31 1   
    15    7    8 2   
    16    7   22 1   
    17    8    9 1   
    18    9   10 2   
    19    9   23 1   
    20   11   12 1   
    21   11   17 1   
    22   12   13 1   
    23   12   15 1   
    24   12   24 1   
    25   13   14 2   
    26   15   16 1   
    27   15   25 1   
    28   15   26 1   
    29   16   17 1   
    30   16   27 1   
    31   16   28 1   
    32   17   29 1   
    33   17   30 1   
@<TRIPOS>SUBSTRUCTURE
     1 CHQ         1 TEMP              0 ****  ****    0 ROOT
