@<TRIPOS>MOLECULE
CHQ
   31    33     1     0     0
SMALL
bcc


@<TRIPOS>ATOM
      1 N          -0.9110    0.1290    0.1270 n         1 CHQ     -0.571900
      2 CA          0.5030    0.3440    0.2930 c3        1 CHQ      0.044700
      3 C           1.2980    0.0490   -0.9980 c         1 CHQ      0.676500
      4 O           2.4520   -0.4110   -0.9460 o         1 CHQ     -0.617500
      5 CB          1.1080   -0.5050    1.4290 c3        1 CHQ     -0.010100
      6 ND1        -0.5080   -1.0180    3.3330 na        1 CHQ     -0.318900
      7 CE1        -0.8190   -0.4180    4.5560 cc        1 CHQ      0.395400
      8 NE2        -0.1030    0.7130    4.7480 nd        1 CHQ     -0.664000
      9 CD2         0.7040    0.8470    3.6240 cd        1 CHQ      0.310200
     10 CG          0.4740   -0.2200    2.7270 cc        1 CHQ     -0.238900
     11 NP          0.7180    0.4140   -2.2050 n         1 CHQ     -0.439800
     12 CAP        -0.7090    0.7060   -2.2970 c3        1 CHQ      0.019700
     13 CP         -1.5470    0.2960   -1.0830 c         1 CHQ      0.686500
     14 OP         -2.7800    0.1390   -1.1700 o         1 CHQ     -0.630500
     15 CBP        -1.2390    0.0500   -3.5920 c3        1 CHQ     -0.081400
     16 CGP        -0.0170   -0.4740   -4.3360 c3        1 CHQ     -0.099400
     17 CDP         1.2030   -0.1480   -3.4600 c3        1 CHQ      0.075000
     18 H          -1.4540   -0.0290    0.9440 hn        1 CHQ      0.333500
     19 HA          0.6890    1.4370    0.5390 h1        1 CHQ      0.075700
     20 HBC1        1.0380   -1.5930    1.1630 hc        1 CHQ      0.083200
     21 HBC2        2.2030   -0.2480    1.4900 hc        1 CHQ      0.083200
     22 HE1        -1.5600   -0.8320    5.2470 h5        1 CHQ      0.064100
     23 HD2         1.3980    1.6800    3.5130 h4        1 CHQ      0.045100
     24 HAP        -0.8190    1.8310   -2.3730 h1        1 CHQ      0.088700
     25 HBP1       -1.7910    0.8110   -4.1960 hc        1 CHQ      0.071200
     26 HBP2       -1.9550   -0.7740   -3.3470 hc        1 CHQ      0.071200
     27 HGP1        0.0850    0.0160   -5.3350 hc        1 CHQ      0.057700
     28 HGP2       -0.0940   -1.5760   -4.5010 hc        1 CHQ      0.057700
     29 HDP1        1.8540    0.6240   -3.9550 h1        1 CHQ      0.065700
     30 HDP2        1.8310   -1.0600   -3.2650 h1        1 CHQ      0.065700
     31 HD1        -0.8550   -1.8710    2.9820 hn        1 CHQ      0.302700
@<TRIPOS>BOND
     1    1    2 1   
     2    1   13 1   
     3    1   18 1   
     4    2    3 1   
     5    2    5 1   
     6    2   19 1   
     7    3    4 2   
     8    3   11 1   
     9    5   10 1   
    10    5   20 1   
    11    5   21 1   
    12    6    7 1   
    13    6   10 1   
    14    6   31 1   
    15    7    8 2   
    16    7   22 1   
    17    8    9 1   
    18    9   10 2   
    19    9   23 1   
    20   11   12 1   
    21   11   17 1   
    22   12   13 1   
    23   12   15 1   
    24   12   24 1   
    25   13   14 2   
    26   15   16 1   
    27   15   25 1   
    28   15   26 1   
    29   16   17 1   
    30   16   27 1   
    31   16   28 1   
    32   17   29 1   
    33   17   30 1   
@<TRIPOS>SUBSTRUCTURE
     1 CHQ         1 TEMP              0 ****  ****    0 ROOT
