@<TRIPOS>MOLECULE
CHS
   35    35     1     0     0
SMALL
bcc


@<TRIPOS>ATOM
      1 N          -2.0260    0.0140   -1.2570 n3        1 CHS     -0.897800
      2 CA         -0.6060   -0.0730   -1.2320 c3        1 CHS      0.153500
      3 CB         -0.1160    0.0780    0.1890 c3        1 CHS     -0.065400
      4 CG         -0.1730    1.3740    0.5480 c3        1 CHS     -0.062700
      5 CD1         1.2400    1.9180    1.0300 c3        1 CHS     -0.072400
      6 CD2        -0.9400    1.5770    1.9490 c3        1 CHS     -0.072400
      7 CE1         1.8460    1.0920    2.1530 c3        1 CHS     -0.074400
      8 CE2        -0.3560    0.7520    3.0680 c3        1 CHS     -0.074400
      9 CZ          0.9090    0.3450    2.7800 c3        1 CHS     -0.072400
     10 CH         -0.1750   -1.4160   -1.7730 c3        1 CHS      0.136100
     11 OH         -1.1550   -2.3810   -1.4710 oh        1 CHS     -0.661800
     12 CM         -0.0040   -1.3250   -3.2730 c3        1 CHS     -0.240400
     13 C           0.3000   -2.6980   -3.8310 c         1 CHS      0.910600
     14 O           1.4560   -3.1830   -3.7150 o         1 CHS     -0.845800
     15 OXT        -0.6030   -3.3540   -4.4140 o         1 CHS     -0.845800
     16 H          -2.3600   -0.6080   -1.8400 hn        1 CHS      0.342300
     17 H2         -2.2760    0.8520   -1.5290 hn        1 CHS      0.342300
     18 HA         -0.2260    0.6380   -1.7850 h1        1 CHS      0.047700
     19 HB2        -0.6830   -0.4510    0.7880 hc        1 CHS      0.045700
     20 HB3         0.8090   -0.2380    0.2510 hc        1 CHS      0.045700
     21 HG         -0.5540    1.9340   -0.1570 hc        1 CHS      0.063700
     22 HD12        1.8550    1.9130    0.2690 hc        1 CHS      0.037950
     23 HD13        1.1320    2.8390    1.3410 hc        1 CHS      0.037950
     24 HD23       -1.8790    1.3280    1.8330 hc        1 CHS      0.037950
     25 HD22       -0.8940    2.5220    2.1990 hc        1 CHS      0.037950
     26 HE12        2.2640    1.6930    2.8030 hc        1 CHS      0.032700
     27 HE13        2.5310    0.4990    1.7800 hc        1 CHS      0.032700
     28 HE23       -0.9200   -0.0360    3.2120 hc        1 CHS      0.032700
     29 HE22       -0.3400    1.2890    3.8870 hc        1 CHS      0.032700
     30 HZ2         0.8140   -0.4730    2.2450 hc        1 CHS      0.026700
     31 HZ3         1.3070    0.0770    3.6360 hc        1 CHS      0.026700
     32 HH          0.6750   -1.6750   -1.3640 h1        1 CHS      0.033700
     33 HO         -0.7610   -3.1180   -1.1650 ho        1 CHS      0.458000
     34 HM1         0.7350   -0.7180   -3.4810 hc        1 CHS      0.034200
     35 HM2        -0.8280   -0.9850   -3.6750 hc        1 CHS      0.034200
@<TRIPOS>BOND
     1    1    2 1   
     2    1   16 1   
     3    1   17 1   
     4    2    3 1   
     5    2   10 1   
     6    2   18 1   
     7    3    4 1   
     8    3   19 1   
     9    3   20 1   
    10    4    5 1   
    11    4    6 1   
    12    4   21 1   
    13    5    7 1   
    14    5   22 1   
    15    5   23 1   
    16    6    8 1   
    17    6   24 1   
    18    6   25 1   
    19    7    9 1   
    20    7   26 1   
    21    7   27 1   
    22    8    9 1   
    23    8   28 1   
    24    8   29 1   
    25    9   30 1   
    26    9   31 1   
    27   10   11 1   
    28   10   12 1   
    29   10   32 1   
    30   11   33 1   
    31   12   13 1   
    32   12   34 1   
    33   12   35 1   
    34   13   14 1   
    35   13   15 1   
@<TRIPOS>SUBSTRUCTURE
     1 CHS         1 TEMP              0 ****  ****    0 ROOT
