@<TRIPOS>MOLECULE
CHS
   35    35     1     0     0
SMALL
bcc


@<TRIPOS>ATOM
      1 N          -0.2940    1.9790    0.1900 n3        1 CHS     -0.896800
      2 CA         -0.2190    0.5280    0.2660 c3        1 CHS      0.153500
      3 CB          0.6550   -0.0760   -0.8400 c3        1 CHS     -0.066400
      4 CG          0.1500    0.1950   -2.2470 c3        1 CHS     -0.061700
      5 CD1         1.2460   -0.1250   -3.2570 c3        1 CHS     -0.073900
      6 CD2        -1.0960   -0.6240   -2.5560 c3        1 CHS     -0.073900
      7 CE1         0.7750    0.1010   -4.6790 c3        1 CHS     -0.074900
      8 CE2        -1.5690   -0.3970   -3.9770 c3        1 CHS     -0.074900
      9 CZ         -0.4750   -0.7010   -4.9800 c3        1 CHS     -0.073400
     10 CH          0.2940   -0.0110    1.6330 c3        1 CHS      0.136100
     11 OH          1.5630    0.5850    1.8620 oh        1 CHS     -0.661800
     12 CM         -0.6830    0.2910    2.7570 c3        1 CHS     -0.239400
     13 C          -0.2930   -0.4450    4.0510 c         1 CHS      0.910600
     14 O           0.9360   -0.4750    4.3690 o         1 CHS     -0.845800
     15 OXT        -1.2110   -0.9660    4.7390 o         1 CHS     -0.845800
     16 H           0.6330    2.3570    0.2630 hn        1 CHS      0.342800
     17 H2         -0.8190    2.3120    0.9790 hn        1 CHS      0.342800
     18 HA         -1.2740    0.1410    0.1410 h1        1 CHS      0.047700
     19 HB2         1.6990    0.3230   -0.7310 hc        1 CHS      0.045700
     20 HB3         0.7050   -1.1850   -0.6740 hc        1 CHS      0.045700
     21 HG         -0.1110    1.2860   -2.3450 hc        1 CHS      0.065700
     22 HD12        2.1400    0.5200   -3.0530 hc        1 CHS      0.039200
     23 HD13        1.5660   -1.1930   -3.1320 hc        1 CHS      0.039200
     24 HD23       -0.8750   -1.7130   -2.4040 hc        1 CHS      0.039200
     25 HD22       -1.9130   -0.3420   -1.8430 hc        1 CHS      0.039200
     26 HE12        0.5630    1.1920   -4.8320 hc        1 CHS      0.031200
     27 HE13        1.5880   -0.1880   -5.3950 hc        1 CHS      0.031200
     28 HE23       -1.8970    0.6690   -4.0950 hc        1 CHS      0.031200
     29 HE22       -2.4590   -1.0470   -4.1850 hc        1 CHS      0.031200
     30 HZ2        -0.8340   -0.4650   -6.0150 hc        1 CHS      0.028700
     31 HZ3        -0.2330   -1.7950   -4.9470 hc        1 CHS      0.028700
     32 HH          0.4290   -1.1270    1.5540 h1        1 CHS      0.033700
     33 HO          1.8010    0.3710    2.7840 ho        1 CHS      0.459000
     34 HM1        -0.6850    1.3860    2.9830 hc        1 CHS      0.034200
     35 HM2        -1.7150   -0.0130    2.4560 hc        1 CHS      0.034200
@<TRIPOS>BOND
     1    1    2 1   
     2    1   16 1   
     3    1   17 1   
     4    2    3 1   
     5    2   10 1   
     6    2   18 1   
     7    3    4 1   
     8    3   19 1   
     9    3   20 1   
    10    4    5 1   
    11    4    6 1   
    12    4   21 1   
    13    5    7 1   
    14    5   22 1   
    15    5   23 1   
    16    6    8 1   
    17    6   24 1   
    18    6   25 1   
    19    7    9 1   
    20    7   26 1   
    21    7   27 1   
    22    8    9 1   
    23    8   28 1   
    24    8   29 1   
    25    9   30 1   
    26    9   31 1   
    27   10   11 1   
    28   10   12 1   
    29   10   32 1   
    30   11   33 1   
    31   12   13 1   
    32   12   34 1   
    33   12   35 1   
    34   13   14 1   
    35   13   15 1   
@<TRIPOS>SUBSTRUCTURE
     1 CHS         1 TEMP              0 ****  ****    0 ROOT
