@<TRIPOS>MOLECULE
CHT
   21    20     1     0     0
SMALL
bcc


@<TRIPOS>ATOM
      1 C4         -0.0380    0.0900   -0.1460 c3        1 CHT      0.117400
      2 C5          1.4710    0.0460    0.1170 c3        1 CHT      0.106800
      3 C6          1.3550   -2.4120   -0.0990 c3        1 CHT      0.087100
      4 C7          1.8260   -1.4110    2.0720 c3        1 CHT      0.087100
      5 C8          3.4890   -1.3090    0.3000 c3        1 CHT      0.087100
      6 O6         -0.7120   -0.3890    1.0000 oh        1 CHT     -0.625800
      7 N1          2.0230   -1.2730    0.5950 n4        1 CHT     -0.593800
      8 HC41       -0.3060    1.1600   -0.3650 h1        1 CHT      0.069700
      9 HC42       -0.3120   -0.5470   -1.0310 h1        1 CHT      0.069700
     10 HC51        1.7340    0.8170    0.8960 hx        1 CHT      0.105200
     11 HC52        1.9890    0.3080   -0.8510 hx        1 CHT      0.105200
     12 H61         0.2760   -2.4540    0.2170 hx        1 CHT      0.104033
     13 H62         1.4240   -2.2640   -1.2080 hx        1 CHT      0.104033
     14 H63         1.8660   -3.3700    0.1870 hx        1 CHT      0.104033
     15 H71         0.7310   -1.3260    2.3140 hx        1 CHT      0.104033
     16 H72         2.2090   -2.4130    2.4000 hx        1 CHT      0.104033
     17 H73         2.3920   -0.5990    2.5990 hx        1 CHT      0.104033
     18 H81         3.9830   -0.4120    0.7600 hx        1 CHT      0.104033
     19 H82         3.9300   -2.2450    0.7350 hx        1 CHT      0.104033
     20 H83         3.6490   -1.3020   -0.8110 hx        1 CHT      0.104033
     21 HO6        -1.6040   -0.0170    0.9960 ho        1 CHT      0.448000
@<TRIPOS>BOND
     1    1    2 1   
     2    1    6 1   
     3    1    8 1   
     4    1    9 1   
     5    2    7 1   
     6    2   10 1   
     7    2   11 1   
     8    3    7 1   
     9    3   12 1   
    10    3   13 1   
    11    3   14 1   
    12    4    7 1   
    13    4   15 1   
    14    4   16 1   
    15    4   17 1   
    16    5    7 1   
    17    5   18 1   
    18    5   19 1   
    19    5   20 1   
    20    6   21 1   
@<TRIPOS>SUBSTRUCTURE
     1 CHT         1 TEMP              0 ****  ****    0 ROOT
