@<TRIPOS>MOLECULE
CHT
   21    20     1     0     0
SMALL
bcc


@<TRIPOS>ATOM
      1 C4         -0.0490    0.0720   -0.1500 c3        1 CHT      0.117400
      2 C5          1.4640    0.0370    0.0940 c3        1 CHT      0.106800
      3 C6          1.3490   -2.4250   -0.0660 c3        1 CHT      0.087100
      4 C7          1.8480   -1.3750    2.0750 c3        1 CHT      0.087100
      5 C8          3.4860   -1.3100    0.2790 c3        1 CHT      0.087100
      6 O6         -0.7060   -0.3820    1.0170 oh        1 CHT     -0.625800
      7 N1          2.0250   -1.2700    0.5940 n4        1 CHT     -0.593800
      8 HC41       -0.3220    1.1370   -0.3890 h1        1 CHT      0.069700
      9 HC42       -0.3340   -0.5850   -1.0160 h1        1 CHT      0.069700
     10 HC51        1.9670    0.2780   -0.8870 hx        1 CHT      0.105200
     11 HC52        1.7350    0.8260    0.8520 hx        1 CHT      0.105200
     12 H61         0.2750   -2.4620    0.2660 hx        1 CHT      0.104033
     13 H62         1.4030   -2.3020   -1.1790 hx        1 CHT      0.104033
     14 H63         1.8660   -3.3760    0.2340 hx        1 CHT      0.104033
     15 H71         2.4200   -0.5500    2.5770 hx        1 CHT      0.104033
     16 H72         0.7560   -1.2870    2.3300 hx        1 CHT      0.104033
     17 H73         2.2380   -2.3690    2.4200 hx        1 CHT      0.104033
     18 H81         3.6320   -1.3280   -0.8330 hx        1 CHT      0.104033
     19 H82         3.9360   -2.2360    0.7290 hx        1 CHT      0.104033
     20 H83         3.9850   -0.4030    0.7120 hx        1 CHT      0.104033
     21 HO6        -1.5990   -0.0110    1.0170 ho        1 CHT      0.448000
@<TRIPOS>BOND
     1    1    2 1   
     2    1    6 1   
     3    1    8 1   
     4    1    9 1   
     5    2    7 1   
     6    2   10 1   
     7    2   11 1   
     8    3    7 1   
     9    3   12 1   
    10    3   13 1   
    11    3   14 1   
    12    4    7 1   
    13    4   15 1   
    14    4   16 1   
    15    4   17 1   
    16    5    7 1   
    17    5   18 1   
    18    5   19 1   
    19    5   20 1   
    20    6   21 1   
@<TRIPOS>SUBSTRUCTURE
     1 CHT         1 TEMP              0 ****  ****    0 ROOT
