@<TRIPOS>MOLECULE
CHT
   21    20     1     0     0
SMALL
bcc


@<TRIPOS>ATOM
      1 C4         -1.4820   -0.0000    1.0190 c3        1 CHT      0.124400
      2 C5          0.0440   -0.0000    1.0190 c3        1 CHT      0.094800
      3 C6          0.0490    1.1750   -1.0230 c3        1 CHT      0.088767
      4 C7          1.9670   -0.0000   -0.3440 c3        1 CHT      0.088767
      5 C8          0.0490   -1.1750   -1.0230 c3        1 CHT      0.088767
      6 O6         -1.9560   -0.0000    2.3560 oh        1 CHT     -0.584800
      7 N1          0.5270   -0.0000   -0.3440 n4        1 CHT     -0.600800
      8 HC41       -1.8080   -0.7970    0.5590 h1        1 CHT      0.047700
      9 HC42       -1.8080    0.7970    0.5590 h1        1 CHT      0.047700
     10 HC51        0.3690    0.7970    1.4800 hx        1 CHT      0.116200
     11 HC52        0.3690   -0.7970    1.4800 hx        1 CHT      0.116200
     12 H61         0.5810    1.3240   -1.8280 hx        1 CHT      0.103256
     13 H62        -0.8870    1.0500   -1.2700 hx        1 CHT      0.103256
     14 H63         0.1290    1.9480   -0.4330 hx        1 CHT      0.103256
     15 H71         2.2930    0.7970    0.1160 hx        1 CHT      0.103256
     16 H72         2.2930   -0.7970    0.1160 hx        1 CHT      0.103256
     17 H73         2.2930   -0.0000   -1.2640 hx        1 CHT      0.103256
     18 H81         0.1290   -1.9480   -0.4330 hx        1 CHT      0.103256
     19 H82        -0.8870   -1.0500   -1.2700 hx        1 CHT      0.103256
     20 H83         0.5810   -1.3240   -1.8280 hx        1 CHT      0.103256
     21 HO6        -2.8440   -0.0000    2.3560 ho        1 CHT      0.442000
@<TRIPOS>BOND
     1    1    2 1   
     2    1    6 1   
     3    1    8 1   
     4    1    9 1   
     5    2    7 1   
     6    2   10 1   
     7    2   11 1   
     8    3    7 1   
     9    3   12 1   
    10    3   13 1   
    11    3   14 1   
    12    4    7 1   
    13    4   15 1   
    14    4   16 1   
    15    4   17 1   
    16    5    7 1   
    17    5   18 1   
    18    5   19 1   
    19    5   20 1   
    20    6   21 1   
@<TRIPOS>SUBSTRUCTURE
     1 CHT         1 TEMP              0 ****  ****    0 ROOT
