@<TRIPOS>MOLECULE
CHT
   21    20     1     0     0
SMALL
bcc


@<TRIPOS>ATOM
      1 C4          1.5820   -0.9560    0.0650 c3        1 CHT      0.117400
      2 C5          0.2780   -0.6310    0.8000 c3        1 CHT      0.106800
      3 C6         -0.8130   -0.4030   -1.4040 c3        1 CHT      0.087100
      4 C7         -0.4850    1.5670   -0.0090 c3        1 CHT      0.087100
      5 C8         -2.1020   -0.1280    0.6430 c3        1 CHT      0.087100
      6 O6          2.0820    0.2320   -0.5170 oh        1 CHT     -0.625800
      7 N1         -0.7710    0.0990    0.0000 n4        1 CHT     -0.593800
      8 HC41        2.2970   -1.3750    0.8250 h1        1 CHT      0.069700
      9 HC42        1.4110   -1.7200   -0.7420 h1        1 CHT      0.069700
     10 HC51        0.5100    0.0060    1.7020 hx        1 CHT      0.105200
     11 HC52       -0.1670   -1.6090    1.1430 hx        1 CHT      0.105200
     12 H61         0.1460   -0.1270   -1.9230 hx        1 CHT      0.104033
     13 H62        -0.9380   -1.5170   -1.3970 hx        1 CHT      0.104033
     14 H63        -1.6780    0.0710   -1.9400 hx        1 CHT      0.104033
     15 H71        -1.2550    2.0860   -0.6400 hx        1 CHT      0.104033
     16 H72        -0.5290    1.9610    1.0400 hx        1 CHT      0.104033
     17 H73         0.5390    1.7480   -0.4370 hx        1 CHT      0.104033
     18 H81        -2.3730   -1.2140    0.5730 hx        1 CHT      0.104033
     19 H82        -2.0510    0.1810    1.7210 hx        1 CHT      0.104033
     20 H83        -2.8780    0.4860    0.1130 hx        1 CHT      0.104033
     21 HO6         3.0360    0.1260   -0.6330 ho        1 CHT      0.448000
@<TRIPOS>BOND
     1    1    2 1   
     2    1    6 1   
     3    1    8 1   
     4    1    9 1   
     5    2    7 1   
     6    2   10 1   
     7    2   11 1   
     8    3    7 1   
     9    3   12 1   
    10    3   13 1   
    11    3   14 1   
    12    4    7 1   
    13    4   15 1   
    14    4   16 1   
    15    4   17 1   
    16    5    7 1   
    17    5   18 1   
    18    5   19 1   
    19    5   20 1   
    20    6   21 1   
@<TRIPOS>SUBSTRUCTURE
     1 CHT         1 TEMP              0 ****  ****    0 ROOT
