@<TRIPOS>MOLECULE
CHT
   21    20     1     0     0
SMALL
bcc


@<TRIPOS>ATOM
      1 C4         -0.0470    0.0790   -0.1440 c3        1 CHT      0.117400
      2 C5          1.4640    0.0420    0.1080 c3        1 CHT      0.106800
      3 C6          1.3550   -2.4170   -0.0860 c3        1 CHT      0.087100
      4 C7          1.8390   -1.3970    2.0720 c3        1 CHT      0.087100
      5 C8          3.4880   -1.3040    0.2880 c3        1 CHT      0.087100
      6 O6         -0.7100   -0.3930    1.0120 oh        1 CHT     -0.625800
      7 N1          2.0250   -1.2700    0.5930 n4        1 CHT     -0.593800
      8 HC41       -0.3200    1.1460   -0.3700 h1        1 CHT      0.069700
      9 HC42       -0.3250   -0.5670   -1.0210 h1        1 CHT      0.069700
     10 HC51        1.7300    0.8210    0.8790 hx        1 CHT      0.105200
     11 HC52        1.9740    0.2980   -0.8660 hx        1 CHT      0.105200
     12 H61         0.2790   -2.4610    0.2380 hx        1 CHT      0.104033
     13 H62         1.4160   -2.2780   -1.1970 hx        1 CHT      0.104033
     14 H63         1.8720   -3.3710    0.2040 hx        1 CHT      0.104033
     15 H71         0.7450   -1.3140    2.3220 hx        1 CHT      0.104033
     16 H72         2.2290   -2.3950    2.4060 hx        1 CHT      0.104033
     17 H73         2.4060   -0.5780    2.5890 hx        1 CHT      0.104033
     18 H81         3.9830   -0.4020    0.7370 hx        1 CHT      0.104033
     19 H82         3.9370   -2.2350    0.7270 hx        1 CHT      0.104033
     20 H83         3.6400   -1.3050   -0.8240 hx        1 CHT      0.104033
     21 HO6        -1.6040   -0.0240    1.0110 ho        1 CHT      0.448000
@<TRIPOS>BOND
     1    1    2 1   
     2    1    6 1   
     3    1    8 1   
     4    1    9 1   
     5    2    7 1   
     6    2   10 1   
     7    2   11 1   
     8    3    7 1   
     9    3   12 1   
    10    3   13 1   
    11    3   14 1   
    12    4    7 1   
    13    4   15 1   
    14    4   16 1   
    15    4   17 1   
    16    5    7 1   
    17    5   18 1   
    18    5   19 1   
    19    5   20 1   
    20    6   21 1   
@<TRIPOS>SUBSTRUCTURE
     1 CHT         1 TEMP              0 ****  ****    0 ROOT
