@<TRIPOS>MOLECULE
CHU
   51    52     1     0     0
SMALL
bcc


@<TRIPOS>ATOM
      1 C4         -0.0800   -1.1410   -0.2450 ca        1 CHU     -0.148000
      2 C5          1.3040   -1.2700   -0.0300 ca        1 CHU      0.113000
      3 C6          2.0120   -0.3900    0.8150 ca        1 CHU     -0.141000
      4 C7          3.4380   -0.5920    0.9860 c2        1 CHU      0.067000
      5 C8          4.0290   -1.6230    0.3340 c2        1 CHU     -0.266000
      6 C13         7.7500   -0.2370    1.1920 c1        1 CHU      0.003000
      7 C20        -3.5760   -2.9370    1.3890 c2        1 CHU     -0.079000
      8 C22         7.5910   -1.6620   -0.8410 c2        1 CHU     -0.017000
      9 C26         7.4260   -2.6530    1.3600 c2        1 CHU     -0.177000
     10 C1         -0.7400   -0.1080    0.4140 ca        1 CHU      0.116000
     11 C2         -0.0660    0.7840    1.2710 ca        1 CHU     -0.150000
     12 C3          1.2990    0.6380    1.4580 ca        1 CHU     -0.062000
     13 C9          3.2760   -2.5000   -0.5390 c2        1 CHU      0.366000
     14 O10         1.9090   -2.3090   -0.7090 os        1 CHU     -0.180000
     15 O11         3.6750   -3.4560   -1.2130 o         1 CHU     -0.370000
     16 C12         4.2140    0.3190    1.8560 c3        1 CHU     -0.215000
     17 C14         7.6300   -1.5070    0.5650 c2        1 CHU     -0.127000
     18 O15        -2.0790    0.1840    0.1580 os        1 CHU     -0.166000
     19 C16        -3.0310   -0.8220    0.4080 c2        1 CHU      0.288000
     20 N17        -4.2330   -0.3990   -0.1430 n2        1 CHU     -0.345000
     21 C18        -5.2450   -0.0150   -0.6290 c1        1 CHU      0.220000
     22 C19        -4.8850   -2.9100    1.6840 c2        1 CHU     -0.238000
     23 N21        -2.7090   -1.9010    1.0560 n2        1 CHU     -0.214000
     24 C23         7.2570   -2.9500   -1.4070 c2        1 CHU      0.152000
     25 N24         7.0660   -4.0380   -0.5990 n2        1 CHU     -0.210000
     26 C25         7.1830   -3.8770    0.7280 c2        1 CHU     -0.029000
     27 N27         7.1050   -3.1150   -2.7740 nh        1 CHU     -0.737000
     28 S28         6.8220   -4.5820   -3.5380 s6        1 CHU      2.185000
     29 N29         5.2370   -5.2580   -2.8110 n4        1 CHU     -0.179000
     30 C30         5.0190   -6.3920   -3.5360 c2        1 CHU     -0.520000
     31 O31         6.5750   -4.2720   -4.9260 o         1 CHU     -0.877500
     32 O32         7.8790   -5.5220   -3.3170 o         1 CHU     -0.877500
     33 H1         -0.6070   -1.8470   -0.9030 ha        1 CHU      0.176000
     34 H2          5.1060   -1.8430    0.4300 ha        1 CHU      0.173000
     35 H3          8.5420    0.4450    0.8570 ha        1 CHU      0.085000
     36 H4         -3.0010   -3.8860    1.4640 h4        1 CHU      0.157000
     37 H5          7.4630   -2.5780    2.4550 ha        1 CHU      0.163000
     38 H6          1.8360    1.3310    2.1250 ha        1 CHU      0.149000
     39 H7         -0.6280    1.5860    1.7710 ha        1 CHU      0.161000
     40 H8          4.0770    1.3790    1.5240 hc        1 CHU      0.110667
     41 H9          3.8600    0.2320    2.9140 hc        1 CHU      0.110667
     42 H10         5.3110    0.0800    1.8270 hc        1 CHU      0.110667
     43 H11        -5.5100   -2.0090    1.6590 ha        1 CHU      0.126500
     44 H12        -5.4040   -3.8250    1.9960 ha        1 CHU      0.126500
     45 H13         7.0460   -4.8020    1.3200 h4        1 CHU      0.172000
     46 H14         7.2510   -2.2820   -3.3010 hn        1 CHU      0.246000
     47 H15         4.5160   -4.5470   -2.9300 hn        1 CHU      0.254000
     48 H16         5.3890   -5.4290   -1.8180 hn        1 CHU      0.254000
     49 H17         4.4820   -6.3270   -4.4860 hx        1 CHU      0.166000
     50 H18         5.4810   -7.3310   -3.2180 hx        1 CHU      0.166000
     51 F33         7.8030   -0.6000   -1.6520 f         1 CHU     -0.094000
@<TRIPOS>BOND
     1    1    2 1   
     2    1   10 1   
     3    1   33 1   
     4    2    3 1   
     5    2   14 1   
     6    3    4 1   
     7    3   12 1   
     8    4    5 1   
     9    4   16 1   
    10    5   13 1   
    11    5   34 1   
    12    6   17 1   
    13    6   35 1   
    14    7   22 1   
    15    7   23 1   
    16    7   36 1   
    17    8   17 1   
    18    8   24 1   
    19    8   51 1   
    20    9   17 1   
    21    9   26 1   
    22    9   37 1   
    23   10   11 1   
    24   10   18 1   
    25   11   12 1   
    26   11   39 1   
    27   12   38 1   
    28   13   14 1   
    29   13   15 1   
    30   16   40 1   
    31   16   41 1   
    32   16   42 1   
    33   18   19 1   
    34   19   20 1   
    35   19   23 1   
    36   20   21 1   
    37   22   43 1   
    38   22   44 1   
    39   24   25 1   
    40   24   27 1   
    41   25   26 1   
    42   26   45 1   
    43   27   28 1   
    44   27   46 1   
    45   28   29 1   
    46   28   31 1   
    47   28   32 1   
    48   29   30 1   
    49   29   47 1   
    50   29   48 1   
    51   30   49 1   
    52   30   50 1   
@<TRIPOS>SUBSTRUCTURE
     1 CHU         1 TEMP              0 ****  ****    0 ROOT
