@<TRIPOS>MOLECULE
CHU
   52    54     1     0     0
SMALL
bcc


@<TRIPOS>ATOM
      1 C4         -0.3620   -0.9870    0.8270 ca        1 CHU     -0.204000
      2 C5          1.0250   -0.8240    0.6590 ca        1 CHU      0.140000
      3 C6          1.8180   -0.1090    1.5780 ca        1 CHU     -0.183000
      4 C7          3.2380    0.0250    1.3290 c2        1 CHU      0.090000
      5 C8          3.7600   -0.5130    0.1900 c2        1 CHU     -0.234000
      6 C13         5.1660   -0.3470   -0.2730 c3        1 CHU     -0.080000
      7 C20        -4.2740   -3.1200    0.7970 c2        1 CHU     -0.395000
      8 C22         6.3610   -2.0710   -1.6830 c2        1 CHU      0.095000
      9 C26         6.0750   -2.4960    0.6740 c2        1 CHU     -0.139000
     10 C1         -0.9510   -0.4090    1.9480 ca        1 CHU      0.157000
     11 C2         -0.1860    0.3240    2.8880 ca        1 CHU     -0.168000
     12 C3          1.1730    0.4660    2.6950 ca        1 CHU     -0.046000
     13 C9          2.9060   -1.2690   -0.7240 c2        1 CHU      0.347000
     14 O10         1.5520   -1.4200   -0.4670 os        1 CHU     -0.171000
     15 O11         3.2220   -1.8620   -1.7600 o         1 CHU     -0.330000
     16 C12         4.0440    0.7570    2.3350 c3        1 CHU     -0.209000
     17 C14         5.8770   -1.6510   -0.4170 c2        1 CHU     -0.008000
     18 O15        -2.2940   -0.4940    2.2590 os        1 CHU     -0.128000
     19 C16        -3.1150   -1.1490    1.3120 c2        1 CHU      0.113000
     20 N17        -3.5090   -0.2870    0.2500 n2        1 CHU     -0.183000
     21 C18        -4.7250   -0.1770   -0.1300 c2        1 CHU     -0.054000
     22 C19        -5.3520   -2.7510    0.1080 c1        1 CHU      0.184000
     23 N21        -3.3330   -2.4170    1.5510 n2        1 CHU     -0.096000
     24 C23         6.9650   -3.3600   -1.7820 c2        1 CHU      0.028000
     25 N24         7.1180   -4.1890   -0.7070 n2        1 CHU     -0.229000
     26 C25         6.6990   -3.7450    0.4840 c2        1 CHU     -0.025000
     27 N27         7.4300   -3.8510   -3.0340 nu        1 CHU     -0.830000
     28 S28         8.5350   -4.9600   -3.1900 s6        1 CHU      2.763000
     29 N29         7.6200   -6.5320   -2.5740 ny        1 CHU     -0.465000
     30 C30         6.5310   -6.9520   -3.4620 c3        1 CHU     -0.202000
     31 O31         8.7430   -5.2850   -4.5240 o         1 CHU     -0.833000
     32 O32         9.5950   -4.9370   -2.3060 o         1 CHU     -0.833000
     33 H1         -0.9400   -1.5480    0.0790 ha        1 CHU      0.180000
     34 H2          5.1390    0.1790   -1.2710 hc        1 CHU      0.127000
     35 H3          5.7560    0.3080    0.4240 hc        1 CHU      0.127000
     36 H4         -4.0880   -4.2240    0.8580 h4        1 CHU      0.212000
     37 H5          5.7320   -2.1990    1.6780 ha        1 CHU      0.177000
     38 H6          1.7590    1.0480    3.4240 ha        1 CHU      0.148000
     39 H7         -0.6920    0.7710    3.7580 ha        1 CHU      0.169000
     40 H8          3.8260    1.8540    2.2650 hc        1 CHU      0.105333
     41 H9          5.1420    0.6060    2.2030 hc        1 CHU      0.105333
     42 H10         3.7820    0.4100    3.3680 hc        1 CHU      0.105333
     43 H11        -5.6320   -0.6250    0.3340 h4        1 CHU      0.147500
     44 H12        -4.9180    0.4760   -1.0050 h4        1 CHU      0.147500
     45 H13         6.8640   -4.4330    1.3350 h4        1 CHU      0.187000
     46 H14         6.9640   -3.4120   -3.8100 hn        1 CHU      0.311000
     47 H15         7.2590   -6.4100   -1.6270 hn        1 CHU      0.254000
     48 H16         8.3100   -7.2820   -2.5210 hn        1 CHU      0.254000
     49 H17         6.1340   -7.9610   -3.1650 hx        1 CHU      0.144667
     50 H18         6.9160   -7.0140   -4.5190 hx        1 CHU      0.144667
     51 H292        5.6890   -6.2100   -3.4050 hx        1 CHU      0.144667
     52 F33         6.2390   -1.2950   -2.7790 f         1 CHU     -0.066000
@<TRIPOS>BOND
     1    1    2 1   
     2    1   10 1   
     3    1   33 1   
     4    2    3 1   
     5    2   14 1   
     6    3    4 1   
     7    3   12 1   
     8    4    5 1   
     9    4   16 1   
    10    5    6 1   
    11    5   13 1   
    12    6   17 1   
    13    6   34 1   
    14    6   35 1   
    15    7   22 1   
    16    7   23 1   
    17    7   36 1   
    18    8   17 1   
    19    8   24 1   
    20    8   52 1   
    21    9   17 1   
    22    9   26 1   
    23    9   37 1   
    24   10   11 1   
    25   10   18 1   
    26   11   12 1   
    27   11   39 1   
    28   12   38 1   
    29   13   14 1   
    30   13   15 1   
    31   16   40 1   
    32   16   41 1   
    33   16   42 1   
    34   18   19 1   
    35   19   20 1   
    36   19   23 1   
    37   20   21 1   
    38   21   43 1   
    39   21   44 1   
    40   24   25 1   
    41   24   27 1   
    42   25   26 1   
    43   26   45 1   
    44   27   28 1   
    45   27   46 1   
    46   28   29 1   
    47   28   31 1   
    48   28   32 1   
    49   29   30 1   
    50   29   47 1   
    51   29   48 1   
    52   30   49 1   
    53   30   50 1   
    54   30   51 1   
@<TRIPOS>SUBSTRUCTURE
     1 CHU         1 TEMP              0 ****  ****    0 ROOT
