@<TRIPOS>MOLECULE
CHU
   52    54     1     0     0
SMALL
bcc


@<TRIPOS>ATOM
      1 C4         -0.2350   -0.6670    0.5610 ca        1 CHU     -0.189000
      2 C5          1.1690   -0.6390    0.6170 ca        1 CHU      0.131000
      3 C6          1.8730    0.2510    1.4510 ca        1 CHU     -0.172000
      4 C7          3.3190    0.2210    1.4440 c2        1 CHU      0.087000
      5 C8          3.9640   -0.7000    0.6660 c2        1 CHU     -0.228000
      6 C13         5.4530   -0.7920    0.6420 c3        1 CHU     -0.078000
      7 C20        -3.6960   -2.9780    1.5430 c2        1 CHU     -0.386000
      8 C22         6.4480   -2.2010   -1.2080 c2        1 CHU      0.098000
      9 C26         6.0740   -3.2070    0.9550 c2        1 CHU     -0.136000
     10 C1         -0.9310    0.2190    1.3790 ca        1 CHU      0.149000
     11 C2         -0.2580    1.1200    2.2380 ca        1 CHU     -0.159000
     12 C3          1.1230    1.1290    2.2630 ca        1 CHU     -0.049000
     13 C9          3.1960   -1.5840   -0.2030 c2        1 CHU      0.358000
     14 O10         1.8090   -1.5390   -0.2090 os        1 CHU     -0.171000
     15 O11         3.5940   -2.4350   -1.0070 o         1 CHU     -0.349000
     16 C12         4.0360    1.2060    2.2880 c3        1 CHU     -0.211000
     17 C14         5.9900   -2.0840    0.1310 c2        1 CHU      0.001000
     18 O15        -2.3090    0.3580    1.3590 os        1 CHU     -0.131000
     19 C16        -3.0600   -0.7840    1.0180 c2        1 CHU      0.126000
     20 N17        -3.8940   -0.5130   -0.1020 n2        1 CHU     -0.164000
     21 C18        -5.1490   -0.7610   -0.0940 c2        1 CHU     -0.057000
     22 C19        -4.9540   -3.1070    1.1230 c1        1 CHU      0.176000
     23 N21        -2.8640   -1.8730    1.7230 n2        1 CHU     -0.136000
     24 C23         6.8900   -3.4790   -1.6600 c2        1 CHU      0.035000
     25 N24         6.9230   -4.5790   -0.8510 n2        1 CHU     -0.235000
     26 C25         6.5450   -4.4240    0.4240 c2        1 CHU     -0.019000
     27 N27         7.3010   -3.6740   -3.0090 nh        1 CHU     -0.831000
     28 S28         8.1540   -4.9060   -3.4970 s6        1 CHU      2.762000
     29 N29         6.9360   -6.3570   -3.1780 n4        1 CHU     -0.463000
     30 C30         6.9660   -7.3450   -4.2640 c3        1 CHU     -0.198000
     31 O31         8.2630   -4.9210   -4.8800 o         1 CHU     -0.833000
     32 O32         9.2160   -5.3000   -2.7080 o         1 CHU     -0.833000
     33 H1         -0.7480   -1.3700   -0.1110 ha        1 CHU      0.179000
     34 H2          5.8530    0.0540    0.0120 hc        1 CHU      0.119500
     35 H3          5.8480   -0.6480    1.6890 hc        1 CHU      0.119500
     36 H4         -3.1970   -3.9190    1.8910 h4        1 CHU      0.208000
     37 H5          5.7560   -3.1540    2.0080 ha        1 CHU      0.176000
     38 H6          1.6440    1.8270    2.9360 ha        1 CHU      0.149000
     39 H7         -0.8480    1.8020    2.8690 ha        1 CHU      0.169000
     40 H8          3.6100    2.2290    2.1300 hc        1 CHU      0.107333
     41 H9          3.9160    0.9360    3.3690 hc        1 CHU      0.107333
     42 H10         5.1270    1.2570    2.0540 hc        1 CHU      0.107333
     43 H11        -5.7750   -1.1030    0.7600 h4        1 CHU      0.148500
     44 H12        -5.6990   -0.5790   -1.0400 h4        1 CHU      0.148500
     45 H13         6.6110   -5.3310    1.0560 h4        1 CHU      0.186000
     46 H14         6.9560   -2.9540   -3.6200 hn        1 CHU      0.311000
     47 H15         5.9770   -6.0380   -3.0470 hn        1 CHU      0.253500
     48 H16         7.2130   -6.8140   -2.3050 hn        1 CHU      0.253500
     49 H17         6.7200   -6.8390   -5.2390 hx        1 CHU      0.145000
     50 H18         6.2240   -8.1670   -4.0810 hx        1 CHU      0.145000
     51 H292        7.9950   -7.7930   -4.3320 hx        1 CHU      0.145000
     52 F33         6.4410   -1.1470   -2.0490 f         1 CHU     -0.073000
@<TRIPOS>BOND
     1    1    2 1   
     2    1   10 1   
     3    1   33 1   
     4    2    3 1   
     5    2   14 1   
     6    3    4 1   
     7    3   12 1   
     8    4    5 1   
     9    4   16 1   
    10    5    6 1   
    11    5   13 1   
    12    6   17 1   
    13    6   34 1   
    14    6   35 1   
    15    7   22 1   
    16    7   23 1   
    17    7   36 1   
    18    8   17 1   
    19    8   24 1   
    20    8   52 1   
    21    9   17 1   
    22    9   26 1   
    23    9   37 1   
    24   10   11 1   
    25   10   18 1   
    26   11   12 1   
    27   11   39 1   
    28   12   38 1   
    29   13   14 1   
    30   13   15 1   
    31   16   40 1   
    32   16   41 1   
    33   16   42 1   
    34   18   19 1   
    35   19   20 1   
    36   19   23 1   
    37   20   21 1   
    38   21   43 1   
    39   21   44 1   
    40   24   25 1   
    41   24   27 1   
    42   25   26 1   
    43   26   45 1   
    44   27   28 1   
    45   27   46 1   
    46   28   29 1   
    47   28   31 1   
    48   28   32 1   
    49   29   30 1   
    50   29   47 1   
    51   29   48 1   
    52   30   49 1   
    53   30   50 1   
    54   30   51 1   
@<TRIPOS>SUBSTRUCTURE
     1 CHU         1 TEMP              0 ****  ****    0 ROOT
