@<TRIPOS>MOLECULE
CHV
   30    32     1     0     0
SMALL
bcc


@<TRIPOS>ATOM
      1 C1         -0.6240   -0.5680    0.2380 c         1 CHV      0.721800
      2 O11        -1.5630   -0.9310   -0.4660 o         1 CHV     -0.560500
      3 C2          0.7310   -0.1570   -0.1280 cc        1 CHV     -0.047100
      4 O13         0.9890    0.0090   -1.4860 os        1 CHV     -0.219200
      5 C14         1.3920   -1.1570   -2.1390 ca        1 CHV      0.047100
      6 C15         2.7650   -1.4520   -2.2700 ca        1 CHV      0.130100
      7 O20         3.6550   -0.6560   -1.5900 oh        1 CHV     -0.491100
      8 C16         3.1730   -2.5350   -3.0610 ca        1 CHV     -0.209000
      9 C17         2.2040   -3.3150   -3.6970 ca        1 CHV      0.055400
     10 Cl1         2.6980   -4.6270   -4.6570 cl        1 CHV     -0.084400
     11 C18         0.8410   -3.0360   -3.5530 ca        1 CHV     -0.151000
     12 C19         0.4350   -1.9580   -2.7690 ca        1 CHV     -0.081000
     13 C3          1.6580    0.1680    0.8070 cd        1 CHV     -0.001200
     14 C4          1.2820    0.1400    2.1950 ca        1 CHV     -0.184800
     15 C5         -0.0350   -0.2330    2.5330 ca        1 CHV      0.190100
     16 O6         -0.9770   -0.5830    1.5890 os        1 CHV     -0.322200
     17 C7         -0.4680   -0.2720    3.8680 ca        1 CHV     -0.244000
     18 C8          0.4500    0.0680    4.8640 ca        1 CHV      0.177100
     19 O12         0.1250    0.0590    6.1970 oh        1 CHV     -0.487100
     20 C9          1.7760    0.4430    4.5510 ca        1 CHV     -0.182000
     21 C10         2.1770    0.4750    3.2280 ca        1 CHV     -0.038000
     22 H1          4.5500   -0.9140   -1.8590 ho        1 CHV      0.424000
     23 H2          4.2430   -2.7630   -3.1760 ha        1 CHV      0.151000
     24 H3          0.0880   -3.6630   -4.0540 ha        1 CHV      0.157000
     25 H4         -0.6340   -1.7220   -2.6320 ha        1 CHV      0.178000
     26 H5          2.6830    0.4540    0.5170 ha        1 CHV      0.173000
     27 H6         -1.5000   -0.5650    4.1020 ha        1 CHV      0.163000
     28 H7         -0.8030   -0.2080    6.2830 ho        1 CHV      0.429000
     29 H8          2.4660    0.7030    5.3670 ha        1 CHV      0.160000
     30 H9          3.2070    0.7670    2.9700 ha        1 CHV      0.146000
@<TRIPOS>BOND
     1    1    2 2   
     2    1    3 1   
     3    1   16 1   
     4    3    4 1   
     5    3   13 2   
     6    4    5 1   
     7    5    6 ar  
     8    5   12 ar  
     9    6    7 1   
    10    6    8 ar  
    11    7   22 1   
    12    8    9 ar  
    13    8   23 1   
    14    9   10 1   
    15    9   11 ar  
    16   11   12 ar  
    17   11   24 1   
    18   12   25 1   
    19   13   14 1   
    20   13   26 1   
    21   14   15 ar  
    22   14   21 ar  
    23   15   16 1   
    24   15   17 ar  
    25   17   18 ar  
    26   17   27 1   
    27   18   19 1   
    28   18   20 ar  
    29   19   28 1   
    30   20   21 ar  
    31   20   29 1   
    32   21   30 1   
@<TRIPOS>SUBSTRUCTURE
     1 CHV         1 TEMP              0 ****  ****    0 ROOT
