@<TRIPOS>MOLECULE
CHV
   30    32     1     0     0
SMALL
bcc


@<TRIPOS>ATOM
      1 C1         -0.8990   -1.1390    1.2090 c         1 CHV      0.722800
      2 O11        -0.2840   -1.5350    2.1980 o         1 CHV     -0.566500
      3 C2         -0.4760   -1.0850   -0.1910 cc        1 CHV     -0.051100
      4 O13         0.7570   -1.6660   -0.4710 os        1 CHV     -0.236200
      5 C14         1.8330   -0.7710   -0.4750 ca        1 CHV     -0.017900
      6 C15         2.7750   -0.8700    0.5680 ca        1 CHV      0.162100
      7 O20         2.6370   -1.7150    1.6320 oh        1 CHV     -0.484100
      8 C16         3.9450   -0.0890    0.5210 ca        1 CHV     -0.155000
      9 C17         4.1370    0.7740   -0.5560 ca        1 CHV      0.052400
     10 CL1         5.5460    1.7230   -0.6190 cl        1 CHV     -0.084400
     11 C18         3.1940    0.8790   -1.5880 ca        1 CHV     -0.158000
     12 C19         2.0400    0.1030   -1.5450 ca        1 CHV     -0.092000
     13 C3         -1.2990   -0.6240   -1.1640 cd        1 CHV     -0.004200
     14 C4         -2.6160   -0.1730   -0.8030 ca        1 CHV     -0.185800
     15 C5         -3.0060   -0.2280    0.5510 ca        1 CHV      0.190100
     16 O6         -2.1760   -0.6990    1.5470 os        1 CHV     -0.313200
     17 C7         -4.2770    0.1980    0.9690 ca        1 CHV     -0.243000
     18 C8         -5.1570    0.6820   -0.0010 ca        1 CHV      0.181100
     19 O12        -6.4180    1.1210    0.3040 oh        1 CHV     -0.484100
     20 C9         -4.7900    0.7460   -1.3650 ca        1 CHV     -0.179000
     21 C10        -3.5330    0.3210   -1.7500 ca        1 CHV     -0.038000
     22 H1          1.7310   -2.0760    1.6230 ho        1 CHV      0.457000
     23 H2          4.6810   -0.1750    1.3340 ha        1 CHV      0.171000
     24 H3          3.3650    1.5670   -2.4290 ha        1 CHV      0.152000
     25 H4          1.2910    0.1670   -2.3480 ha        1 CHV      0.141000
     26 H5         -0.9880   -0.5910   -2.2200 ha        1 CHV      0.160000
     27 H6         -4.5510    0.1430    2.0320 ha        1 CHV      0.166000
     28 H7         -6.5530    1.0280    1.2600 ho        1 CHV      0.431000
     29 H8         -5.5160    1.1340   -2.0950 ha        1 CHV      0.162000
     30 H9         -3.2370    0.3650   -2.8100 ha        1 CHV      0.146000
@<TRIPOS>BOND
     1    1    2 2   
     2    1    3 1   
     3    1   16 1   
     4    3    4 1   
     5    3   13 2   
     6    4    5 1   
     7    5    6 ar  
     8    5   12 ar  
     9    6    7 1   
    10    6    8 ar  
    11    7   22 1   
    12    8    9 ar  
    13    8   23 1   
    14    9   10 1   
    15    9   11 ar  
    16   11   12 ar  
    17   11   24 1   
    18   12   25 1   
    19   13   14 1   
    20   13   26 1   
    21   14   15 ar  
    22   14   21 ar  
    23   15   16 1   
    24   15   17 ar  
    25   17   18 ar  
    26   17   27 1   
    27   18   19 1   
    28   18   20 ar  
    29   19   28 1   
    30   20   21 ar  
    31   20   29 1   
    32   21   30 1   
@<TRIPOS>SUBSTRUCTURE
     1 CHV         1 TEMP              0 ****  ****    0 ROOT
