@<TRIPOS>MOLECULE
CHV
   30    32     1     0     0
SMALL
bcc


@<TRIPOS>ATOM
      1 C1         -0.6300   -0.5980    0.2430 c         1 CHV      0.721800
      2 O11        -1.5660   -0.9800   -0.4550 o         1 CHV     -0.560500
      3 C2          0.7170   -0.1690   -0.1310 cc        1 CHV     -0.047100
      4 O13         0.9670   -0.0070   -1.4910 os        1 CHV     -0.219200
      5 C14         1.3860   -1.1710   -2.1380 ca        1 CHV      0.047100
      6 C15         2.7630   -1.4450   -2.2720 ca        1 CHV      0.130100
      7 O20         3.6430   -0.6310   -1.6010 oh        1 CHV     -0.491100
      8 C16         3.1850   -2.5270   -3.0580 ca        1 CHV     -0.209000
      9 C17         2.2260   -3.3250   -3.6850 ca        1 CHV      0.055400
     10 CL1         2.7370   -4.6360   -4.6380 cl        1 CHV     -0.084400
     11 C18         0.8600   -3.0670   -3.5380 ca        1 CHV     -0.151000
     12 C19         0.4400   -1.9900   -2.7600 ca        1 CHV     -0.081000
     13 C3          1.6420    0.1770    0.7980 cd        1 CHV     -0.001200
     14 C4          1.2720    0.1520    2.1870 ca        1 CHV     -0.184800
     15 C5         -0.0380   -0.2390    2.5330 ca        1 CHV      0.190100
     16 O6         -0.9770   -0.6100    1.5960 os        1 CHV     -0.322200
     17 C7         -0.4650   -0.2770    3.8700 ca        1 CHV     -0.244000
     18 C8          0.4510    0.0840    4.8610 ca        1 CHV      0.177100
     19 O12         0.1320    0.0790    6.1940 oh        1 CHV     -0.487100
     20 C9          1.7700    0.4780    4.5400 ca        1 CHV     -0.182000
     21 C10         2.1650    0.5080    3.2160 ca        1 CHV     -0.038000
     22 H1          4.5410   -0.8770   -1.8710 ho        1 CHV      0.424000
     23 H2          4.2580   -2.7380   -3.1750 ha        1 CHV      0.151000
     24 H3          0.1150   -3.7090   -4.0330 ha        1 CHV      0.157000
     25 H4         -0.6330   -1.7700   -2.6200 ha        1 CHV      0.178000
     26 H5          2.6610    0.4780    0.5030 ha        1 CHV      0.173000
     27 H6         -1.4920   -0.5840    4.1100 ha        1 CHV      0.163000
     28 H7         -0.7920   -0.2030    6.2860 ho        1 CHV      0.429000
     29 H8          2.4580    0.7540    5.3520 ha        1 CHV      0.160000
     30 H9          3.1890    0.8150    2.9510 ha        1 CHV      0.146000
@<TRIPOS>BOND
     1    1    2 2   
     2    1    3 1   
     3    1   16 1   
     4    3    4 1   
     5    3   13 2   
     6    4    5 1   
     7    5    6 ar  
     8    5   12 ar  
     9    6    7 1   
    10    6    8 ar  
    11    7   22 1   
    12    8    9 ar  
    13    8   23 1   
    14    9   10 1   
    15    9   11 ar  
    16   11   12 ar  
    17   11   24 1   
    18   12   25 1   
    19   13   14 1   
    20   13   26 1   
    21   14   15 ar  
    22   14   21 ar  
    23   15   16 1   
    24   15   17 ar  
    25   17   18 ar  
    26   17   27 1   
    27   18   19 1   
    28   18   20 ar  
    29   19   28 1   
    30   20   21 ar  
    31   20   29 1   
    32   21   30 1   
@<TRIPOS>SUBSTRUCTURE
     1 CHV         1 TEMP              0 ****  ****    0 ROOT
