@<TRIPOS>MOLECULE
CHV
   30    22     1     0     0
SMALL
bcc


@<TRIPOS>ATOM
      1 C1         -1.2380   -0.8640   -0.4590 c1        1 CHV      0.338000
      2 O11        -1.8720   -0.9800   -1.4880 o         1 CHV     -0.291000
      3 C2          0.2370   -0.8730   -0.4970 c1        1 CHV      0.059000
      4 O13         0.9070   -1.0080   -1.7240 o         1 CHV     -0.147000
      5 C14         0.8010    0.1910   -2.4490 c1        1 CHV     -0.063000
      6 C15         0.1390    0.2070   -3.6670 c1        1 CHV      0.059000
      7 O20        -0.3810   -0.9860   -4.2010 o         1 CHV     -0.238000
      8 C16         0.0220    1.3930   -4.3760 c1        1 CHV     -0.116667
      9 C17         0.5670    2.5610   -3.8670 c1        1 CHV     -0.026000
     10 CL1         0.4690    4.0410   -4.7850 cl        1 CHV     -0.006000
     11 C18         1.2290    2.5450   -2.6500 c1        1 CHV     -0.158000
     12 C19         1.3460    1.3590   -1.9410 c1        1 CHV     -0.092000
     13 C3          0.9850   -0.8720    0.7400 c1        1 CHV     -0.116667
     14 C4          0.2540   -0.8770    2.0550 c1        1 CHV     -0.174000
     15 C5         -1.1510   -0.9070    2.0770 c2        1 CHV      0.145000
     16 O6         -1.9210   -0.7980    0.8010 os        1 CHV     -0.178000
     17 C7         -1.8290   -0.9700    3.2980 c1        1 CHV     -0.243000
     18 C8         -1.1120   -1.0030    4.4940 c1        1 CHV      0.059000
     19 O12        -1.7950   -1.0760    5.7210 o         1 CHV     -0.238000
     20 C9          0.2930   -0.9730    4.4720 c1        1 CHV     -0.116667
     21 C10         0.9710   -0.9100    3.2550 c1        1 CHV     -0.038000
     22 H1          0.1990   -1.3270   -4.7830 ho        1 CHV      0.243000
     23 H2         -0.4440    1.4040   -5.2340 ha        1 CHV      0.164333
     24 H3          1.6130    3.3680   -2.2910 ha        1 CHV      0.152000
     25 H4          1.8120    1.3470   -1.0830 ha        1 CHV      0.141000
     26 H5          1.9610   -0.8780    0.7220 ha        1 CHV      0.164333
     27 H6         -2.8050   -0.9740    3.3140 ha        1 CHV      0.166000
     28 H7         -1.9990   -0.2550    5.9960 ho        1 CHV      0.243000
     29 H8          0.7940   -0.9960    5.3090 ha        1 CHV      0.164333
     30 H9          1.9480   -0.8890    3.2410 ha        1 CHV      0.146000
@<TRIPOS>BOND
     1    1    2 1   
     2    1   16 1   
     3    3   13 1   
     4    4    5 1   
     5    5   12 1   
     6    6    8 1   
     7    7   22 1   
     8    8   23 1   
     9    9   10 1   
    10    9   11 1   
    11   11   24 1   
    12   12   25 1   
    13   13   26 1   
    14   14   15 1   
    15   14   21 1   
    16   15   16 1   
    17   15   17 1   
    18   17   27 1   
    19   18   20 1   
    20   19   28 1   
    21   20   29 1   
    22   21   30 1   
@<TRIPOS>SUBSTRUCTURE
     1 CHV         1 TEMP              0 ****  ****    0 ROOT
