@<TRIPOS>MOLECULE
CHW
   49    49     1     0     0
SMALL
bcc


@<TRIPOS>ATOM
      1 OAA         3.0790    2.9030    0.1910 oh        1 CHW     -0.502100
      2 CAB         3.2710    1.5640    0.0080 ca        1 CHW      0.255100
      3 CAC         2.2040    0.7530    0.4620 ca        1 CHW     -0.218300
      4 CAD         1.0070    1.3700    1.1010 c3        1 CHW      0.000100
      5 CAE        -0.2370    1.1880    0.3110 c2        1 CHW     -0.198200
      6 CAF        -1.4580    1.4900    0.7830 c2        1 CHW     -0.109400
      7 CAG        -2.6760    1.3260   -0.0600 c3        1 CHW     -0.043200
      8 CAH        -3.5740    0.2170    0.4610 c3        1 CHW     -0.044200
      9 CAI        -4.8170    0.0960   -0.3350 c2        1 CHW     -0.159200
     10 CAJ        -5.7620   -0.8350   -0.1330 c2        1 CHW     -0.153400
     11 CAK        -6.9980   -0.8540   -0.9950 c3        1 CHW      0.175300
     12 OAL        -7.3750   -2.1720   -1.3630 oh        1 CHW     -0.592800
     13 OAM         5.5740    3.0650   -0.9580 o         1 CHW     -0.572100
     14 CAO         4.4250    1.0010   -0.5780 ca        1 CHW     -0.319600
     15 CAP         2.3180   -0.6350    0.3180 ca        1 CHW      0.212100
     16 OAQ         1.3380   -1.4960    0.7350 oh        1 CHW     -0.478100
     17 CAR        -1.6650    2.0170    2.1530 c3        1 CHW     -0.064900
     18 CAS        -5.6730   -1.8880    0.9040 c3        1 CHW     -0.063900
     19 CAT        -8.1480   -0.1380   -0.3030 c3        1 CHW     -0.125100
     20 CAU         4.5210   -0.4070   -0.6970 ca        1 CHW      0.045700
     21 CAV         3.4760   -1.2200   -0.2560 ca        1 CHW     -0.069600
     22 CLAW        3.5670   -2.9140   -0.3980 cl        1 CHW     -0.067400
     23 CAX         5.7430   -1.0080   -1.2920 c3        1 CHW     -0.078800
     24 HOAA        3.8400    3.4140   -0.1310 ho        1 CHW      0.466000
     25 HAD         0.8730    0.9300    2.1310 hc        1 CHW      0.070700
     26 HADA        1.1780    2.4740    1.2500 hc        1 CHW      0.070700
     27 HAE        -0.1070    0.8100   -0.7170 ha        1 CHW      0.133000
     28 HAG        -3.2450    2.2960   -0.0680 hc        1 CHW      0.051200
     29 HAGA       -2.3910    1.1010   -1.1230 hc        1 CHW      0.051200
     30 HAH        -3.0130   -0.7570    0.4370 hc        1 CHW      0.051700
     31 HAK        -6.7850   -0.3610   -1.9890 h1        1 CHW      0.077700
     32 HOAL       -7.6070   -2.6450   -0.5550 ho        1 CHW      0.396000
     33 HAN         6.3550    1.2970   -1.5860 h4        1 CHW      0.011200
     34 HOAQ        0.5620   -0.9810    1.0090 ho        1 CHW      0.441000
     35 HAR        -0.9660    2.8680    2.3550 hc        1 CHW      0.044700
     36 HARA       -2.7130    2.3790    2.2970 hc        1 CHW      0.044700
     37 HARB       -1.4620    1.2170    2.9100 hc        1 CHW      0.044700
     38 HAS        -4.8730   -1.6660    1.6520 hc        1 CHW      0.045033
     39 HASA       -6.6460   -1.9820    1.4490 hc        1 CHW      0.045033
     40 HASB       -5.4420   -2.8720    0.4220 hc        1 CHW      0.045033
     41 HAT        -7.8850    0.9320   -0.1340 hc        1 CHW      0.044033
     42 HATA       -9.0630   -0.1940   -0.9400 hc        1 CHW      0.044033
     43 HATB       -8.3710   -0.6130    0.6830 hc        1 CHW      0.044033
     44 HAX         6.6510   -0.6770   -0.7270 hc        1 CHW      0.061033
     45 HAXA        5.7190   -2.1250   -1.2690 hc        1 CHW      0.061033
     46 HAXB        5.8450   -0.6910   -2.3610 hc        1 CHW      0.061033
     47 HAI        -4.9420    0.8410   -1.1400 ha        1 CHW      0.123000
     48 HAH1       -3.8300    0.4210    1.5370 hc        1 CHW      0.051700
     49 CAN         5.5240    1.8320   -1.0720 c         1 CHW      0.592500
@<TRIPOS>BOND
     1    1    2 1   
     2    1   24 1   
     3    2    3 ar  
     4    2   14 ar  
     5    3    4 1   
     6    3   15 ar  
     7    4    5 1   
     8    4   25 1   
     9    4   26 1   
    10    5    6 2   
    11    5   27 1   
    12    6    7 1   
    13    6   17 1   
    14    7    8 1   
    15    7   28 1   
    16    7   29 1   
    17    8    9 1   
    18    8   30 1   
    19    8   48 1   
    20    9   10 2   
    21    9   47 1   
    22   10   11 1   
    23   10   18 1   
    24   11   12 1   
    25   11   19 1   
    26   11   31 1   
    27   12   32 1   
    28   13   49 2   
    29   14   20 ar  
    30   14   49 1   
    31   15   16 1   
    32   15   21 ar  
    33   16   34 1   
    34   17   35 1   
    35   17   36 1   
    36   17   37 1   
    37   18   38 1   
    38   18   39 1   
    39   18   40 1   
    40   19   41 1   
    41   19   42 1   
    42   19   43 1   
    43   20   21 ar  
    44   20   23 1   
    45   21   22 1   
    46   23   44 1   
    47   23   45 1   
    48   23   46 1   
    49   33   49 1   
@<TRIPOS>SUBSTRUCTURE
     1 CHW         1 TEMP              0 ****  ****    0 ROOT
