@<TRIPOS>MOLECULE
CHW
   49    47     1     0     0
SMALL
bcc


@<TRIPOS>ATOM
      1 OAA         4.2850   -1.9770    2.9920 oh        1 CHW     -0.488100
      2 CAB         3.4540   -1.6450    1.9650 ca        1 CHW      0.258100
      3 CAC         2.7280   -0.4450    2.1760 ca        1 CHW     -0.131800
      4 CAD         2.9040    0.2910    3.4220 ce        1 CHW     -0.075200
      5 CAE         2.0750    0.3520    4.4670 c2        1 CHW     -0.112200
      6 CAF         0.7510   -0.2690    4.6380 cx        1 CHW     -0.011600
      7 CAG         0.4950   -1.0140    5.9440 cx        1 CHW     -0.074200
      8 CAH         0.5940   -1.7410    4.6760 cu        1 CHW     -0.194500
      9 CAI         0.5440   -2.8600    4.0580 c1        1 CHW      0.023200
     10 CAJ         0.5110   -4.0070    3.4390 c2        1 CHW     -0.182300
     11 CAK        -0.5000   -7.7290    5.5230 c         1 CHW      0.565900
     12 OAL        -1.0770   -7.6910    4.4350 o         1 CHW     -0.535100
     13 OAM         4.8380   -4.1400    1.3730 o         1 CHW     -0.573100
     14 CAO         3.3120   -2.3960    0.7770 ca        1 CHW     -0.321600
     15 CAP         1.9140    0.0230    1.1380 ca        1 CHW      0.214100
     16 OAQ         1.2870    1.2220    1.3460 oh        1 CHW     -0.477100
     17 CAR        -0.3720    0.5500    4.0770 c3        1 CHW     -0.063100
     18 CAS        -0.7040   -4.6140    2.8580 c3        1 CHW     -0.068900
     19 CAT         0.3890   -6.6430    6.0200 c3        1 CHW     -0.227100
     20 CAU         2.4560   -1.9170   -0.2440 ca        1 CHW      0.059700
     21 CAV         1.7760   -0.7130   -0.0650 ca        1 CHW     -0.124600
     22 CLAW        0.7520   -0.0880   -1.2820 cl        1 CHW     -0.093400
     23 CAX         2.2950   -2.7010   -1.4950 c3        1 CHW     -0.081800
     24 HOAA        4.7270   -2.8260    2.8230 ho        1 CHW      0.462000
     25 HAD        -2.8350    2.3650    2.8930 ha        1 CHW      0.000500
     26 HADA       -2.3240    1.9920    3.1350 ha        1 CHW      0.000500
     27 HAE         3.8730    0.8240    3.4730 ha        1 CHW      0.132000
     28 HAG         2.3780    0.9550    5.3440 ha        1 CHW      0.125000
     29 HAGA        1.3170   -1.1040    6.6770 hc        1 CHW      0.077200
     30 HAH        -0.4930   -0.9120    6.4300 hc        1 CHW      0.077200
     31 HAK         1.4410   -4.5940    3.3200 ha        1 CHW      0.132000
     32 HOAL       -0.6190   -8.6000    6.2070 h4        1 CHW     -0.008800
     33 HAN         3.7640   -4.2270   -0.3500 h4        1 CHW      0.010200
     34 HOAQ        0.7430    1.4290    0.5660 ho        1 CHW      0.434000
     35 HAR        -0.4050    1.5450    4.5850 hc        1 CHW      0.044033
     36 HARA       -0.2190    0.7160    2.9820 hc        1 CHW      0.044033
     37 HARB       -1.3530    0.0380    4.2300 hc        1 CHW      0.044033
     38 HAS        -1.6050   -3.9710    3.0080 hc        1 CHW      0.051700
     39 HASA       -0.5590   -4.7690    1.7580 hc        1 CHW      0.051700
     40 HASB       -0.8960   -5.6130    3.3300 hc        1 CHW      0.051700
     41 HAT         0.4590   -5.8020    5.2840 hc        1 CHW      0.068700
     42 HATA        1.4130   -7.0510    6.2020 hc        1 CHW      0.068700
     43 HATB       -0.0100   -6.2440    6.9850 hc        1 CHW      0.068700
     44 HAX         3.2910   -2.8900   -1.9680 hc        1 CHW      0.061700
     45 HAXA        1.6600   -2.1710   -2.2470 hc        1 CHW      0.061700
     46 HAXB        1.8050   -3.6830   -1.2670 hc        1 CHW      0.061700
     47 HAI         0.4270   -5.3860   -0.3600 ha        1 CHW      0.000500
     48 HAH1       -0.0790   -4.9820   -0.5590 ha        1 CHW      0.000500
     49 CAN         4.0130   -3.6660    0.5800 c         1 CHW      0.592500
@<TRIPOS>BOND
     1    1    2 1   
     2    1   24 1   
     3    2    3 ar  
     4    2   14 ar  
     5    3    4 1   
     6    3   15 ar  
     7    4    5 2   
     8    4   27 1   
     9    5    6 1   
    10    5   28 1   
    11    6    7 1   
    12    6    8 1   
    13    6   17 1   
    14    7    8 1   
    15    7   29 1   
    16    7   30 1   
    17    8    9 2   
    18    9   10 2   
    19   10   18 1   
    20   10   31 1   
    21   11   12 2   
    22   11   19 1   
    23   11   32 1   
    24   13   49 2   
    25   14   20 ar  
    26   14   49 1   
    27   15   16 1   
    28   15   21 ar  
    29   16   34 1   
    30   17   35 1   
    31   17   36 1   
    32   17   37 1   
    33   18   38 1   
    34   18   39 1   
    35   18   40 1   
    36   19   41 1   
    37   19   42 1   
    38   19   43 1   
    39   20   21 ar  
    40   20   23 1   
    41   21   22 1   
    42   23   44 1   
    43   23   45 1   
    44   23   46 1   
    45   25   26 1   
    46   33   49 1   
    47   47   48 1   
@<TRIPOS>SUBSTRUCTURE
     1 CHW         1 TEMP              0 ****  ****    0 ROOT
