@<TRIPOS>MOLECULE
CHW
   49    60     1     0     0
SMALL
bcc


@<TRIPOS>ATOM
      1 OAA         0.0000    0.0000    0.0000 oh        1 CHW     -0.274000
      2 CAB         1.3560    0.0000    0.0000 c3        1 CHW      0.190000
      3 CAC         2.0520    0.0000    1.1960 c2        1 CHW     -0.349000
      4 CAD         1.3030   -0.0010    2.5050 DU        1 CHW     -0.116000
      5 CAE         1.0540   -1.4230    2.9390 c2        1 CHW     -0.360000
      6 CAF        -0.1580   -1.8090    3.2500 DU        1 CHW     -0.229000
      7 CAG        -0.4340   -3.2620    3.5400 DU        1 CHW     -0.210000
      8 CAH        -0.3630   -3.5040    5.0480 DU        1 CHW     -0.322000
      9 CAI        -0.6390   -4.9570    5.3380 c3        1 CHW     -0.299000
     10 CAJ         0.2720   -5.6930    5.9250 c3        1 CHW     -0.375000
     11 CAK        -0.0530   -7.1030    6.3430 DU        1 CHW     -0.249000
     12 OAL         0.8980   -8.0020    5.7670 oh        1 CHW     -0.598000
     13 OAM         0.1250   -0.0100   -2.4970 o         1 CHW     -0.250000
     14 CAO         2.0640   -0.0050   -1.2150 c3        1 CHW     -0.577000
     15 CAP         3.4390    0.0000    1.1900 c2        1 CHW      0.378000
     16 OAQ         4.1190   -0.0000    2.3650 oh        1 CHW     -0.388000
     17 CAR        -1.2760   -0.8020    3.3190 c3        1 CHW     -0.118000
     18 CAS         1.6440   -5.1280    6.1850 c3        1 CHW     -0.171000
     19 CAT         0.0030   -7.2110    7.8680 c3        1 CHW     -0.559000
     20 CAU         3.4650   -0.0050   -1.2030 c3        1 CHW      0.154000
     21 CAV         4.1380    0.0010   -0.0140 c2        1 CHW     -0.459000
     22 ClAW        5.8740   -0.0000   -0.0060 cl        1 CHW      0.209000
     23 CAX         4.2310   -0.0110   -2.5010 c3        1 CHW     -0.093000
     24 HOAA        0.3860   -0.0040   -0.8600 DU        1 CHW      0.304000
     25 HAD         0.7860   -0.2610    1.5890 ha        1 CHW      0.256500
     26 HADA        0.3550    0.5090    2.3790 ha        1 CHW      0.256500
     27 HAE         1.4810   -0.4400    3.1040 DU        1 CHW      0.260000
     28 HAG         0.1340   -2.3410    3.5830 DU        1 CHW      0.344000
     29 HAGA       -1.4230   -3.5200    3.1790 ha        1 CHW      0.171000
     30 HAH        -0.0250   -3.6930    4.0360 DU        1 CHW      0.135000
     31 HAK        -0.3110   -6.0690    6.1500 DU        1 CHW      0.385000
     32 HOAL        0.0080   -7.7100    5.8720 DU        1 CHW      0.351000
     33 HAN         1.2600   -0.8320   -1.7870 DU        1 CHW      0.297000
     34 HOAQ        3.7900    0.0480    1.4830 ho        1 CHW      0.341000
     35 HAR        -0.2400   -0.5270    3.1610 DU        1 CHW      0.106000
     36 HARA       -2.1630   -1.2740    3.7230 hc        1 CHW      0.098000
     37 HARB       -1.4880   -0.4290    2.3240 hc        1 CHW      0.098000
     38 HAS         1.1850   -4.2270    5.7960 hc        1 CHW      0.080667
     39 HASA        2.1400   -4.9360    5.2410 hc        1 CHW      0.080667
     40 HASB        1.5540   -4.2020    6.7400 hc        1 CHW      0.080667
     41 HAT         0.8530   -6.6880    7.4460 hc        1 CHW      0.189000
     42 HATA       -0.5950   -8.0530    8.1930 hc        1 CHW      0.189000
     43 HATB        1.0300   -7.3540    8.1820 hc        1 CHW      0.189000
     44 HAX         3.8550   -0.5220   -1.6230 DU        1 CHW      0.157000
     45 HAXA        3.6230    0.4320   -3.2810 hc        1 CHW      0.129500
     46 HAXB        5.1430    0.5620   -2.3850 hc        1 CHW      0.129500
     47 HAI        -0.1040   -4.5470    4.4900 DU        1 CHW      0.141500
     48 HAH1       -0.1390   -4.4460    4.5610 DU        1 CHW      0.141500
     49 CAN         1.3390   -0.0100   -2.4890 c2        1 CHW      0.151000
@<TRIPOS>BOND
     1    1    2 1   
     2    1   24 1   
     3    2    3 1   
     4    2   14 1   
     5    2   24 1   
     6    3    4 1   
     7    3   15 1   
     8    4    5 1   
     9    4   25 1   
    10    4   26 1   
    11    4   27 1   
    12    5    6 1   
    13    5   27 1   
    14    6    7 1   
    15    6   17 1   
    16    6   28 1   
    17    6   35 1   
    18    7    8 1   
    19    7   28 1   
    20    7   29 1   
    21    7   30 1   
    22    8    9 1   
    23    8   30 1   
    24    8   47 1   
    25    8   48 1   
    26    9   10 1   
    27    9   47 1   
    28    9   48 1   
    29   10   11 1   
    30   10   18 1   
    31   10   31 1   
    32   11   12 1   
    33   11   19 1   
    34   11   31 1   
    35   11   32 1   
    36   12   32 1   
    37   13   49 1   
    38   14   20 1   
    39   14   33 1   
    40   14   49 1   
    41   15   16 1   
    42   15   21 1   
    43   16   34 1   
    44   17   35 1   
    45   17   36 1   
    46   17   37 1   
    47   18   38 1   
    48   18   39 1   
    49   18   40 1   
    50   19   41 1   
    51   19   42 1   
    52   19   43 1   
    53   20   21 1   
    54   20   23 1   
    55   20   44 1   
    56   21   22 1   
    57   23   44 1   
    58   23   45 1   
    59   23   46 1   
    60   33   49 1   
@<TRIPOS>SUBSTRUCTURE
     1 CHW         1 TEMP              0 ****  ****    0 ROOT
