@<TRIPOS>MOLECULE
CHW
   49    44     1     0     0
SMALL
bcc


@<TRIPOS>ATOM
      1 OAA        -1.8270    2.1290    2.2350 oh        1 CHW     -0.254000
      2 CAB        -2.0600    2.9840    1.1430 c2        1 CHW      0.205000
      3 CAC        -1.4410    2.7380   -0.0730 c1        1 CHW     -0.146000
      4 CAD        -0.5230    1.5440   -0.2280 c2        1 CHW     -0.075000
      5 CAE        -1.3380    0.2710   -0.1740 c2        1 CHW     -0.159000
      6 CAF        -0.7590   -0.9130   -0.4580 c1        1 CHW     -0.109000
      7 CAG         0.7070   -0.9690   -0.8300 c2        1 CHW     -0.122000
      8 CAH         1.2500   -2.3500   -0.5350 c3        1 CHW     -0.134000
      9 CAI         2.7630   -2.3020   -0.5060 c2        1 CHW     -0.169000
     10 CAJ         3.4710   -3.4400   -0.3590 c1        1 CHW     -0.104000
     11 CAK         2.7540   -4.7640   -0.2240 c2        1 CHW      0.062000
     12 OAL         2.9000   -5.5000   -1.4150 oh        1 CHW     -0.328000
     13 OAM        -3.4830    3.5320    3.5140 o         1 CHW     -0.336000
     14 CAN        -3.6000    4.3300    2.6020 c1        1 CHW      0.241000
     15 CAO        -2.8660    4.1010    1.2970 c1        1 CHW     -0.299000
     16 CAP        -1.6280    3.6100   -1.1340 c2        1 CHW      0.157000
     17 OAQ        -1.0050    3.3570   -2.3700 oh        1 CHW     -0.233000
     18 CAR        -1.5740   -2.1850   -0.4040 c3        1 CHW     -0.181000
     19 CAS         4.9830   -3.3920   -0.3290 c3        1 CHW     -0.172000
     20 CAT         3.3480   -5.5450    0.9260 c3        1 CHW     -0.254000
     21 CAU        -3.0520    4.9730    0.2360 c1        1 CHW      0.064000
     22 CAV        -2.4330    4.7280   -0.9800 c1        1 CHW     -0.201000
     23 CLAW       -2.7130    5.7940   -2.3310 cl        1 CHW     -0.013000
     24 CAX        -3.8770    6.2280    0.4250 c3        1 CHW     -0.204000
     25 HOAA       -1.1770    2.4640    2.7410 ho        1 CHW      0.263000
     26 HAD         0.1340    1.5410    0.4970 ha        1 CHW      0.109000
     27 HADA       -0.0600    1.5970   -1.0880 ha        1 CHW      0.109000
     28 HAE        -2.2840    0.3070    0.0660 ha        1 CHW      0.124000
     29 HAG         1.2010   -0.3060   -0.3090 ha        1 CHW      0.084500
     30 HAGA        0.8080   -0.7750   -1.7840 ha        1 CHW      0.084500
     31 HAH         0.9580   -2.9720   -1.2320 hc        1 CHW      0.097000
     32 HAK         1.8050   -4.6050   -0.0540 h4        1 CHW      0.078000
     33 HOAL        2.2620   -6.1190   -1.4620 ho        1 CHW      0.198000
     34 HAN        -4.1870    5.1050    2.7030 ha        1 CHW      0.104000
     35 HOAQ       -0.5380    4.0720   -2.6190 ho        1 CHW      0.235000
     36 HAR        -1.2660   -2.7400    0.3430 hc        1 CHW      0.080000
     37 HARA       -1.4660   -2.6790   -1.2430 hc        1 CHW      0.080000
     38 HARB       -2.5200   -1.9620   -0.2760 hc        1 CHW      0.080000
     39 HAS         5.2840   -3.1390    0.5690 hc        1 CHW      0.084333
     40 HASA        5.3020   -2.7300   -0.9790 hc        1 CHW      0.084333
     41 HASB        5.3430   -4.2740   -0.5580 hc        1 CHW      0.084333
     42 HAT         3.5530   -4.9330    1.6650 hc        1 CHW      0.087667
     43 HATA        4.1720   -5.9860    0.6300 hc        1 CHW      0.087667
     44 HATB        2.7060   -6.2200    1.2290 hc        1 CHW      0.087667
     45 HAX        -3.5880    6.6900    1.2390 hc        1 CHW      0.101000
     46 HAXA       -3.7540    6.8190   -0.3470 hc        1 CHW      0.101000
     47 HAXB       -4.8240    5.9880    0.5040 hc        1 CHW      0.101000
     48 HAI         3.2250   -1.4470   -0.5930 ha        1 CHW      0.123000
     49 HAH1        0.9170   -2.6540    0.3330 hc        1 CHW      0.097000
@<TRIPOS>BOND
     1    1    2 1   
     2    1   25 1   
     3    2    3 1   
     4    2   15 1   
     5    3   16 1   
     6    4    5 1   
     7    4   26 1   
     8    4   27 1   
     9    5    6 1   
    10    5   28 1   
    11    6   18 1   
    12    7    8 1   
    13    7   29 1   
    14    7   30 1   
    15    8    9 1   
    16    8   31 1   
    17    8   49 1   
    18    9   10 1   
    19    9   48 1   
    20   10   19 1   
    21   11   12 1   
    22   11   20 1   
    23   11   32 1   
    24   12   33 1   
    25   13   14 1   
    26   14   34 1   
    27   15   21 1   
    28   16   17 1   
    29   16   22 1   
    30   17   35 1   
    31   18   36 1   
    32   18   37 1   
    33   18   38 1   
    34   19   39 1   
    35   19   40 1   
    36   19   41 1   
    37   20   42 1   
    38   20   43 1   
    39   20   44 1   
    40   21   24 1   
    41   22   23 1   
    42   24   45 1   
    43   24   46 1   
    44   24   47 1   
@<TRIPOS>SUBSTRUCTURE
     1 CHW         1 TEMP              0 ****  ****    0 ROOT
