@<TRIPOS>MOLECULE
CHX
   18    18     1     0     0
SMALL
bcc


@<TRIPOS>ATOM
      1 C1         -1.2520    0.2290    0.7210 c3        1 CHX     -0.076400
      2 C2         -1.2500   -0.2290   -0.7230 c3        1 CHX     -0.076400
      3 C3          0.0010    0.2290   -1.4450 c3        1 CHX     -0.076400
      4 C4          1.2520   -0.2290   -0.7210 c3        1 CHX     -0.076400
      5 C5          1.2500    0.2290    0.7230 c3        1 CHX     -0.076400
      6 C6         -0.0010   -0.2290    1.4450 c3        1 CHX     -0.076400
      7 H11        -1.3150    1.3480    0.7580 hc        1 CHX      0.038200
      8 H12        -2.1570   -0.1770    1.2430 hc        1 CHX      0.038200
      9 H21        -1.3140   -1.3480   -0.7600 hc        1 CHX      0.038200
     10 H22        -2.1550    0.1770   -1.2460 hc        1 CHX      0.038200
     11 H31         0.0020   -0.1770   -2.4890 hc        1 CHX      0.038200
     12 H32         0.0010    1.3480   -1.5180 hc        1 CHX      0.038200
     13 H41         1.3150   -1.3480   -0.7580 hc        1 CHX      0.038200
     14 H42         2.1570    0.1770   -1.2430 hc        1 CHX      0.038200
     15 H51         2.1550   -0.1770    1.2460 hc        1 CHX      0.038200
     16 H52         1.3140    1.3480    0.7600 hc        1 CHX      0.038200
     17 H61        -0.0020    0.1770    2.4890 hc        1 CHX      0.038200
     18 H62        -0.0010   -1.3480    1.5180 hc        1 CHX      0.038200
@<TRIPOS>BOND
     1    1    2 1   
     2    1    6 1   
     3    1    7 1   
     4    1    8 1   
     5    2    3 1   
     6    2    9 1   
     7    2   10 1   
     8    3    4 1   
     9    3   11 1   
    10    3   12 1   
    11    4    5 1   
    12    4   13 1   
    13    4   14 1   
    14    5    6 1   
    15    5   15 1   
    16    5   16 1   
    17    6   17 1   
    18    6   18 1   
@<TRIPOS>SUBSTRUCTURE
     1 CHX         1 TEMP              0 ****  ****    0 ROOT
