@<TRIPOS>MOLECULE
CHX
   18    18     1     0     0
SMALL
bcc


@<TRIPOS>ATOM
      1 C1         -0.7560    0.5490   -1.1310 c3        1 CHX     -0.076400
      2 C2          0.7560    0.5490   -1.1310 c3        1 CHX     -0.076400
      3 C3          1.3350    0.5490    0.2670 c3        1 CHX     -0.076400
      4 C4          0.7560   -0.5490    1.1310 c3        1 CHX     -0.076400
      5 C5         -0.7560   -0.5490    1.1310 c3        1 CHX     -0.076400
      6 C6         -1.3350   -0.5490   -0.2670 c3        1 CHX     -0.076400
      7 H11        -1.0720    1.4110   -0.7990 hc        1 CHX      0.038200
      8 H12        -1.0720    0.4290   -2.0470 hc        1 CHX      0.038200
      9 H21         1.0720   -0.2450   -1.6030 hc        1 CHX      0.038200
     10 H22         1.0720    1.3430   -1.6030 hc        1 CHX      0.038200
     11 H31         1.1480    1.4110    0.6850 hc        1 CHX      0.038200
     12 H32         2.3020    0.4290    0.2080 hc        1 CHX      0.038200
     13 H41         1.0720   -0.4290    2.0470 hc        1 CHX      0.038200
     14 H42         1.0720   -1.4110    0.7990 hc        1 CHX      0.038200
     15 H51        -1.0720   -1.3430    1.6030 hc        1 CHX      0.038200
     16 H52        -1.0720    0.2450    1.6030 hc        1 CHX      0.038200
     17 H61        -2.3020   -0.4290   -0.2080 hc        1 CHX      0.038200
     18 H62        -1.1480   -1.4110   -0.6850 hc        1 CHX      0.038200
@<TRIPOS>BOND
     1    1    2 1   
     2    1    6 1   
     3    1    7 1   
     4    1    8 1   
     5    2    3 1   
     6    2    9 1   
     7    2   10 1   
     8    3    4 1   
     9    3   11 1   
    10    3   12 1   
    11    4    5 1   
    12    4   13 1   
    13    4   14 1   
    14    5    6 1   
    15    5   15 1   
    16    5   16 1   
    17    6   17 1   
    18    6   18 1   
@<TRIPOS>SUBSTRUCTURE
     1 CHX         1 TEMP              0 ****  ****    0 ROOT
