@<TRIPOS>MOLECULE
CHX
   18    18     1     0     0
SMALL
bcc


@<TRIPOS>ATOM
      1 C1          0.0080   -0.0210   -0.0150 c3        1 CHX     -0.076400
      2 C2          1.5220    0.0240    0.0110 c3        1 CHX     -0.076400
      3 C3          2.0490   -0.0190    1.4310 c3        1 CHX     -0.076400
      4 C4          1.5220   -1.2280    2.1780 c3        1 CHX     -0.076400
      5 C5          0.0070   -1.2730    2.1510 c3        1 CHX     -0.076400
      6 C6         -0.5200   -1.2300    0.7310 c3        1 CHX     -0.076400
      7 H11        -0.4020    0.9130    0.4510 hc        1 CHX      0.038200
      8 H12        -0.3490   -0.0510   -1.0780 hc        1 CHX      0.038200
      9 H21         1.9310   -0.8470   -0.5650 hc        1 CHX      0.038200
     10 H22         1.8780    0.9590   -0.4930 hc        1 CHX      0.038200
     11 H31         3.1700   -0.0480    1.4140 hc        1 CHX      0.038200
     12 H32         1.7440    0.9150    1.9710 hc        1 CHX      0.038200
     13 H41         1.9310   -2.1620    1.7110 hc        1 CHX      0.038200
     14 H42         1.8780   -1.1980    3.2400 hc        1 CHX      0.038200
     15 H51        -0.4020   -0.4020    2.7280 hc        1 CHX      0.038200
     16 H52        -0.3490   -2.2080    2.6560 hc        1 CHX      0.038200
     17 H61        -1.6410   -1.2010    0.7480 hc        1 CHX      0.038200
     18 H62        -0.2150   -2.1640    0.1920 hc        1 CHX      0.038200
@<TRIPOS>BOND
     1    1    2 1   
     2    1    6 1   
     3    1    7 1   
     4    1    8 1   
     5    2    3 1   
     6    2    9 1   
     7    2   10 1   
     8    3    4 1   
     9    3   11 1   
    10    3   12 1   
    11    4    5 1   
    12    4   13 1   
    13    4   14 1   
    14    5    6 1   
    15    5   15 1   
    16    5   16 1   
    17    6   17 1   
    18    6   18 1   
@<TRIPOS>SUBSTRUCTURE
     1 CHX         1 TEMP              0 ****  ****    0 ROOT
