@<TRIPOS>MOLECULE
CHY
   88    90     1     0     0
SMALL
bcc


@<TRIPOS>ATOM
      1 N7          0.5650   -0.1630   -0.7670 n         1 CHY     -0.468900
      2 C23         1.9720   -0.1720   -0.3450 c3        1 CHY      0.057700
      3 C24         2.1790   -0.3030    1.1560 c         1 CHY      0.600100
      4 O5          1.0500   -0.4830    1.9110 oh        1 CHY     -0.672100
      5 C25         2.6880    1.1140   -0.8130 c3        1 CHY     -0.041100
      6 C26         2.4870    1.3720   -2.2600 ca        1 CHY     -0.142300
      7 C27         1.5100    2.2850   -2.6790 ca        1 CHY     -0.133500
      8 C31         3.3060    0.7530   -3.2100 ca        1 CHY     -0.133500
      9 C28         3.1480    1.0420   -4.5660 ca        1 CHY     -0.115000
     10 C30         1.3560    2.5740   -4.0340 ca        1 CHY     -0.115000
     11 C29         2.1740    1.9510   -4.9790 ca        1 CHY     -0.099000
     12 O4          3.2530   -0.2770    1.7420 o         1 CHY     -0.433000
     13 N5         -3.2950   -3.5580    3.7220 nh        1 CHY     -0.883200
     14 C21        -4.1810   -3.8460    2.6600 c2        1 CHY      0.760100
     15 C20        -2.2850   -2.5360    3.5790 c3        1 CHY      0.200800
     16 N4         -5.4280   -4.2100    2.6660 n2        1 CHY     -0.847100
     17 C18        -2.9210   -2.4500    1.1720 c3        1 CHY      0.138500
     18 C19        -1.7530   -2.3080    2.1520 c3        1 CHY     -0.127400
     19 N3         -3.5520   -3.7660    1.3240 nh        1 CHY     -0.810200
     20 N6         -1.7920   -1.0000   -0.5890 n4        1 CHY     -0.702800
     21 C17        -2.5670   -2.2460   -0.3420 c3        1 CHY      0.060500
     22 C16        -3.9010   -2.2360   -1.1300 c         1 CHY      0.524100
     23 O2         -4.3420   -1.2620   -1.7240 o         1 CHY     -0.401100
     24 O3          0.0800   -2.4350   -0.3700 o         1 CHY     -0.471100
     25 C22        -0.1980   -1.2530   -0.5520 c         1 CHY      0.680100
     26 N2         -4.6730   -3.5090   -1.0970 n4        1 CHY     -0.706800
     27 C11        -6.1350   -3.4010   -1.4680 c3        1 CHY      0.083500
     28 C10        -6.8540   -4.6480   -0.9080 c         1 CHY      0.530100
     29 O1         -6.2700   -5.6620   -0.5490 o         1 CHY     -0.392100
     30 C12        -6.3190   -3.2950   -2.9910 c3        1 CHY     -0.123400
     31 C13        -7.6630   -2.7320   -3.4430 c3        1 CHY     -0.067700
     32 C14        -8.0970   -1.5090   -2.6680 c3        1 CHY     -0.110600
     33 C15        -7.5580   -2.3940   -4.9240 c3        1 CHY     -0.110600
     34 N1         -8.3330   -4.5920   -0.7950 n4        1 CHY     -0.652800
     35 C8         -9.0040   -5.9290   -1.0670 c3        1 CHY     -0.010500
     36 C9         -8.6890   -6.4820   -2.4560 c         1 CHY      0.586900
     37 O6         -7.8080   -5.9760   -3.1470 o         1 CHY     -0.526100
     38 C7        -10.5240   -5.7990   -0.8780 c3        1 CHY     -0.047100
     39 C4        -10.8660   -5.1750    0.4260 ca        1 CHY     -0.177300
     40 C3        -11.1410   -5.9750    1.5410 ca        1 CHY     -0.139500
     41 C5        -10.9940   -3.7810    0.5260 ca        1 CHY     -0.139500
     42 C2        -11.5370   -5.3860    2.7440 ca        1 CHY     -0.105500
     43 C6        -11.3910   -3.1980    1.7260 ca        1 CHY     -0.105500
     44 C1        -11.6620   -4.0010    2.8380 ca        1 CHY     -0.088000
     45 HN7         0.1970    0.7200   -1.0680 hn        1 CHY      0.373500
     46 H23         2.4650   -1.0750   -0.8280 h1        1 CHY      0.136700
     47 H251        2.3400    1.9890   -0.2020 hc        1 CHY      0.106200
     48 H252        3.7830    0.9620   -0.5840 hc        1 CHY      0.106200
     49 H27         0.9040    2.8260   -1.9360 ha        1 CHY      0.133000
     50 H31         4.0970    0.0570   -2.8880 ha        1 CHY      0.133000
     51 H28         3.8100    0.5670   -5.3090 ha        1 CHY      0.157000
     52 H30         0.6110    3.3170   -4.3580 ha        1 CHY      0.157000
     53 H29         2.0660    2.1960   -6.0480 ha        1 CHY      0.162000
     54 H201       -2.6840   -1.5500    3.9650 h1        1 CHY      0.085200
     55 H202       -1.4140   -2.8350    4.2370 h1        1 CHY      0.085200
     56 HN41       -5.8660   -4.3000    3.5590 hn        1 CHY      0.449400
     57 H18        -3.6940   -1.6620    1.4360 h1        1 CHY      0.094700
     58 HN6        -2.0440   -0.6040   -1.5020 hn        1 CHY      0.467300
     59 H17        -1.9320   -3.1200   -0.7070 hx        1 CHY      0.177700
     60 HN2        -4.2270   -4.1840   -1.7360 hn        1 CHY      0.511800
     61 H11        -6.5350   -2.4660   -0.9650 hx        1 CHY      0.144700
     62 H121       -6.1830   -4.3100   -3.4610 hc        1 CHY      0.103700
     63 H122       -5.5210   -2.6110   -3.3970 hc        1 CHY      0.103700
     64 H13        -8.4440   -3.5410   -3.3550 hc        1 CHY      0.044700
     65 H141       -8.9680   -1.0250   -3.1800 hc        1 CHY      0.060867
     66 H142       -7.2730   -0.7550   -2.6170 hc        1 CHY      0.060867
     67 H143       -8.4160   -1.7660   -1.6270 hc        1 CHY      0.060867
     68 H151       -6.8570   -1.5400   -5.0870 hc        1 CHY      0.060867
     69 H152       -8.5640   -2.1020   -5.3160 hc        1 CHY      0.060867
     70 H153       -7.1970   -3.2770   -5.5050 hc        1 CHY      0.060867
     71 HN1        -8.7140   -3.8950   -1.4520 hn        1 CHY      0.490300
     72 H8         -8.5890   -6.6600   -0.3020 hx        1 CHY      0.151700
     73 H9         -9.3010   -7.3630   -2.7500 h4        1 CHY      0.106200
     74 H71       -10.9700   -5.2100   -1.7250 hc        1 CHY      0.107200
     75 H72       -10.9490   -6.8410   -0.9350 hc        1 CHY      0.107200
     76 H3        -11.0760   -7.0720    1.4670 ha        1 CHY      0.134500
     77 H5        -10.8640   -3.1480   -0.3660 ha        1 CHY      0.134500
     78 H2        -11.7750   -6.0240    3.6130 ha        1 CHY      0.166500
     79 H6        -11.5250   -2.1070    1.7930 ha        1 CHY      0.166500
     80 H1        -12.0010   -3.5390    3.7820 ha        1 CHY      0.172000
     81 H191       -1.2910   -1.2880    2.1130 hc        1 CHY      0.095200
     82 H192       -0.9430   -3.0490    1.9100 hc        1 CHY      0.095200
     83 H721        1.3010   -0.5210    2.8530 ho        1 CHY      0.481000
     84 H62        -2.0140   -0.3100    0.1370 hn        1 CHY      0.467300
     85 H22        -4.5760   -3.8960   -0.0760 hn        1 CHY      0.511800
     86 H12        -8.6080   -4.3130    0.1690 hn        1 CHY      0.490300
     87 HN3        -2.8640   -4.5060    1.2580 hn        1 CHY      0.426800
     88 H41        -3.6290   -3.7030    4.6520 hn        1 CHY      0.473800
@<TRIPOS>BOND
     1    1    2 1   
     2    1   25 1   
     3    1   45 1   
     4    2    3 1   
     5    2    5 1   
     6    2   46 1   
     7    3    4 1   
     8    3   12 2   
     9    4   83 1   
    10    5    6 1   
    11    5   47 1   
    12    5   48 1   
    13    6    7 ar  
    14    6    8 ar  
    15    7   10 ar  
    16    7   49 1   
    17    8    9 ar  
    18    8   50 1   
    19    9   11 ar  
    20    9   51 1   
    21   10   11 ar  
    22   10   52 1   
    23   11   53 1   
    24   13   14 1   
    25   13   15 1   
    26   13   88 1   
    27   14   16 2   
    28   14   19 1   
    29   15   18 1   
    30   15   54 1   
    31   15   55 1   
    32   16   56 1   
    33   17   18 1   
    34   17   19 1   
    35   17   21 1   
    36   17   57 1   
    37   18   81 1   
    38   18   82 1   
    39   19   87 1   
    40   20   21 1   
    41   20   25 1   
    42   20   58 1   
    43   20   84 1   
    44   21   22 1   
    45   21   59 1   
    46   22   23 2   
    47   22   26 1   
    48   24   25 2   
    49   26   27 1   
    50   26   60 1   
    51   26   85 1   
    52   27   28 1   
    53   27   30 1   
    54   27   61 1   
    55   28   29 2   
    56   28   34 1   
    57   30   31 1   
    58   30   62 1   
    59   30   63 1   
    60   31   32 1   
    61   31   33 1   
    62   31   64 1   
    63   32   65 1   
    64   32   66 1   
    65   32   67 1   
    66   33   68 1   
    67   33   69 1   
    68   33   70 1   
    69   34   35 1   
    70   34   71 1   
    71   34   86 1   
    72   35   36 1   
    73   35   38 1   
    74   35   72 1   
    75   36   37 2   
    76   36   73 1   
    77   38   39 1   
    78   38   74 1   
    79   38   75 1   
    80   39   40 ar  
    81   39   41 ar  
    82   40   42 ar  
    83   40   76 1   
    84   41   43 ar  
    85   41   77 1   
    86   42   44 ar  
    87   42   78 1   
    88   43   44 ar  
    89   43   79 1   
    90   44   80 1   
@<TRIPOS>SUBSTRUCTURE
     1 CHY         1 TEMP              0 ****  ****    0 ROOT
