@<TRIPOS>MOLECULE
CHY
   84    86     1     0     0
SMALL
bcc


@<TRIPOS>ATOM
      1 N7         -3.7340   -0.8330    0.6650 n         1 CHY     -0.446900
      2 C23        -4.9220   -0.1820    0.1030 c3        1 CHY     -0.084300
      3 C24        -5.0490    1.3370    0.4680 c         1 CHY      0.889600
      4 O5         -4.2790    1.8080    1.3610 o         1 CHY     -0.833800
      5 C25        -6.2140   -0.8670    0.5650 c3        1 CHY     -0.028100
      6 C26        -6.3990   -2.2260   -0.0100 ca        1 CHY     -0.043300
      7 C27        -6.3410   -3.3630    0.8030 ca        1 CHY     -0.125500
      8 C31        -6.6560   -2.3810   -1.3790 ca        1 CHY     -0.125500
      9 C28        -6.5400   -4.6320    0.2600 ca        1 CHY     -0.135000
     10 C30        -6.8540   -3.6490   -1.9210 ca        1 CHY     -0.135000
     11 C29        -6.7980   -4.7780   -1.1030 ca        1 CHY     -0.150000
     12 O4         -5.9050    2.0100   -0.1580 o         1 CHY     -0.833800
     13 N5         -0.8770    5.4940   -1.1710 nh        1 CHY     -0.811200
     14 C21         0.4060    4.8310   -0.9550 c2        1 CHY      0.734100
     15 C20        -1.9540    4.9650   -0.3580 c3        1 CHY      0.156800
     16 N4          1.5470    5.4690   -1.0130 n2        1 CHY     -0.853100
     17 C18        -0.6860    2.8500    0.0450 c3        1 CHY      0.198500
     18 C19        -2.0480    3.4460   -0.3320 c3        1 CHY     -0.145400
     19 N3          0.4090    3.4170   -0.7350 nh        1 CHY     -0.814200
     20 N6         -1.7790    0.6680    0.5990 n         1 CHY     -0.575900
     21 C17        -0.7360    1.2980   -0.1700 c3        1 CHY      0.041700
     22 C16         0.6240    0.6580    0.2100 c         1 CHY      0.660100
     23 O2          1.5080    1.2720    0.8490 o         1 CHY     -0.661100
     24 O3         -2.0700   -0.9700   -0.9870 o         1 CHY     -0.638100
     25 C22        -2.5230   -0.3800    0.0220 c         1 CHY      0.734100
     26 N2          0.8190   -0.6390   -0.2080 n         1 CHY     -0.557900
     27 C11         1.9600   -1.4120    0.2090 c3        1 CHY      0.043700
     28 C10         3.1640   -1.2020   -0.7530 c         1 CHY      0.643100
     29 O1          3.6060   -2.1250   -1.4680 o         1 CHY     -0.635100
     30 C12         1.6530   -2.9130    0.3170 c3        1 CHY     -0.082400
     31 C13         2.6860   -3.6370    1.1690 c3        1 CHY     -0.064700
     32 C14         2.4460   -3.4100    2.6470 c3        1 CHY     -0.091600
     33 C15         2.6570   -5.1200    0.8590 c3        1 CHY     -0.091600
     34 N1          3.7110    0.0610   -0.7720 n         1 CHY     -0.560900
     35 C8          4.8880    0.4090   -1.5250 c3        1 CHY      0.003700
     36 C9          4.7250    0.1880   -3.0310 c         1 CHY      0.566900
     37 O6          5.4630    0.7590   -3.8340 o         1 CHY     -0.544100
     38 C7          6.1670   -0.3470   -1.1030 c3        1 CHY     -0.060100
     39 C4          6.6040    0.0110    0.2710 ca        1 CHY     -0.074300
     40 C3          6.4780   -0.9080    1.3190 ca        1 CHY     -0.125000
     41 C5          7.1650    1.2690    0.5280 ca        1 CHY     -0.125000
     42 C2          6.9050   -0.5730    2.6040 ca        1 CHY     -0.129500
     43 C6          7.5900    1.6010    1.8120 ca        1 CHY     -0.129500
     44 C1          7.4610    0.6810    2.8530 ca        1 CHY     -0.134000
     45 HN7        -3.7050   -0.6260    1.6530 hn        1 CHY      0.258500
     46 H23        -4.8590   -0.2600   -1.0210 h1        1 CHY      0.071700
     47 H251       -6.2430   -0.9110    1.6860 hc        1 CHY      0.063200
     48 H252       -7.0590   -0.2020    0.2300 hc        1 CHY      0.063200
     49 H27        -6.1280   -3.2540    1.8770 ha        1 CHY      0.132500
     50 H31        -6.6930   -1.4900   -2.0250 ha        1 CHY      0.132500
     51 H28        -6.4880   -5.5190    0.9070 ha        1 CHY      0.116500
     52 H30        -7.0490   -3.7600   -2.9970 ha        1 CHY      0.116500
     53 H29        -6.9520   -5.7770   -1.5310 ha        1 CHY      0.115000
     54 H201       -2.9260    5.3910   -0.7350 h1        1 CHY      0.061700
     55 H202       -1.7960    5.3430    0.6920 h1        1 CHY      0.061700
     56 HN41        1.4810    6.4290   -1.2720 hn        1 CHY      0.393400
     57 H18        -0.5060    3.0340    1.1490 h1        1 CHY      0.052700
     58 HN3         1.2990    3.0730   -0.4160 hn        1 CHY      0.424800
     59 HN6        -2.2680    1.2610    1.2500 hn        1 CHY      0.356500
     60 H17        -0.9000    1.1050   -1.2770 h1        1 CHY      0.092700
     61 HN2         0.0820   -1.1150   -0.6860 hn        1 CHY      0.355500
     62 H11         2.2900   -1.0360    1.2290 h1        1 CHY      0.082700
     63 H121        0.6350   -3.0640    0.7640 hc        1 CHY      0.067200
     64 H122        1.6450   -3.3560   -0.7150 hc        1 CHY      0.067200
     65 H13         3.7070   -3.2400    0.9000 hc        1 CHY      0.053700
     66 H141        2.4880   -2.3230    2.8960 hc        1 CHY      0.033533
     67 H142        1.4440   -3.8010    2.9470 hc        1 CHY      0.033533
     68 H143        3.2250   -3.9390    3.2490 hc        1 CHY      0.033533
     69 H151        2.9140   -5.2980   -0.2130 hc        1 CHY      0.033533
     70 H152        3.3960   -5.6620    1.4970 hc        1 CHY      0.033533
     71 H153        1.6420   -5.5420    1.0560 hc        1 CHY      0.033533
     72 HN1         3.3490    0.7540   -0.1500 hn        1 CHY      0.351500
     73 H8          5.0710    1.5160   -1.3590 h1        1 CHY      0.084700
     74 H9          3.9300   -0.5200   -3.3480 h4        1 CHY      0.032200
     75 H71         6.9750   -0.0740   -1.8350 hc        1 CHY      0.072200
     76 H72         5.9840   -1.4520   -1.1840 hc        1 CHY      0.072200
     77 H3          6.0340   -1.8970    1.1280 ha        1 CHY      0.135000
     78 H5          7.2660    1.9960   -0.2920 ha        1 CHY      0.135000
     79 H2          6.7980   -1.3000    3.4220 ha        1 CHY      0.127500
     80 H6          8.0240    2.5930    2.0060 ha        1 CHY      0.127500
     81 H1          7.7930    0.9460    3.8660 ha        1 CHY      0.126000
     82 H191       -2.3710    3.0600   -1.3330 hc        1 CHY      0.096700
     83 H192       -2.8370    3.1420    0.4140 hc        1 CHY      0.096700
     84 H41        -1.1060    5.4420   -2.1480 hn        1 CHY      0.373800
@<TRIPOS>BOND
     1    1    2 1   
     2    1   25 1   
     3    1   45 1   
     4    2    3 1   
     5    2    5 1   
     6    2   46 1   
     7    3    4 1   
     8    3   12 1   
     9    5    6 1   
    10    5   47 1   
    11    5   48 1   
    12    6    7 ar  
    13    6    8 ar  
    14    7    9 ar  
    15    7   49 1   
    16    8   10 ar  
    17    8   50 1   
    18    9   11 ar  
    19    9   51 1   
    20   10   11 ar  
    21   10   52 1   
    22   11   53 1   
    23   13   14 1   
    24   13   15 1   
    25   13   84 1   
    26   14   16 2   
    27   14   19 1   
    28   15   18 1   
    29   15   54 1   
    30   15   55 1   
    31   16   56 1   
    32   17   18 1   
    33   17   19 1   
    34   17   21 1   
    35   17   57 1   
    36   18   82 1   
    37   18   83 1   
    38   19   58 1   
    39   20   21 1   
    40   20   25 1   
    41   20   59 1   
    42   21   22 1   
    43   21   60 1   
    44   22   23 2   
    45   22   26 1   
    46   24   25 2   
    47   26   27 1   
    48   26   61 1   
    49   27   28 1   
    50   27   30 1   
    51   27   62 1   
    52   28   29 2   
    53   28   34 1   
    54   30   31 1   
    55   30   63 1   
    56   30   64 1   
    57   31   32 1   
    58   31   33 1   
    59   31   65 1   
    60   32   66 1   
    61   32   67 1   
    62   32   68 1   
    63   33   69 1   
    64   33   70 1   
    65   33   71 1   
    66   34   35 1   
    67   34   72 1   
    68   35   36 1   
    69   35   38 1   
    70   35   73 1   
    71   36   37 2   
    72   36   74 1   
    73   38   39 1   
    74   38   75 1   
    75   38   76 1   
    76   39   40 ar  
    77   39   41 ar  
    78   40   42 ar  
    79   40   77 1   
    80   41   43 ar  
    81   41   78 1   
    82   42   44 ar  
    83   42   79 1   
    84   43   44 ar  
    85   43   80 1   
    86   44   81 1   
@<TRIPOS>SUBSTRUCTURE
     1 CHY         1 TEMP              0 ****  ****    0 ROOT
