@<TRIPOS>MOLECULE
CHY
   84    79     1     0     0
SMALL
bcc


@<TRIPOS>ATOM
      1 N7          4.1050    2.2670    0.9820 n         1 CHY     -0.269000
      2 C23         5.4190    2.1240    1.5230 c3        1 CHY     -0.103000
      3 C24         5.3310    1.5080    2.8720 c2        1 CHY      0.311000
      4 O5          4.5590    2.0040    3.7470 o         1 CHY     -0.581000
      5 C25         6.0830    3.5030    1.6300 c3        1 CHY     -0.105000
      6 C26         7.4540    3.3560    2.2260 c2        1 CHY     -0.056000
      7 C27         8.5670    3.6490    1.4670 c1        1 CHY     -0.135000
      8 C31         7.6000    2.9230    3.5440 c2        1 CHY     -0.120000
      9 C28         9.8400    3.5130    2.0170 c1        1 CHY     -0.134333
     10 C30         8.8710    2.7880    4.0940 c1        1 CHY     -0.137000
     11 C29         9.9870    3.0810    3.3340 c1        1 CHY     -0.134333
     12 O4          5.9640    0.4750    3.1200 o         1 CHY     -0.581000
     13 N5          1.3920    0.9340    5.3640 n3        1 CHY     -0.299000
     14 C21         1.1440   -0.4500    4.8730 c1        1 CHY      0.165000
     15 C20         0.6910    1.9670    4.6270 c3        1 CHY     -0.064000
     16 N4          0.9450   -1.4740    5.6830 n1        1 CHY     -0.333000
     17 C18         0.4610    0.4850    2.7130 c3        1 CHY     -0.004000
     18 C19         0.8460    1.8370    3.1660 c3        1 CHY     -0.223000
     19 N3          1.1410   -0.5740    3.3950 n2        1 CHY     -0.315000
     20 N6          1.7220    1.3730    0.8120 n         1 CHY     -0.376000
     21 C17         0.7740    0.3680    1.1830 c3        1 CHY     -0.001000
     22 C16        -0.4960    0.5560    0.3910 c2        1 CHY      0.314000
     23 O2         -1.0720    1.6330    0.4080 o         1 CHY     -0.421000
     24 O3          3.6050   -0.0220    1.1150 o         1 CHY     -0.355000
     25 C22         3.1720    1.1380    1.0140 c2        1 CHY      0.363000
     26 N2         -1.0700   -0.5710   -0.3600 n         1 CHY     -0.366000
     27 C11        -2.1240   -0.3380   -1.2870 c3        1 CHY      0.017000
     28 C10        -2.7380   -1.6400   -1.6920 c2        1 CHY      0.286000
     29 O1         -2.0740   -2.6570   -1.6640 o         1 CHY     -0.394000
     30 C12        -1.5590    0.3870   -2.5460 c3        1 CHY     -0.161000
     31 C13        -2.6800    1.0700   -3.2750 c3        1 CHY     -0.105000
     32 C14        -2.5710    2.5120   -3.0930 c3        1 CHY     -0.209500
     33 C15        -2.5980    0.7400   -4.7570 c3        1 CHY     -0.209500
     34 N1         -4.1660   -1.7120   -1.9650 n         1 CHY     -0.374000
     35 C8         -4.7630   -2.9750   -2.3900 c3        1 CHY     -0.023000
     36 C9         -3.8900   -3.6220   -3.3850 c2        1 CHY      0.179000
     37 O6         -3.2980   -4.6360   -3.0980 o         1 CHY     -0.284000
     38 C7         -6.1190   -2.7130   -3.0050 c3        1 CHY     -0.147000
     39 C4         -6.8250   -4.0510   -3.2640 c1        1 CHY     -0.072000
     40 C3         -8.0090   -4.3380   -2.6300 c1        1 CHY     -0.134333
     41 C5         -6.3290   -4.9100   -4.2050 c1        1 CHY     -0.122000
     42 C2         -8.6920   -5.4840   -2.9400 c1        1 CHY     -0.134333
     43 C6         -7.0180   -6.0650   -4.5170 c1        1 CHY     -0.134333
     44 C1         -8.1920   -6.3490   -3.8880 c1        1 CHY     -0.134333
     45 HN7         3.8550    3.0410    0.6190 hn        1 CHY      0.170000
     46 H23         5.9540    1.5500    0.9350 h1        1 CHY      0.125000
     47 H251        6.1560    3.8900    0.7560 hc        1 CHY      0.091500
     48 H252        5.5560    4.0660    2.1820 hc        1 CHY      0.091500
     49 H27         8.4640    3.9530    0.5440 ha        1 CHY      0.122000
     50 H31         6.8250    2.6500    4.0500 ha        1 CHY      0.192000
     51 H28        10.6200    3.7180    1.4850 ha        1 CHY      0.123167
     52 H30         8.9760    2.4810    5.0320 ha        1 CHY      0.122000
     53 H29        10.9050    2.9830    3.7310 ha        1 CHY      0.123167
     54 H41         1.6280    1.0730    6.2270 hn        1 CHY      0.231000
     55 H201        1.1310    2.8000    4.8630 h1        1 CHY      0.083000
     56 H202       -0.2820    1.8100    4.8060 h1        1 CHY      0.083000
     57 HN41        0.9570   -1.3490    6.5900 DU        1 CHY      0.148000
     58 H18        -0.5040    0.3740    2.8460 h1        1 CHY      0.078000
     59 H191        0.2010    2.4370    2.7790 hc        1 CHY      0.117000
     60 H192        1.8310    1.9190    2.9840 hc        1 CHY      0.117000
     61 HN3         1.2110   -1.4140    2.9980 hn        1 CHY      0.225000
     62 HN6         1.4250    2.1840    0.4460 hn        1 CHY      0.244000
     63 H17         1.1480   -0.5210    0.9920 h1        1 CHY      0.149000
     64 HN2        -0.8030   -1.4260   -0.1760 hn        1 CHY      0.255000
     65 H11        -2.8130    0.2310   -0.8620 h1        1 CHY      0.126000
     66 H121       -0.8800    1.0700   -2.2620 hc        1 CHY      0.105500
     67 H122       -1.1360   -0.2670   -3.1390 hc        1 CHY      0.105500
     68 H13        -3.5240    0.7650   -2.9240 hc        1 CHY      0.096000
     69 H141       -2.4160    2.7120   -2.1420 hc        1 CHY      0.073167
     70 H142       -1.8200    2.8540   -3.6260 hc        1 CHY      0.073167
     71 H143       -3.4140    2.9480   -3.3900 hc        1 CHY      0.073167
     72 H151       -2.6820   -0.2360   -4.8850 hc        1 CHY      0.073167
     73 H152       -1.7270    1.0450   -5.1150 hc        1 CHY      0.073167
     74 H153       -3.3310    1.1990   -5.2380 hc        1 CHY      0.073167
     75 HN1        -4.7020   -0.9910   -1.7840 hn        1 CHY      0.265000
     76 H8         -4.8670   -3.5700   -1.6080 h1        1 CHY      0.118000
     77 H9         -3.8470   -3.2760   -4.2890 h4        1 CHY      0.125000
     78 H71        -6.6530   -2.1760   -2.3950 hc        1 CHY      0.107500
     79 H72        -6.0070   -2.2290   -3.8590 hc        1 CHY      0.107500
     80 H3         -8.3840   -3.7120   -2.0140 ha        1 CHY      0.123167
     81 H5         -5.5060   -4.7110   -4.6470 ha        1 CHY      0.134000
     82 H2         -9.5510   -5.6860   -2.4880 ha        1 CHY      0.123167
     83 H6         -6.6630   -6.6800   -5.1910 ha        1 CHY      0.123167
     84 H1         -8.7230   -7.1190   -4.1720 ha        1 CHY      0.123167
@<TRIPOS>BOND
     1    1    2 1   
     2    1   25 1   
     3    1   45 1   
     4    2    3 1   
     5    2    5 1   
     6    2   46 1   
     7    3    4 1   
     8    3   12 1   
     9    5    6 1   
    10    5   47 1   
    11    5   48 1   
    12    6    7 1   
    13    6    8 1   
    14    7   49 1   
    15    8   10 1   
    16    8   50 1   
    17    9   11 1   
    18    9   51 1   
    19   10   52 1   
    20   11   53 1   
    21   13   14 1   
    22   13   15 1   
    23   13   54 1   
    24   14   16 1   
    25   15   18 1   
    26   15   55 1   
    27   15   56 1   
    28   17   18 1   
    29   17   19 1   
    30   17   21 1   
    31   17   58 1   
    32   18   59 1   
    33   18   60 1   
    34   19   61 1   
    35   20   21 1   
    36   20   25 1   
    37   20   62 1   
    38   21   22 1   
    39   21   63 1   
    40   22   23 1   
    41   22   26 1   
    42   24   25 1   
    43   26   27 1   
    44   26   64 1   
    45   27   28 1   
    46   27   30 1   
    47   27   65 1   
    48   28   29 1   
    49   28   34 1   
    50   30   31 1   
    51   30   66 1   
    52   30   67 1   
    53   31   32 1   
    54   31   33 1   
    55   31   68 1   
    56   32   69 1   
    57   32   70 1   
    58   32   71 1   
    59   33   72 1   
    60   33   73 1   
    61   33   74 1   
    62   34   35 1   
    63   34   75 1   
    64   35   36 1   
    65   35   38 1   
    66   35   76 1   
    67   36   37 1   
    68   36   77 1   
    69   38   39 1   
    70   38   78 1   
    71   38   79 1   
    72   39   41 1   
    73   40   42 1   
    74   40   80 1   
    75   41   81 1   
    76   42   82 1   
    77   43   44 1   
    78   43   83 1   
    79   44   84 1   
@<TRIPOS>SUBSTRUCTURE
     1 CHY         1 TEMP              0 ****  ****    0 ROOT
