@<TRIPOS>MOLECULE
CHY
   88    87     1     0     0
SMALL
bcc


@<TRIPOS>ATOM
      1 N7        330.8410  198.9210  -50.9160 n8        1 CHY     -0.173000
      2 C23       329.7230  199.1920  -50.3010 c2        1 CHY      0.170000
      3 C24       332.6370  200.1900  -47.4540 c1        1 CHY      0.452000
      4 O5        333.3030  200.5040  -46.5320 o         1 CHY     -0.224500
      5 C25       328.3580  199.0420  -50.8880 c3        1 CHY     -0.149000
      6 C26       327.4370  198.4580  -49.8740 ca        1 CHY     -0.143000
      7 C27       326.9050  199.2660  -48.8610 ca        1 CHY     -0.112500
      8 C31       327.0710  197.1100  -49.9560 ca        1 CHY     -0.112500
      9 C28       326.0180  198.7240  -47.9330 ca        1 CHY     -0.114500
     10 C30       326.1820  196.5730  -49.0260 ca        1 CHY     -0.114500
     11 C29       325.6560  197.3780  -48.0140 ca        1 CHY     -0.089000
     12 O4        331.9580  199.8710  -48.3900 o         1 CHY     -0.224500
     13 N5       -116.3860  -75.2110   15.9500 n7        1 CHY     -0.360000
     14 C21      -115.6810  -73.9990   15.7670 c2        1 CHY      0.187000
     15 C20      -117.7990  -75.2010   16.2540 c3        1 CHY     -0.047000
     16 N4       -114.6470  -73.7740   15.0000 n2        1 CHY     -0.365000
     17 C18      -117.5880  -72.7260   16.5490 c3        1 CHY     -0.054000
     18 C19      -118.2960  -73.9890   17.0460 c3        1 CHY     -0.185000
     19 N3       -116.1290  -72.8770   16.6010 n7        1 CHY     -0.296000
     20 N6       -119.4090  -71.3470   17.5240 n8        1 CHY     -0.356000
     21 C17      -118.0150  -71.4520   17.3540 c3        1 CHY      0.048000
     22 C16      -117.4040  -70.2170   16.5920 c2        1 CHY      0.194000
     23 O2       -118.0160  -69.3290   16.0240 o         1 CHY     -0.186000
     24 O3       -115.1340  -71.3900   19.1530 o         1 CHY     -0.340000
     25 C22      -114.6000  -71.7110   20.1570 c1        1 CHY      0.346000
     26 N2       -115.8910  -70.1550   16.5660 ny        1 CHY     -0.134000
     27 C11      -115.3020  -69.1380   15.6450 c3        1 CHY     -0.069000
     28 C10      -113.8530  -69.5460   15.3300 c2        1 CHY      0.235000
     29 O1       -113.0310  -69.9000   16.1620 o         1 CHY     -0.149000
     30 C12      -115.2940  -67.7220   16.2410 c3        1 CHY     -0.192000
     31 C13      -114.7530  -66.6810   15.2710 c3        1 CHY     -0.103000
     32 C14      -115.6310  -66.5260   14.0480 c3        1 CHY     -0.223500
     33 C15      -114.6340  -65.3510   15.9960 c3        1 CHY     -0.223500
     34 N1       -113.4190  -69.4930   13.9010 ny        1 CHY     -0.091000
     35 C8       -113.3040  -70.8680   13.2830 c3        1 CHY     -0.159000
     36 C9       -114.6470  -71.5780   13.1330 c2        1 CHY      0.233000
     37 O6       -115.6550  -71.1720   13.7100 o         1 CHY     -0.321000
     38 C7       -112.6010  -70.7840   11.9170 c3        1 CHY     -0.129000
     39 C4       -111.3230  -70.0310   12.0050 ca        1 CHY     -0.172000
     40 C3       -110.1350  -70.6910   12.3360 ca        1 CHY     -0.133500
     41 C5       -111.2930  -68.6620   11.6990 ca        1 CHY     -0.133500
     42 C2       -108.9300  -69.9880   12.3690 ca        1 CHY     -0.107500
     43 C6       -110.0880  -67.9650   11.7310 ca        1 CHY     -0.107500
     44 C1       -108.9050  -68.6260   12.0680 ca        1 CHY     -0.086000
     45 HN7       330.8660  198.5710  -51.8580 hn        1 CHY      0.283500
     46 H23       329.7810  199.5670  -49.2450 h4        1 CHY      0.218000
     47 H251      328.0060  200.0790  -51.1740 hc        1 CHY      0.153500
     48 H252      328.3580  198.4210  -51.8260 hc        1 CHY      0.153500
     49 H27       327.1720  200.3320  -48.8040 ha        1 CHY      0.135000
     50 H31       327.4690  196.4720  -50.7610 ha        1 CHY      0.135000
     51 H28       325.5960  199.3620  -47.1400 ha        1 CHY      0.156500
     52 H30       325.8900  195.5130  -49.0960 ha        1 CHY      0.156500
     53 H29       324.9510  196.9520  -47.2820 ha        1 CHY      0.159000
     54 H201     -118.0150  -76.1350   16.8530 h1        1 CHY      0.112500
     55 H202     -118.3940  -75.2660   15.2940 h1        1 CHY      0.112500
     56 HN41     -114.3300  -74.5580   14.4680 hn        1 CHY      0.173000
     57 H18      -117.8680  -72.5610   15.4640 h1        1 CHY      0.132000
     58 HN6      -119.7120  -70.6430   18.1610 hn        1 CHY      0.219500
     59 H17      -117.5240  -71.4570   18.3770 h1        1 CHY      0.147000
     60 HN2      -115.5550  -69.9920   17.5250 hn        1 CHY      0.288500
     61 H11      -115.9440  -69.1420   14.7060 hx        1 CHY      0.197000
     62 H121     -116.3530  -67.4480   16.5080 hc        1 CHY      0.137000
     63 H122     -114.6790  -67.7080   17.1810 hc        1 CHY      0.137000
     64 H13      -113.7180  -66.9900   14.9470 hc        1 CHY      0.055000
     65 H141     -115.6430  -67.4580   13.4310 hc        1 CHY      0.097667
     66 H142     -115.2540  -65.6890   13.4090 hc        1 CHY      0.097667
     67 H143     -116.6830  -66.2860   14.3430 hc        1 CHY      0.097667
     68 H151     -115.6380  -64.9990   16.3380 hc        1 CHY      0.097667
     69 H152     -114.2070  -64.5810   15.3090 hc        1 CHY      0.097667
     70 H153     -113.9640  -65.4440   16.8840 hc        1 CHY      0.097667
     71 HN1      -114.0820  -68.9290   13.3540 hn        1 CHY      0.278500
     72 H8       -112.6650  -71.4910   13.9890 hx        1 CHY      0.194000
     73 H9       -114.6130  -72.4790   12.4850 h4        1 CHY      0.180000
     74 H71      -113.2860  -70.3140   11.1600 hc        1 CHY      0.137500
     75 H72      -112.4060  -71.8420   11.5840 hc        1 CHY      0.137500
     76 H3       -110.1420  -71.7720   12.5510 ha        1 CHY      0.135500
     77 H5       -112.2100  -68.1480   11.3740 ha        1 CHY      0.135500
     78 H2       -107.9940  -70.5160   12.6180 ha        1 CHY      0.164500
     79 H6       -110.0640  -66.8940   11.4700 ha        1 CHY      0.164500
     80 H1       -107.9500  -68.0750   12.0800 ha        1 CHY      0.169000
     81 H191     -119.4050  -73.9080   16.9000 hc        1 CHY      0.130000
     82 H192     -118.1110  -74.1320   18.1420 hc        1 CHY      0.130000
     83 H721      331.7310  199.0520  -50.4600 hn        1 CHY      0.283500
     84 H62      -119.9580  -71.4030   16.6940 hn        1 CHY      0.219500
     85 H22      -115.5810  -71.1320   16.2770 hn        1 CHY      0.288500
     86 H12      -112.4780  -69.0520   13.8340 hn        1 CHY      0.278500
     87 HN3      -115.8250  -73.0540   17.5490 hn        1 CHY      0.198000
     88 H41      -116.0900  -75.9890   15.3990 hn        1 CHY      0.243000
@<TRIPOS>BOND
     1    1    2 1   
     2    1   45 1   
     3    1   83 1   
     4    2    5 1   
     5    2   46 1   
     6    3    4 1   
     7    3   12 1   
     8    5    6 1   
     9    5   47 1   
    10    5   48 1   
    11    6    7 1   
    12    6    8 1   
    13    7    9 1   
    14    7   49 1   
    15    8   10 1   
    16    8   50 1   
    17    9   11 1   
    18    9   51 1   
    19   10   11 1   
    20   10   52 1   
    21   11   53 1   
    22   13   14 1   
    23   13   15 1   
    24   13   88 1   
    25   14   16 1   
    26   14   19 1   
    27   15   18 1   
    28   15   54 1   
    29   15   55 1   
    30   16   56 1   
    31   17   18 1   
    32   17   19 1   
    33   17   21 1   
    34   17   57 1   
    35   18   81 1   
    36   18   82 1   
    37   19   87 1   
    38   20   21 1   
    39   20   58 1   
    40   20   84 1   
    41   21   22 1   
    42   21   59 1   
    43   22   23 1   
    44   22   26 1   
    45   24   25 1   
    46   26   27 1   
    47   26   60 1   
    48   26   85 1   
    49   27   28 1   
    50   27   30 1   
    51   27   61 1   
    52   28   29 1   
    53   28   34 1   
    54   30   31 1   
    55   30   62 1   
    56   30   63 1   
    57   31   32 1   
    58   31   33 1   
    59   31   64 1   
    60   32   65 1   
    61   32   66 1   
    62   32   67 1   
    63   33   68 1   
    64   33   69 1   
    65   33   70 1   
    66   34   35 1   
    67   34   71 1   
    68   34   86 1   
    69   35   36 1   
    70   35   38 1   
    71   35   72 1   
    72   36   37 1   
    73   36   73 1   
    74   38   39 1   
    75   38   74 1   
    76   38   75 1   
    77   39   40 1   
    78   39   41 1   
    79   40   42 1   
    80   40   76 1   
    81   41   43 1   
    82   41   77 1   
    83   42   44 1   
    84   42   78 1   
    85   43   44 1   
    86   43   79 1   
    87   44   80 1   
@<TRIPOS>SUBSTRUCTURE
     1 CHY         1 TEMP              0 ****  ****    0 ROOT
