@<TRIPOS>MOLECULE
CHZ
   26    28     1     0     0
SMALL
bcc


@<TRIPOS>ATOM
      1 OAA        -0.0010   -3.0080    0.3950 o         1 CHZ     -0.517100
      2 CAM        -0.0010   -1.7920    0.1520 c         1 CHZ      0.580300
      3 CAO         1.2630   -1.0410   -0.0070 ca        1 CHZ     -0.091600
      4 CAI         2.4490   -1.7650   -0.0850 ca        1 CHZ     -0.123000
      5 CAE         3.6730   -1.1010   -0.2380 ca        1 CHZ     -0.078000
      6 CAG         3.7110    0.2780   -0.3010 ca        1 CHZ     -0.155000
      7 CAK         2.5070    1.0230   -0.2100 ca        1 CHZ      0.202100
      8 OAC         2.7030    2.3710   -0.2820 oh        1 CHZ     -0.500100
      9 CAQ         1.2660    0.3700   -0.0720 ca        1 CHZ     -0.224600
     10 CAN         0.0000    1.1150    0.0080 c         1 CHZ      0.623300
     11 OAB         0.0000    2.3590    0.1290 o         1 CHZ     -0.612100
     12 CAR        -1.2650    0.3710   -0.0720 ca        1 CHZ     -0.224600
     13 CAP        -1.2640   -1.0400   -0.0070 ca        1 CHZ     -0.091600
     14 CAJ        -2.4490   -1.7640   -0.0860 ca        1 CHZ     -0.123000
     15 CAF        -3.6740   -1.0990   -0.2390 ca        1 CHZ     -0.078000
     16 CAH        -3.7110    0.2790   -0.3020 ca        1 CHZ     -0.155000
     17 CAL        -2.5070    1.0240   -0.2110 ca        1 CHZ      0.202100
     18 OAD        -2.7020    2.3720   -0.2830 oh        1 CHZ     -0.500100
     19 HAI         2.4170   -2.8650   -0.0230 ha        1 CHZ      0.163000
     20 HAE         4.6050   -1.6840   -0.3040 ha        1 CHZ      0.146000
     21 HAG         4.6580    0.8260   -0.4170 ha        1 CHZ      0.161000
     22 HOAC        1.8670    2.8530   -0.1760 ho        1 CHZ      0.462000
     23 HAJ        -2.4180   -2.8640   -0.0240 ha        1 CHZ      0.163000
     24 HAF        -4.6060   -1.6820   -0.3060 ha        1 CHZ      0.146000
     25 HAH        -4.6570    0.8280   -0.4190 ha        1 CHZ      0.161000
     26 HOAD       -1.8650    2.8530   -0.1770 ho        1 CHZ      0.462000
@<TRIPOS>BOND
     1    1    2 2   
     2    2    3 1   
     3    2   13 1   
     4    3    4 ar  
     5    3    9 ar  
     6    4    5 ar  
     7    4   19 1   
     8    5    6 ar  
     9    5   20 1   
    10    6    7 ar  
    11    6   21 1   
    12    7    8 1   
    13    7    9 ar  
    14    8   22 1   
    15    9   10 1   
    16   10   11 2   
    17   10   12 1   
    18   12   13 ar  
    19   12   17 ar  
    20   13   14 ar  
    21   14   15 ar  
    22   14   23 1   
    23   15   16 ar  
    24   15   24 1   
    25   16   17 ar  
    26   16   25 1   
    27   17   18 1   
    28   18   26 1   
@<TRIPOS>SUBSTRUCTURE
     1 CHZ         1 TEMP              0 ****  ****    0 ROOT
