@<TRIPOS>MOLECULE
CHZ
   26    23     1     0     0
SMALL
bcc


@<TRIPOS>ATOM
      1 OAA        -2.9460    0.0280    0.0000 o         1 CHZ     -0.277000
      2 CAM        -1.7310    0.0280    0.0000 c1        1 CHZ      0.304000
      3 CAO        -0.9640    0.0280    1.3280 c1        1 CHZ     -0.081000
      4 CAI        -1.6650    0.0280    2.5430 c2        1 CHZ     -0.123000
      5 CAE        -0.9700    0.0280    3.7450 c1        1 CHZ     -0.081000
      6 CAG         0.4220    0.0280    3.7450 c1        1 CHZ     -0.203000
      7 CAK         1.1170    0.0280    2.5420 c1        1 CHZ      0.121000
      8 OAC         2.5160    0.1520    2.6280 o         1 CHZ     -0.216000
      9 CAQ         0.4160    0.0280    1.3270 c2        1 CHZ     -0.135000
     10 CAN         1.1820    0.0280   -0.0010 c2        1 CHZ      0.314000
     11 OAB         2.3960    0.0410   -0.0010 o         1 CHZ     -0.233000
     12 CAR         0.4150    0.0280   -1.3280 c2        1 CHZ     -0.135000
     13 CAP        -0.9650    0.0280   -1.3270 c2        1 CHZ     -0.081000
     14 CAJ        -1.6650    0.0280   -2.5430 c1        1 CHZ     -0.123000
     15 CAF        -0.9700    0.0280   -3.7450 c1        1 CHZ     -0.142000
     16 CAH         0.4210    0.0280   -3.7450 c1        1 CHZ     -0.142000
     17 CAL         1.1150    0.0280   -2.5430 c1        1 CHZ      0.121000
     18 OAD         2.5000    0.2590   -2.6290 oh        1 CHZ     -0.216000
     19 HAI        -2.6410    0.0280    2.5430 ha        1 CHZ      0.160000
     20 HAE        -1.4580    0.0280    4.5910 ha        1 CHZ      0.142000
     21 HAG         0.9100    0.0280    4.5910 ha        1 CHZ      0.141000
     22 HOAC        2.8570   -0.5830    2.9900 ho        1 CHZ      0.220000
     23 HAJ        -2.6410    0.0280   -2.5430 ha        1 CHZ      0.160000
     24 HAF        -1.4580    0.0280   -4.5910 ha        1 CHZ      0.141500
     25 HAH         0.9100    0.0280   -4.5900 ha        1 CHZ      0.141500
     26 HOAD        2.8970   -0.4490   -2.9870 ho        1 CHZ      0.220000
@<TRIPOS>BOND
     1    1    2 1   
     2    2   13 1   
     3    3    4 1   
     4    3    9 1   
     5    4    5 1   
     6    4   19 1   
     7    5   20 1   
     8    6    7 1   
     9    6   21 1   
    10    7    9 1   
    11    8   22 1   
    12    9   10 1   
    13   10   11 1   
    14   10   12 1   
    15   12   13 1   
    16   12   17 1   
    17   13   14 1   
    18   14   23 1   
    19   15   16 1   
    20   15   24 1   
    21   16   25 1   
    22   17   18 1   
    23   18   26 1   
@<TRIPOS>SUBSTRUCTURE
     1 CHZ         1 TEMP              0 ****  ****    0 ROOT
