@<TRIPOS>MOLECULE
CI1
   55    57     1     0     0
SMALL
bcc


@<TRIPOS>ATOM
      1 O32        -0.0230   -0.5090    0.5170 o         1 CI1     -0.641300
      2 S30         1.3580   -0.3280    0.3220 s6        1 CI1      1.454900
      3 O31         2.2340   -0.6740    1.3680 o         1 CI1     -0.641300
      4 CP          1.8080   -1.3530   -1.0440 c3        1 CI1     -0.241300
      5 CGB         1.6080   -2.7990   -0.8020 ca        1 CI1     -0.047300
      6 CD2         0.6850   -3.5250   -1.5650 ca        1 CI1     -0.119500
      7 CE2         0.5240   -4.8940   -1.3570 ca        1 CI1     -0.131000
      8 CZ          1.2840   -5.5500   -0.3900 ca        1 CI1     -0.135000
      9 CE1         2.2030   -4.8310    0.3750 ca        1 CI1     -0.131000
     10 CD1         2.3670   -3.4630    0.1720 ca        1 CI1     -0.119500
     11 NJ          1.6850    1.1280   -0.3080 n3        1 CI1     -0.807500
     12 CI          0.7950    1.7340   -1.2640 c3        1 CI1      0.225800
     13 CK          0.5270    3.2170   -1.0210 c3        1 CI1     -0.088400
     14 CG          1.8270    3.9720   -0.8570 c3        1 CI1     -0.067400
     15 CH          2.8610    1.8760    0.0570 c3        1 CI1      0.235800
     16 CF          2.6530    3.3890    0.2910 c3        1 CI1     -0.150000
     17 CB          1.9210    3.6420    1.6200 c         1 CI1      0.593300
     18 O13         1.5390    2.6700    2.2900 o         1 CI1     -0.574100
     19 CM          1.7300    5.0300    1.9690 ce        1 CI1     -0.408200
     20 CA          1.1330    5.5220    3.0860 cf        1 CI1      0.120900
     21 O14         0.6430    4.7050    4.0500 oh        1 CI1     -0.492100
     22 CE          0.9760    7.0310    3.3500 c         1 CI1      0.881800
     23 OAN         0.4040    7.3120    4.4420 o         1 CI1     -0.800300
     24 OAO         1.4090    7.8460    2.5010 o         1 CI1     -0.800300
     25 CO          4.0300    4.0630    0.2890 c3        1 CI1     -0.029100
     26 CGA         5.0110    3.4870    1.2500 ca        1 CI1     -0.074300
     27 CDB         6.1020    2.7420    0.7850 ca        1 CI1     -0.114000
     28 CEB         7.0540    2.2460    1.6720 ca        1 CI1     -0.125000
     29 CDA         4.8830    3.7280    2.6240 ca        1 CI1     -0.114000
     30 CEA         5.8280    3.2350    3.5210 ca        1 CI1     -0.125000
     31 CZB         6.9140    2.4980    3.0390 ca        1 CI1      0.013400
     32 CL          8.0810    1.8980    4.1290 cl        1 CI1     -0.121400
     33 HP1C        1.2320   -1.0460   -1.9560 h1        1 CI1      0.098200
     34 HP2C        2.8910   -1.1920   -1.2930 h1        1 CI1      0.098200
     35 HD2         0.0780   -3.0120   -2.3250 ha        1 CI1      0.144500
     36 HD1         3.0760   -2.8900    0.7930 ha        1 CI1      0.144500
     37 HE2        -0.2070   -5.4550   -1.9560 ha        1 CI1      0.127000
     38 HZ          1.1550   -6.6300   -0.2260 ha        1 CI1      0.123000
     39 HE1         2.7970   -5.3430    1.1460 ha        1 CI1      0.127000
     40 HI1C       -0.1900    1.1800   -1.2410 h1        1 CI1      0.037700
     41 HI2C        1.2390    1.6150   -2.2970 h1        1 CI1      0.037700
     42 HH1C        3.6250    1.7600   -0.7680 h1        1 CI1      0.056200
     43 HH2C        3.2850    1.4380    1.0090 h1        1 CI1      0.056200
     44 HK1C       -0.0480    3.6210   -1.8930 hc        1 CI1      0.060200
     45 HK2C       -0.1000    3.3450   -0.0990 hc        1 CI1      0.060200
     46 HG1C        2.4210    3.9070   -1.8070 hc        1 CI1      0.049200
     47 HG2C        1.6130    5.0550   -0.6600 hc        1 CI1      0.049200
     48 HO1C        3.8930    5.1540    0.5260 hc        1 CI1      0.058700
     49 HO2C        4.4510    4.0000   -0.7520 hc        1 CI1      0.058700
     50 HM          2.0870    5.7950    1.2590 ha        1 CI1      0.153000
     51 H14         0.2630    5.2790    4.7490 ho        1 CI1      0.450000
     52 HDB         6.2100    2.5440   -0.2920 ha        1 CI1      0.150000
     53 HDA         4.0160    4.3050    2.9940 ha        1 CI1      0.150000
     54 HEB         7.9060    1.6610    1.2980 ha        1 CI1      0.142000
     55 HEA         5.7130    3.4240    4.5980 ha        1 CI1      0.142000
@<TRIPOS>BOND
     1    1    2 2   
     2    2    3 2   
     3    2    4 1   
     4    2   11 1   
     5    4    5 1   
     6    4   33 1   
     7    4   34 1   
     8    5    6 ar  
     9    5   10 ar  
    10    6    7 ar  
    11    6   35 1   
    12    7    8 ar  
    13    7   37 1   
    14    8    9 ar  
    15    8   38 1   
    16    9   10 ar  
    17    9   39 1   
    18   10   36 1   
    19   11   12 1   
    20   11   15 1   
    21   12   13 1   
    22   12   40 1   
    23   12   41 1   
    24   13   14 1   
    25   13   44 1   
    26   13   45 1   
    27   14   16 1   
    28   14   46 1   
    29   14   47 1   
    30   15   16 1   
    31   15   42 1   
    32   15   43 1   
    33   16   17 1   
    34   16   25 1   
    35   17   18 2   
    36   17   19 1   
    37   19   20 2   
    38   19   50 1   
    39   20   21 1   
    40   20   22 1   
    41   21   51 1   
    42   22   23 1   
    43   22   24 1   
    44   25   26 1   
    45   25   48 1   
    46   25   49 1   
    47   26   27 ar  
    48   26   29 ar  
    49   27   28 ar  
    50   27   52 1   
    51   28   31 ar  
    52   28   54 1   
    53   29   30 ar  
    54   29   53 1   
    55   30   31 ar  
    56   30   55 1   
    57   31   32 1   
@<TRIPOS>SUBSTRUCTURE
     1 CI1         1 TEMP              0 ****  ****    0 ROOT
