@<TRIPOS>MOLECULE
CI1
   55    57     1     0     0
SMALL
bcc


@<TRIPOS>ATOM
      1 O32        -0.0260   -0.5060    0.5020 o         1 CI1     -0.641300
      2 S30         1.3580   -0.3270    0.3200 s6        1 CI1      1.454900
      3 O31         2.2230   -0.6690    1.3760 o         1 CI1     -0.641300
      4 CP          1.8200   -1.3580   -1.0360 c3        1 CI1     -0.241300
      5 CGB         1.6170   -2.8030   -0.7900 ca        1 CI1     -0.047300
      6 CD2         0.7010   -3.5330   -1.5580 ca        1 CI1     -0.119500
      7 CE2         0.5370   -4.9010   -1.3450 ca        1 CI1     -0.131000
      8 CZ          1.2880   -5.5530   -0.3680 ca        1 CI1     -0.135000
      9 CE1         2.2000   -4.8310    0.4020 ca        1 CI1     -0.131000
     10 CD1         2.3670   -3.4640    0.1940 ca        1 CI1     -0.119500
     11 NJ          1.6920    1.1250   -0.3130 n3        1 CI1     -0.807500
     12 CI          0.8100    1.7280   -1.2800 c3        1 CI1      0.225800
     13 CK          0.5430    3.2130   -1.0460 c3        1 CI1     -0.088400
     14 CG          1.8420    3.9660   -0.8740 c3        1 CI1     -0.067400
     15 CH          2.8650    1.8740    0.0580 c3        1 CI1      0.235800
     16 CF          2.6580    3.3880    0.2840 c3        1 CI1     -0.150000
     17 CB          1.9140    3.6480    1.6050 c         1 CI1      0.593300
     18 O13         1.5250    2.6790    2.2760 o         1 CI1     -0.574100
     19 CM          1.7220    5.0380    1.9460 ce        1 CI1     -0.408200
     20 CA          1.1170    5.5370    3.0560 cf        1 CI1      0.120900
     21 O14         0.6190    4.7240    4.0200 oh        1 CI1     -0.492100
     22 CE          0.9590    7.0470    3.3110 c         1 CI1      0.881800
     23 OAN         0.3790    7.3330    4.3970 o         1 CI1     -0.800300
     24 OAO         1.4000    7.8570    2.4620 o         1 CI1     -0.800300
     25 CO          4.0350    4.0610    0.2910 c3        1 CI1     -0.029100
     26 CGA         5.0080    3.4850    1.2610 ca        1 CI1     -0.074300
     27 CDB         6.1030    2.7410    0.8070 ca        1 CI1     -0.114000
     28 CEB         7.0470    2.2460    1.7040 ca        1 CI1     -0.125000
     29 CDA         4.8670    3.7270    2.6350 ca        1 CI1     -0.114000
     30 CEA         5.8040    3.2350    3.5400 ca        1 CI1     -0.125000
     31 CZB         6.8940    2.4980    3.0700 ca        1 CI1      0.013400
     32 CL          8.0510    1.8990    4.1700 cl        1 CI1     -0.121400
     33 HP1C        1.2530   -1.0560   -1.9550 h1        1 CI1      0.098200
     34 HP2C        2.9060   -1.1990   -1.2760 h1        1 CI1      0.098200
     35 HD2         0.1020   -3.0230   -2.3270 ha        1 CI1      0.144500
     36 HD1         3.0700   -2.8880    0.8190 ha        1 CI1      0.144500
     37 HE2        -0.1890   -5.4640   -1.9490 ha        1 CI1      0.127000
     38 HZ          1.1570   -6.6310   -0.2000 ha        1 CI1      0.123000
     39 HE1         2.7860   -5.3380    1.1820 ha        1 CI1      0.127000
     40 HI1C       -0.1750    1.1760   -1.2620 h1        1 CI1      0.037200
     41 HI2C        1.2640    1.6040   -2.3080 h1        1 CI1      0.037200
     42 HH1C        3.2800    1.4390    1.0170 h1        1 CI1      0.056200
     43 HH2C        3.6370    1.7530   -0.7590 h1        1 CI1      0.056200
     44 HK1C       -0.0920    3.3470   -0.1300 hc        1 CI1      0.060200
     45 HK2C       -0.0240    3.6140   -1.9250 hc        1 CI1      0.060200
     46 HG1C        2.4450    3.8970   -1.8180 hc        1 CI1      0.049200
     47 HG2C        1.6290    5.0510   -0.6840 hc        1 CI1      0.049200
     48 HO1C        4.4640    3.9940   -0.7460 hc        1 CI1      0.058700
     49 HO2C        3.8980    5.1520    0.5250 hc        1 CI1      0.058700
     50 HM          2.0850    5.8000    1.2360 ha        1 CI1      0.153000
     51 H14         0.2330    5.3010    4.7140 ho        1 CI1      0.450000
     52 HDB         6.2220    2.5420   -0.2680 ha        1 CI1      0.150000
     53 HDA         3.9960    4.3040    2.9950 ha        1 CI1      0.150000
     54 HEB         7.9030    1.6610    1.3370 ha        1 CI1      0.142000
     55 HEA         5.6790    3.4250    4.6170 ha        1 CI1      0.142000
@<TRIPOS>BOND
     1    1    2 2   
     2    2    3 2   
     3    2    4 1   
     4    2   11 1   
     5    4    5 1   
     6    4   33 1   
     7    4   34 1   
     8    5    6 ar  
     9    5   10 ar  
    10    6    7 ar  
    11    6   35 1   
    12    7    8 ar  
    13    7   37 1   
    14    8    9 ar  
    15    8   38 1   
    16    9   10 ar  
    17    9   39 1   
    18   10   36 1   
    19   11   12 1   
    20   11   15 1   
    21   12   13 1   
    22   12   40 1   
    23   12   41 1   
    24   13   14 1   
    25   13   44 1   
    26   13   45 1   
    27   14   16 1   
    28   14   46 1   
    29   14   47 1   
    30   15   16 1   
    31   15   42 1   
    32   15   43 1   
    33   16   17 1   
    34   16   25 1   
    35   17   18 2   
    36   17   19 1   
    37   19   20 2   
    38   19   50 1   
    39   20   21 1   
    40   20   22 1   
    41   21   51 1   
    42   22   23 1   
    43   22   24 1   
    44   25   26 1   
    45   25   48 1   
    46   25   49 1   
    47   26   27 ar  
    48   26   29 ar  
    49   27   28 ar  
    50   27   52 1   
    51   28   31 ar  
    52   28   54 1   
    53   29   30 ar  
    54   29   53 1   
    55   30   31 ar  
    56   30   55 1   
    57   31   32 1   
@<TRIPOS>SUBSTRUCTURE
     1 CI1         1 TEMP              0 ****  ****    0 ROOT
