@<TRIPOS>MOLECULE
CI1
   55    50     1     0     0
SMALL
bcc


@<TRIPOS>ATOM
      1 O32        -1.7900   -1.5820    0.4970 o         1 CI1     -0.922000
      2 S30        -0.4810   -2.0120    0.0910 ss        1 CI1      2.811000
      3 O31         0.1490   -2.2240    1.3610 o         1 CI1     -0.922000
      4 CP         -0.5590   -3.5190   -0.8510 c2        1 CI1     -0.789000
      5 CGB        -1.6880   -4.3800   -0.3340 c2        1 CI1     -0.041000
      6 CD2        -2.9920   -4.1200   -0.7340 c1        1 CI1     -0.123000
      7 CE2        -4.0040   -5.0100   -0.4170 c1        1 CI1     -0.131500
      8 CZ         -3.7170   -6.1600    0.2990 c1        1 CI1     -0.131500
      9 CE1        -2.4160   -6.4210    0.6990 c1        1 CI1     -0.134000
     10 CD1        -1.4020   -5.5320    0.3830 c2        1 CI1     -0.115000
     11 NJ          0.2890   -0.8460   -0.7700 n2        1 CI1     -0.827000
     12 CI         -0.4100   -0.1300   -1.7930 c3        1 CI1     -0.009000
     13 CK         -0.8800    1.2100   -1.3550 c3        1 CI1     -0.166000
     14 CG          0.1900    2.0220   -0.7530 c3        1 CI1     -0.147000
     15 CH          1.3690   -0.0770   -0.1580 c3        1 CI1     -0.005000
     16 CF          0.9130    1.3080    0.3540 c3        1 CI1     -0.099000
     17 CB          0.0920    1.2160    1.6100 c2        1 CI1      0.286000
     18 O13         0.0380    0.1700    2.2230 o         1 CI1     -0.339000
     19 CM         -0.6540    2.4310    2.1170 c2        1 CI1     -0.384000
     20 CA         -1.5260    2.3080    3.1310 c1        1 CI1      0.100000
     21 O14        -1.7440    1.0530    3.7200 o         1 CI1     -0.247000
     22 CE         -2.2730    3.5240    3.6390 c2        1 CI1      0.333000
     23 OAN        -1.7350    4.2850    4.4870 o         1 CI1     -0.536000
     24 OAO        -3.4410    3.7600    3.2330 o         1 CI1     -0.536000
     25 CO          2.1050    2.1270    0.8410 c3        1 CI1     -0.126000
     26 CGA         2.8520    2.6930   -0.3530 c2        1 CI1     -0.052000
     27 CDB         2.5330    3.9540   -0.8360 c2        1 CI1     -0.118000
     28 CEB         3.1870    4.4550   -1.9490 c1        1 CI1     -0.126000
     29 CDA         3.8260    1.9340   -0.9850 c1        1 CI1     -0.126000
     30 CEA         4.4800    2.4350   -2.1000 c1        1 CI1     -0.128000
     31 CZB         4.1620    3.6960   -2.5820 c1        1 CI1     -0.071000
     32 CL          4.9520    4.3080   -4.0110 cl        1 CI1     -0.040000
     33 HP1C       -0.7160   -3.3060   -1.7940 ha        1 CI1      0.138500
     34 HP2C        0.2860   -4.0030   -0.7620 ha        1 CI1      0.138500
     35 HD2        -3.1950   -3.3090   -1.2390 ha        1 CI1      0.160000
     36 HD1        -0.4860   -5.7170    0.6650 ha        1 CI1      0.130000
     37 HE2        -4.9190   -4.8270   -0.6980 ha        1 CI1      0.126000
     38 HZ         -4.4310   -6.7880    0.5220 ha        1 CI1      0.126000
     39 HE1        -2.2140   -7.2310    1.2020 ha        1 CI1      0.124000
     40 HI1C       -1.1840   -0.6580   -2.0730 h1        1 CI1      0.075500
     41 HI2C        0.1880   -0.0180   -2.5610 h1        1 CI1      0.075500
     42 HH1C        2.0760    0.0510   -0.8200 h1        1 CI1      0.096000
     43 HH2C        1.7320   -0.5870    0.5940 h1        1 CI1      0.096000
     44 HK1C       -1.2380    1.6860   -2.1280 hc        1 CI1      0.099500
     45 HK2C       -1.5950    1.0930   -0.6970 hc        1 CI1      0.099500
     46 HG1C        0.8350    2.2590   -1.4490 hc        1 CI1      0.091000
     47 HG2C       -0.2030    2.8440   -0.3940 hc        1 CI1      0.091000
     48 HO1C        1.7880    2.8610    1.4060 hc        1 CI1      0.111500
     49 HO2C        2.7050    1.5530    1.3590 hc        1 CI1      0.111500
     50 HM         -0.5020    3.3050    1.7060 ha        1 CI1      0.152000
     51 H14        -2.4240    1.1080    4.2920 ho        1 CI1      0.249000
     52 HDB         1.8660    4.4990   -0.3770 ha        1 CI1      0.149000
     53 HDA         4.0780    1.0660   -0.6220 ha        1 CI1      0.140000
     54 HEB         2.9630    5.3410   -2.2890 ha        1 CI1      0.142000
     55 HEA         5.1650    1.9010   -2.5440 ha        1 CI1      0.140000
@<TRIPOS>BOND
     1    1    2 1   
     2    2    3 1   
     3    4    5 1   
     4    4   33 1   
     5    4   34 1   
     6    5    6 1   
     7    5   10 1   
     8    6   35 1   
     9    7    8 1   
    10    7   37 1   
    11    8   38 1   
    12    9   10 1   
    13    9   39 1   
    14   10   36 1   
    15   11   12 1   
    16   11   15 1   
    17   12   13 1   
    18   12   40 1   
    19   12   41 1   
    20   13   14 1   
    21   13   44 1   
    22   13   45 1   
    23   14   16 1   
    24   14   46 1   
    25   14   47 1   
    26   15   16 1   
    27   15   42 1   
    28   15   43 1   
    29   16   17 1   
    30   16   25 1   
    31   17   18 1   
    32   17   19 1   
    33   19   20 1   
    34   19   50 1   
    35   20   22 1   
    36   21   51 1   
    37   22   23 1   
    38   22   24 1   
    39   25   26 1   
    40   25   48 1   
    41   25   49 1   
    42   26   27 1   
    43   26   29 1   
    44   27   28 1   
    45   27   52 1   
    46   28   54 1   
    47   29   53 1   
    48   30   31 1   
    49   30   55 1   
    50   31   32 1   
@<TRIPOS>SUBSTRUCTURE
     1 CI1         1 TEMP              0 ****  ****    0 ROOT
