@<TRIPOS>MOLECULE
CI1
   55    57     1     0     0
SMALL
bcc


@<TRIPOS>ATOM
      1 O32        -0.0280   -0.5030    0.4870 o         1 CI1     -0.641300
      2 S30         1.3570   -0.3250    0.3100 s6        1 CI1      1.454900
      3 O31         2.2180   -0.6710    1.3680 o         1 CI1     -0.641300
      4 CP          1.8220   -1.3530   -1.0480 c3        1 CI1     -0.241300
      5 CGB         1.6170   -2.7980   -0.8060 ca        1 CI1     -0.047300
      6 CD2         0.7030   -3.5250   -1.5780 ca        1 CI1     -0.119500
      7 CE2         0.5380   -4.8930   -1.3700 ca        1 CI1     -0.131000
      8 CZ          1.2850   -5.5490   -0.3920 ca        1 CI1     -0.135000
      9 CE1         2.1960   -4.8300    0.3820 ca        1 CI1     -0.131000
     10 CD1         2.3640   -3.4620    0.1780 ca        1 CI1     -0.119500
     11 NJ          1.6950    1.1290   -0.3180 n3        1 CI1     -0.807500
     12 CI          0.8170    1.7360   -1.2860 c3        1 CI1      0.225800
     13 CK          0.5510    3.2200   -1.0480 c3        1 CI1     -0.088400
     14 CG          1.8500    3.9720   -0.8690 c3        1 CI1     -0.067400
     15 CH          2.8680    1.8750    0.0600 c3        1 CI1      0.235800
     16 CF          2.6610    3.3890    0.2900 c3        1 CI1     -0.150000
     17 CB          1.9130    3.6460    1.6090 c         1 CI1      0.593300
     18 O13         1.5210    2.6750    2.2760 o         1 CI1     -0.574100
     19 CM          1.7220    5.0340    1.9530 ce        1 CI1     -0.408200
     20 CA          1.1130    5.5300    3.0620 cf        1 CI1      0.120900
     21 O14         0.6090    4.7150    4.0210 oh        1 CI1     -0.492100
     22 CE          0.9560    7.0400    3.3220 c         1 CI1      0.881800
     23 OAN         0.3710    7.3240    4.4060 o         1 CI1     -0.800300
     24 OAO         1.4030    7.8520    2.4780 o         1 CI1     -0.800300
     25 CO          4.0400    4.0590    0.3040 c3        1 CI1     -0.029100
     26 CGA         5.0080    3.4810    1.2760 ca        1 CI1     -0.074300
     27 CDB         6.1020    2.7340    0.8250 ca        1 CI1     -0.114000
     28 CEB         7.0430    2.2360    1.7250 ca        1 CI1     -0.125000
     29 CDA         4.8630    3.7230    2.6490 ca        1 CI1     -0.114000
     30 CEA         5.7950    3.2270    3.5570 ca        1 CI1     -0.125000
     31 CZB         6.8860    2.4880    3.0900 ca        1 CI1      0.013400
     32 Cl          8.0380    1.8860    4.1940 cl        1 CI1     -0.121400
     33 HP1C        2.9080   -1.1940   -1.2840 h1        1 CI1      0.098200
     34 HP2C        1.2570   -1.0470   -1.9670 h1        1 CI1      0.098200
     35 HD2         0.1050   -3.0130   -2.3470 ha        1 CI1      0.144500
     36 HD1         3.0670   -2.8880    0.8060 ha        1 CI1      0.144500
     37 HE2        -0.1880   -5.4540   -1.9770 ha        1 CI1      0.127000
     38 HZ          1.1530   -6.6270   -0.2280 ha        1 CI1      0.123000
     39 HE1         2.7800   -5.3400    1.1610 ha        1 CI1      0.127000
     40 HI1C        1.2740    1.6140   -2.3130 h1        1 CI1      0.037200
     41 HI2C       -0.1690    1.1850   -1.2730 h1        1 CI1      0.037200
     42 HH1C        3.2790    1.4370    1.0180 h1        1 CI1      0.056200
     43 HH2C        3.6420    1.7560   -0.7550 h1        1 CI1      0.056200
     44 HK1C       -0.0130    3.6240   -1.9270 hc        1 CI1      0.060200
     45 HK2C       -0.0870    3.3520   -0.1340 hc        1 CI1      0.060200
     46 HG1C        2.4560    3.9040   -1.8120 hc        1 CI1      0.049200
     47 HG2C        1.6370    5.0560   -0.6770 hc        1 CI1      0.049200
     48 HO1C        4.4730    3.9940   -0.7320 hc        1 CI1      0.058700
     49 HO2C        3.9030    5.1510    0.5380 hc        1 CI1      0.058700
     50 HM          2.0900    5.7980    1.2470 ha        1 CI1      0.153000
     51 H14         0.2210    5.2920    4.7150 ho        1 CI1      0.450000
     52 HDB         6.2240    2.5360   -0.2500 ha        1 CI1      0.150000
     53 HDA         3.9920    4.3010    3.0080 ha        1 CI1      0.150000
     54 HEB         7.8980    1.6500    1.3610 ha        1 CI1      0.142000
     55 HEA         5.6680    3.4170    4.6340 ha        1 CI1      0.142000
@<TRIPOS>BOND
     1    1    2 2   
     2    2    3 2   
     3    2    4 1   
     4    2   11 1   
     5    4    5 1   
     6    4   33 1   
     7    4   34 1   
     8    5    6 ar  
     9    5   10 ar  
    10    6    7 ar  
    11    6   35 1   
    12    7    8 ar  
    13    7   37 1   
    14    8    9 ar  
    15    8   38 1   
    16    9   10 ar  
    17    9   39 1   
    18   10   36 1   
    19   11   12 1   
    20   11   15 1   
    21   12   13 1   
    22   12   40 1   
    23   12   41 1   
    24   13   14 1   
    25   13   44 1   
    26   13   45 1   
    27   14   16 1   
    28   14   46 1   
    29   14   47 1   
    30   15   16 1   
    31   15   42 1   
    32   15   43 1   
    33   16   17 1   
    34   16   25 1   
    35   17   18 2   
    36   17   19 1   
    37   19   20 2   
    38   19   50 1   
    39   20   21 1   
    40   20   22 1   
    41   21   51 1   
    42   22   23 1   
    43   22   24 1   
    44   25   26 1   
    45   25   48 1   
    46   25   49 1   
    47   26   27 ar  
    48   26   29 ar  
    49   27   28 ar  
    50   27   52 1   
    51   28   31 ar  
    52   28   54 1   
    53   29   30 ar  
    54   29   53 1   
    55   30   31 ar  
    56   30   55 1   
    57   31   32 1   
@<TRIPOS>SUBSTRUCTURE
     1 CI1         1 TEMP              0 ****  ****    0 ROOT
