@<TRIPOS>MOLECULE
CI1
   55    57     1     0     0
SMALL
bcc


@<TRIPOS>ATOM
      1 O32        -2.6710   -2.0070   -1.0100 o         1 CI1     -0.641300
      2 S30        -2.3450   -0.8580   -0.2670 s6        1 CI1      1.454900
      3 O31        -2.1220    0.3470   -0.9580 o         1 CI1     -0.641300
      4 CP         -3.7130   -0.5530    0.8070 c3        1 CI1     -0.241300
      5 CGB        -4.9760   -0.2460    0.1000 ca        1 CI1     -0.047300
      6 CD2        -6.0790   -1.1000    0.2120 ca        1 CI1     -0.119500
      7 CE2        -7.2780   -0.7900   -0.4280 ca        1 CI1     -0.131000
      8 CZ         -7.3870    0.3770   -1.1840 ca        1 CI1     -0.135000
      9 CE1        -6.2900    1.2300   -1.3030 ca        1 CI1     -0.131000
     10 CD1        -5.0900    0.9240   -0.6650 ca        1 CI1     -0.119500
     11 NJ         -1.1970   -1.1670    0.8330 n3        1 CI1     -0.807500
     12 CI         -1.1510   -2.4350    1.5140 c3        1 CI1      0.225800
     13 CK          0.2480   -3.0350    1.6310 c3        1 CI1     -0.088400
     14 CG          1.2160   -2.0210    2.1960 c3        1 CI1     -0.067400
     15 CH         -0.1800   -0.2050    1.1730 c3        1 CI1      0.235800
     16 CF          1.2530   -0.7610    1.3280 c3        1 CI1     -0.150000
     17 CB          1.8560   -1.1100   -0.0430 c         1 CI1      0.593300
     18 O13         1.1550   -0.9790   -1.0590 o         1 CI1     -0.574100
     19 CM          3.2210   -1.5810   -0.0190 ce        1 CI1     -0.408200
     20 CA          3.9870   -1.9370   -1.0840 cf        1 CI1      0.120900
     21 O14         3.5190   -1.8610   -2.3530 oh        1 CI1     -0.492100
     22 CE          5.4360   -2.4380   -0.9360 c         1 CI1      0.881800
     23 OAN         6.0030   -2.7170   -2.0310 o         1 CI1     -0.800300
     24 OAO         5.9340   -2.5300    0.2100 o         1 CI1     -0.800300
     25 CO          2.0990    0.2980    2.0440 c3        1 CI1     -0.029100
     26 CGA         2.0950    1.6410    1.4030 ca        1 CI1     -0.074300
     27 CDB         1.4280    2.7120    2.0100 ca        1 CI1     -0.114000
     28 CEB         1.4650    3.9860    1.4450 ca        1 CI1     -0.125000
     29 CDA         2.8020    1.8620    0.2130 ca        1 CI1     -0.114000
     30 CEA         2.8430    3.1300   -0.3620 ca        1 CI1     -0.125000
     31 CZB         2.1760    4.1890    0.2600 ca        1 CI1      0.013400
     32 CL          2.2300    5.7470   -0.4320 cl        1 CI1     -0.121400
     33 HP1C       -3.8710   -1.4350    1.4820 h1        1 CI1      0.098200
     34 HP2C       -3.4760    0.3140    1.4800 h1        1 CI1      0.098200
     35 HD2        -5.9980   -2.0250    0.8020 ha        1 CI1      0.144500
     36 HD1        -4.2150    1.5870   -0.7780 ha        1 CI1      0.144500
     37 HE2        -8.1370   -1.4700   -0.3390 ha        1 CI1      0.127000
     38 HZ         -8.3320    0.6200   -1.6900 ha        1 CI1      0.123000
     39 HE1        -6.3670    2.1470   -1.9060 ha        1 CI1      0.127000
     40 HI1C       -1.5700   -2.3000    2.5560 h1        1 CI1      0.037200
     41 HI2C       -1.8120   -3.1650    0.9620 h1        1 CI1      0.037200
     42 HH1C       -0.1530    0.5890    0.3670 h1        1 CI1      0.056200
     43 HH2C       -0.4650    0.2820    2.1530 h1        1 CI1      0.056200
     44 HK1C        0.1940   -3.9330    2.2980 hc        1 CI1      0.060200
     45 HK2C        0.6040   -3.3720    0.6210 hc        1 CI1      0.060200
     46 HG1C        0.9030   -1.7400    3.2360 hc        1 CI1      0.049200
     47 HG2C        2.2420   -2.4700    2.2560 hc        1 CI1      0.049200
     48 HO1C        1.7250    0.3910    3.1000 hc        1 CI1      0.058700
     49 HO2C        3.1600   -0.0710    2.0990 hc        1 CI1      0.058700
     50 HM          3.7140   -1.6880    0.9620 ha        1 CI1      0.153000
     51 H14         4.2400   -2.1670   -2.9450 ho        1 CI1      0.450000
     52 HDB         0.8680    2.5510    2.9420 ha        1 CI1      0.150000
     53 HDA         3.3180    1.0140   -0.2740 ha        1 CI1      0.150000
     54 HEB         0.9370    4.8200    1.9280 ha        1 CI1      0.142000
     55 HEA         3.3950    3.2890   -1.3010 ha        1 CI1      0.142000
@<TRIPOS>BOND
     1    1    2 2   
     2    2    3 2   
     3    2    4 1   
     4    2   11 1   
     5    4    5 1   
     6    4   33 1   
     7    4   34 1   
     8    5    6 ar  
     9    5   10 ar  
    10    6    7 ar  
    11    6   35 1   
    12    7    8 ar  
    13    7   37 1   
    14    8    9 ar  
    15    8   38 1   
    16    9   10 ar  
    17    9   39 1   
    18   10   36 1   
    19   11   12 1   
    20   11   15 1   
    21   12   13 1   
    22   12   40 1   
    23   12   41 1   
    24   13   14 1   
    25   13   44 1   
    26   13   45 1   
    27   14   16 1   
    28   14   46 1   
    29   14   47 1   
    30   15   16 1   
    31   15   42 1   
    32   15   43 1   
    33   16   17 1   
    34   16   25 1   
    35   17   18 2   
    36   17   19 1   
    37   19   20 2   
    38   19   50 1   
    39   20   21 1   
    40   20   22 1   
    41   21   51 1   
    42   22   23 1   
    43   22   24 1   
    44   25   26 1   
    45   25   48 1   
    46   25   49 1   
    47   26   27 ar  
    48   26   29 ar  
    49   27   28 ar  
    50   27   52 1   
    51   28   31 ar  
    52   28   54 1   
    53   29   30 ar  
    54   29   53 1   
    55   30   31 ar  
    56   30   55 1   
    57   31   32 1   
@<TRIPOS>SUBSTRUCTURE
     1 CI1         1 TEMP              0 ****  ****    0 ROOT
