@<TRIPOS>MOLECULE
CI2
   55    58     1     0     0
SMALL
bcc


@<TRIPOS>ATOM
      1 C1         -0.0960   -0.3050    0.3820 c3        1 CI2     -0.204100
      2 C2          1.3560   -0.2000    0.0320 c         1 CI2      0.576100
      3 O3          1.7520   -0.3080   -1.1330 o         1 CI2     -0.533100
      4 C4          2.2830    0.0150    1.2000 c3        1 CI2     -0.164700
      5 C5          3.6800   -0.5920    0.9720 c3        1 CI2     -0.075400
      6 C6          4.7030    0.3900    1.5500 c3        1 CI2     -0.072400
      7 C7          3.8660    1.3980    2.3250 c3        1 CI2     -0.061700
      8 C8          4.4430    2.7630    2.6390 c3        1 CI2     -0.048700
      9 C9          5.7750    2.6360    3.3580 c3        1 CI2     -0.074400
     10 C10         6.3000    3.9870    3.7910 c3        1 CI2     -0.074400
     11 C11         5.2970    4.7700    4.6260 c3        1 CI2     -0.046700
     12 C12         5.1840    4.1450    6.0090 c3        1 CI2     -0.181400
     13 C13         4.1260    4.7820    6.8600 c         1 CI2      0.571100
     14 O14         4.3240    5.0880    8.0400 o         1 CI2     -0.533100
     15 C15         2.7980    4.9830    6.1890 c3        1 CI2     -0.182400
     16 C16         2.9680    5.6380    4.8380 c3        1 CI2     -0.070400
     17 C17         3.9400    4.9070    3.9040 c3        1 CI2     -0.039000
     18 C18         4.1190    5.8050    2.6820 c3        1 CI2     -0.089100
     19 C19         3.4210    3.5130    3.5120 c3        1 CI2     -0.046700
     20 C20         2.0460    3.5580    2.8530 c3        1 CI2     -0.074400
     21 C21         1.5340    2.1990    2.3990 c3        1 CI2     -0.066400
     22 C22         2.5550    1.5070    1.5110 c3        1 CI2     -0.038000
     23 C23         2.7130    2.2610    0.2010 c3        1 CI2     -0.091100
     24 H24        -0.7300   -0.2580   -0.5360 hc        1 CI2      0.063367
     25 H25        -0.3850    0.5240    1.0720 hc        1 CI2      0.063367
     26 H26        -0.2810   -1.2800    0.8970 hc        1 CI2      0.063367
     27 H27         1.8170   -0.4590    2.1070 hc        1 CI2      0.061700
     28 H28         3.7520   -1.5850    1.4780 hc        1 CI2      0.056200
     29 H29         3.8620   -0.7460   -0.1220 hc        1 CI2      0.056200
     30 H30         5.2790    0.8920    0.7340 hc        1 CI2      0.046200
     31 H31         5.4340   -0.1270    2.2170 hc        1 CI2      0.046200
     32 H32         3.6070    0.9130    3.3140 hc        1 CI2      0.044700
     33 H33         4.6110    3.3270    1.6820 hc        1 CI2      0.059700
     34 H34         5.6610    1.9650    4.2500 hc        1 CI2      0.042200
     35 H35         6.5160    2.1480    2.6710 hc        1 CI2      0.042200
     36 H36         7.2420    3.8450    4.3850 hc        1 CI2      0.044200
     37 H37         6.5670    4.5910    2.8840 hc        1 CI2      0.044200
     38 H38         5.7040    5.8140    4.7630 hc        1 CI2      0.052700
     39 H39         6.1780    4.2190    6.5260 hc        1 CI2      0.070200
     40 H40         4.9320    3.0530    5.9240 hc        1 CI2      0.070200
     41 H41         2.1350    5.6170    6.8360 hc        1 CI2      0.068700
     42 H42         2.3050    3.9810    6.0800 hc        1 CI2      0.068700
     43 H43         3.3530    6.6840    4.9920 hc        1 CI2      0.048700
     44 H44         1.9670    5.7310    4.3430 hc        1 CI2      0.048700
     45 H45         3.1280    6.0400    2.2250 hc        1 CI2      0.038033
     46 H46         4.6020    6.7670    2.9810 hc        1 CI2      0.038033
     47 H47         4.7590    5.3190    1.9090 hc        1 CI2      0.038033
     48 H48         3.3090    2.9230    4.4680 hc        1 CI2      0.043700
     49 H49         2.0720    4.2520    1.9730 hc        1 CI2      0.043200
     50 H50         1.3050    3.9730    3.5870 hc        1 CI2      0.043200
     51 H51         0.5710    2.3410    1.8430 hc        1 CI2      0.040200
     52 H52         1.3180    1.5580    3.2930 hc        1 CI2      0.040200
     53 H53         3.4460    1.7370   -0.4600 hc        1 CI2      0.043700
     54 H54         3.0640    3.3070    0.3680 hc        1 CI2      0.043700
     55 H55         1.7310    2.3040   -0.3310 hc        1 CI2      0.043700
@<TRIPOS>BOND
     1    1    2 1   
     2    1   24 1   
     3    1   25 1   
     4    1   26 1   
     5    2    3 2   
     6    2    4 1   
     7    4    5 1   
     8    4   22 1   
     9    4   27 1   
    10    5    6 1   
    11    5   28 1   
    12    5   29 1   
    13    6    7 1   
    14    6   30 1   
    15    6   31 1   
    16    7    8 1   
    17    7   22 1   
    18    7   32 1   
    19    8    9 1   
    20    8   19 1   
    21    8   33 1   
    22    9   10 1   
    23    9   34 1   
    24    9   35 1   
    25   10   11 1   
    26   10   36 1   
    27   10   37 1   
    28   11   12 1   
    29   11   17 1   
    30   11   38 1   
    31   12   13 1   
    32   12   39 1   
    33   12   40 1   
    34   13   14 2   
    35   13   15 1   
    36   15   16 1   
    37   15   41 1   
    38   15   42 1   
    39   16   17 1   
    40   16   43 1   
    41   16   44 1   
    42   17   18 1   
    43   17   19 1   
    44   18   45 1   
    45   18   46 1   
    46   18   47 1   
    47   19   20 1   
    48   19   48 1   
    49   20   21 1   
    50   20   49 1   
    51   20   50 1   
    52   21   22 1   
    53   21   51 1   
    54   21   52 1   
    55   22   23 1   
    56   23   53 1   
    57   23   54 1   
    58   23   55 1   
@<TRIPOS>SUBSTRUCTURE
     1 CI2         1 TEMP              0 ****  ****    0 ROOT
