@<TRIPOS>MOLECULE
CI2
   55    58     1     0     0
SMALL
bcc


@<TRIPOS>ATOM
      1 C1         -1.6840    3.3410   -0.4970 c3        1 CI2     -0.204100
      2 C2         -1.2540    2.0460    0.2390 c         1 CI2      0.578100
      3 O3         -1.7670    0.9810   -0.0540 o         1 CI2     -0.538100
      4 C4         -0.1670    2.1540    1.6520 c3        1 CI2     -0.158700
      5 C5         -0.8640    1.1790    3.0250 c3        1 CI2     -0.074400
      6 C6         -0.7260    0.2140    2.7850 c3        1 CI2     -0.078400
      7 C7          0.3800    0.2140    1.8820 c3        1 CI2     -0.049700
      8 C8         -0.0150   -0.3870    1.0410 c3        1 CI2     -0.057700
      9 C9          0.1330   -1.4700    1.1780 c3        1 CI2     -0.073400
     10 C10        -0.5830   -2.5260   -0.0860 c3        1 CI2     -0.075400
     11 C11        -0.8070   -1.9270   -1.0980 c3        1 CI2     -0.050700
     12 C12        -0.4860   -3.2440   -2.0220 c3        1 CI2     -0.179400
     13 C13         0.8770   -3.6020   -2.3600 c         1 CI2      0.573100
     14 O14         1.1190   -4.7090   -2.8650 o         1 CI2     -0.540100
     15 C15         1.7490   -2.4380   -2.6720 c3        1 CI2     -0.182400
     16 C16         0.9300   -1.2790   -3.0690 c3        1 CI2     -0.072400
     17 C17        -0.0960   -1.0400   -1.4210 c3        1 CI2     -0.036000
     18 C18        -1.1410    0.0220   -1.8950 c3        1 CI2     -0.091100
     19 C19         0.6190   -0.2220   -0.1010 c3        1 CI2     -0.040700
     20 C20         0.7010    1.2690   -0.4620 c3        1 CI2     -0.085400
     21 C21         1.1440    1.9300    0.4610 c3        1 CI2     -0.070400
     22 C22         0.5630    1.7340    1.4860 c3        1 CI2     -0.027000
     23 C23         1.5350    2.2790    2.5410 c3        1 CI2     -0.092100
     24 H24        -2.0430    3.9830    0.1550 hc        1 CI2      0.063367
     25 H25        -2.3910    3.1240   -1.1780 hc        1 CI2      0.063367
     26 H26        -0.9040    3.7340   -0.9470 hc        1 CI2      0.063367
     27 H27        -0.1110    3.1170    1.7710 hc        1 CI2      0.059700
     28 H28        -1.8370    1.3710    3.1190 hc        1 CI2      0.052700
     29 H29        -0.3900    1.3920    3.8690 hc        1 CI2      0.052700
     30 H30        -0.5070   -0.3170    3.5980 hc        1 CI2      0.045200
     31 H31        -1.5340   -0.1510    2.3410 hc        1 CI2      0.045200
     32 H32         1.2140   -0.1890    2.2950 hc        1 CI2      0.051700
     33 H33        -0.9850   -0.1950    0.9170 hc        1 CI2      0.072700
     34 H34         1.1110   -1.6480    1.2120 hc        1 CI2      0.040200
     35 H35        -0.2620   -1.7280    2.0540 hc        1 CI2      0.040200
     36 H36        -1.4380   -2.9110    0.2580 hc        1 CI2      0.043200
     37 H37         0.0510   -3.2700   -0.2850 hc        1 CI2      0.043200
     38 H38        -1.7450   -1.6770   -1.1610 hc        1 CI2      0.056700
     39 H39        -1.0310   -3.1660   -2.8520 hc        1 CI2      0.071200
     40 H40        -0.9070   -4.0340   -1.6100 hc        1 CI2      0.071200
     41 H41         2.3520   -2.3460   -1.9010 hc        1 CI2      0.072700
     42 H42         2.3980   -2.5960   -3.4030 hc        1 CI2      0.072700
     43 H43         1.5020   -0.4770   -3.2630 hc        1 CI2      0.046200
     44 H44         0.3310   -1.5040   -3.8430 hc        1 CI2      0.046200
     45 H45        -0.6870    0.9060   -2.0170 hc        1 CI2      0.039367
     46 H46        -1.5440   -0.2690   -2.7620 hc        1 CI2      0.039367
     47 H47        -1.8420    0.1080   -1.2250 hc        1 CI2      0.039367
     48 H48         1.5360   -0.5610    0.0090 hc        1 CI2      0.044700
     49 H49        -0.2040    1.5970   -0.6870 hc        1 CI2      0.050200
     50 H50         1.2970    1.3800   -1.2570 hc        1 CI2      0.050200
     51 H51         2.1200    1.7010    0.5880 hc        1 CI2      0.039700
     52 H52         1.0660    2.9050    0.2270 hc        1 CI2      0.039700
     53 H53         1.0360    2.5120    3.3560 hc        1 CI2      0.036700
     54 H54         1.9870    3.0890    2.1850 hc        1 CI2      0.036700
     55 H55         2.2020    1.5990    2.7510 hc        1 CI2      0.036700
@<TRIPOS>BOND
     1    1    2 1   
     2    1   24 1   
     3    1   25 1   
     4    1   26 1   
     5    2    3 2   
     6    2    4 1   
     7    4    5 1   
     8    4   22 1   
     9    4   27 1   
    10    5    6 1   
    11    5   28 1   
    12    5   29 1   
    13    6    7 1   
    14    6   30 1   
    15    6   31 1   
    16    7    8 1   
    17    7   22 1   
    18    7   32 1   
    19    8    9 1   
    20    8   19 1   
    21    8   33 1   
    22    9   10 1   
    23    9   34 1   
    24    9   35 1   
    25   10   11 1   
    26   10   36 1   
    27   10   37 1   
    28   11   12 1   
    29   11   17 1   
    30   11   38 1   
    31   12   13 1   
    32   12   39 1   
    33   12   40 1   
    34   13   14 2   
    35   13   15 1   
    36   15   16 1   
    37   15   41 1   
    38   15   42 1   
    39   16   17 1   
    40   16   43 1   
    41   16   44 1   
    42   17   18 1   
    43   17   19 1   
    44   18   45 1   
    45   18   46 1   
    46   18   47 1   
    47   19   20 1   
    48   19   48 1   
    49   20   21 1   
    50   20   49 1   
    51   20   50 1   
    52   21   22 1   
    53   21   51 1   
    54   21   52 1   
    55   22   23 1   
    56   23   53 1   
    57   23   54 1   
    58   23   55 1   
@<TRIPOS>SUBSTRUCTURE
     1 CI2         1 TEMP              0 ****  ****    0 ROOT
