@<TRIPOS>MOLECULE
CI2
   55    58     1     0     0
SMALL
bcc


@<TRIPOS>ATOM
      1 C1         -0.0750   -0.3230    0.3870 c3        1 CI2     -0.204100
      2 C2          1.3760   -0.2090    0.0360 c         1 CI2      0.576100
      3 O3          1.7720   -0.3140   -1.1300 o         1 CI2     -0.533100
      4 C4          2.3030    0.0110    1.2020 c3        1 CI2     -0.164700
      5 C5          3.7030   -0.5860    0.9730 c3        1 CI2     -0.075400
      6 C6          4.7200    0.4020    1.5510 c3        1 CI2     -0.072400
      7 C7          3.8780    1.4050    2.3270 c3        1 CI2     -0.061700
      8 C8          4.4460    2.7730    2.6400 c3        1 CI2     -0.048700
      9 C9          5.7800    2.6550    3.3580 c3        1 CI2     -0.074400
     10 C10         6.2970    4.0090    3.7900 c3        1 CI2     -0.074400
     11 C11         5.2890    4.7850    4.6260 c3        1 CI2     -0.046700
     12 C12         5.1810    4.1590    6.0100 c3        1 CI2     -0.181400
     13 C13         4.1200    4.7900    6.8620 c         1 CI2      0.571100
     14 O14         4.3170    5.0970    8.0410 o         1 CI2     -0.533100
     15 C15         2.7910    4.9830    6.1920 c3        1 CI2     -0.182400
     16 C16         2.9550    5.6390    4.8410 c3        1 CI2     -0.070400
     17 C17         3.9310    4.9140    3.9060 c3        1 CI2     -0.039000
     18 C18         4.1030    5.8130    2.6840 c3        1 CI2     -0.089100
     19 C19         3.4200    3.5170    3.5140 c3        1 CI2     -0.046700
     20 C20         2.0440    3.5530    2.8570 c3        1 CI2     -0.074400
     21 C21         1.5410    2.1910    2.4020 c3        1 CI2     -0.066400
     22 C22         2.5650    1.5060    1.5130 c3        1 CI2     -0.038000
     23 C23         2.7180    2.2610    0.2030 c3        1 CI2     -0.091100
     24 H24        -0.2530   -1.2990    0.9020 hc        1 CI2      0.063367
     25 H25        -0.3690    0.5040    1.0770 hc        1 CI2      0.063367
     26 H26        -0.7100   -0.2800   -0.5310 hc        1 CI2      0.063367
     27 H27         1.8400   -0.4650    2.1100 hc        1 CI2      0.061700
     28 H28         3.7820   -1.5790    1.4790 hc        1 CI2      0.056200
     29 H29         3.8860   -0.7400   -0.1210 hc        1 CI2      0.056200
     30 H30         5.4560   -0.1100    2.2170 hc        1 CI2      0.046200
     31 H31         5.2920    0.9080    0.7340 hc        1 CI2      0.046200
     32 H32         3.6220    0.9190    3.3150 hc        1 CI2      0.044700
     33 H33         4.6090    3.3390    1.6830 hc        1 CI2      0.059700
     34 H34         6.5230    2.1720    2.6700 hc        1 CI2      0.042200
     35 H35         5.6710    1.9830    4.2500 hc        1 CI2      0.042200
     36 H36         6.5580    4.6150    2.8830 hc        1 CI2      0.044200
     37 H37         7.2390    3.8740    4.3840 hc        1 CI2      0.044200
     38 H38         5.6890    5.8320    4.7630 hc        1 CI2      0.052700
     39 H39         4.9360    3.0660    5.9250 hc        1 CI2      0.070200
     40 H40         6.1750    4.2400    6.5260 hc        1 CI2      0.070200
     41 H41         2.1240    5.6120    6.8400 hc        1 CI2      0.068700
     42 H42         2.3030    3.9770    6.0830 hc        1 CI2      0.068700
     43 H43         3.3330    6.6870    4.9950 hc        1 CI2      0.048700
     44 H44         1.9520    5.7250    4.3470 hc        1 CI2      0.048700
     45 H45         3.1090    6.0430    2.2280 hc        1 CI2      0.038033
     46 H46         4.7450    5.3320    1.9100 hc        1 CI2      0.038033
     47 H47         4.5800    6.7790    2.9820 hc        1 CI2      0.038033
     48 H48         3.3130    2.9260    4.4700 hc        1 CI2      0.043700
     49 H49         1.3010    3.9630    3.5910 hc        1 CI2      0.043200
     50 H50         2.0650    4.2470    1.9760 hc        1 CI2      0.043200
     51 H51         1.3290    1.5480    3.2970 hc        1 CI2      0.040200
     52 H52         0.5760    2.3270    1.8470 hc        1 CI2      0.040200
     53 H53         1.7340    2.2970   -0.3280 hc        1 CI2      0.043700
     54 H54         3.4530    1.7410   -0.4580 hc        1 CI2      0.043700
     55 H55         3.0610    3.3090    0.3700 hc        1 CI2      0.043700
@<TRIPOS>BOND
     1    1    2 1   
     2    1   24 1   
     3    1   25 1   
     4    1   26 1   
     5    2    3 2   
     6    2    4 1   
     7    4    5 1   
     8    4   22 1   
     9    4   27 1   
    10    5    6 1   
    11    5   28 1   
    12    5   29 1   
    13    6    7 1   
    14    6   30 1   
    15    6   31 1   
    16    7    8 1   
    17    7   22 1   
    18    7   32 1   
    19    8    9 1   
    20    8   19 1   
    21    8   33 1   
    22    9   10 1   
    23    9   34 1   
    24    9   35 1   
    25   10   11 1   
    26   10   36 1   
    27   10   37 1   
    28   11   12 1   
    29   11   17 1   
    30   11   38 1   
    31   12   13 1   
    32   12   39 1   
    33   12   40 1   
    34   13   14 2   
    35   13   15 1   
    36   15   16 1   
    37   15   41 1   
    38   15   42 1   
    39   16   17 1   
    40   16   43 1   
    41   16   44 1   
    42   17   18 1   
    43   17   19 1   
    44   18   45 1   
    45   18   46 1   
    46   18   47 1   
    47   19   20 1   
    48   19   48 1   
    49   20   21 1   
    50   20   49 1   
    51   20   50 1   
    52   21   22 1   
    53   21   51 1   
    54   21   52 1   
    55   22   23 1   
    56   23   53 1   
    57   23   54 1   
    58   23   55 1   
@<TRIPOS>SUBSTRUCTURE
     1 CI2         1 TEMP              0 ****  ****    0 ROOT
