@<TRIPOS>MOLECULE
CI2
   55    58     1     0     0
SMALL
bcc


@<TRIPOS>ATOM
      1 C1          4.8800    2.0220   -0.8040 c3        1 CI2     -0.204100
      2 C2          4.6050    0.6320   -0.3230 c         1 CI2      0.576100
      3 O3          5.3770    0.0460    0.4440 o         1 CI2     -0.533100
      4 C4          3.3480    0.0030   -0.8640 c3        1 CI2     -0.164700
      5 C5          3.4510   -1.5290   -0.9840 c3        1 CI2     -0.075400
      6 C6          2.1000   -2.1110   -0.5580 c3        1 CI2     -0.072400
      7 C7          1.1790   -0.9030   -0.4610 c3        1 CI2     -0.061700
      8 C8         -0.0840   -0.9910    0.3700 c3        1 CI2     -0.048700
      9 C9         -0.9360   -2.1730   -0.0610 c3        1 CI2     -0.074400
     10 C10        -2.2580   -2.1990    0.6720 c3        1 CI2     -0.074400
     11 C11        -3.0270   -0.8910    0.5480 c3        1 CI2     -0.046700
     12 C12        -3.5820   -0.7570   -0.8630 c3        1 CI2     -0.181400
     13 C13        -4.2540    0.5610   -1.1100 c         1 CI2      0.571100
     14 O14        -5.3480    0.6480   -1.6760 o         1 CI2     -0.533100
     15 C15        -3.4850    1.7680   -0.6570 c3        1 CI2     -0.182400
     16 C16        -2.9900    1.5940    0.7600 c3        1 CI2     -0.070400
     17 C17        -2.1730    0.3160    0.9860 c3        1 CI2     -0.039000
     18 C18        -1.9240    0.2260    2.4900 c3        1 CI2     -0.089100
     19 C19        -0.8540    0.3300    0.1950 c3        1 CI2     -0.046700
     20 C20         0.0200    1.5370    0.5210 c3        1 CI2     -0.074400
     21 C21         1.3590    1.5440   -0.2020 c3        1 CI2     -0.066400
     22 C22         2.1030    0.2390    0.0260 c3        1 CI2     -0.038000
     23 C23         2.5100    0.1120    1.4850 c3        1 CI2     -0.091100
     24 H24         5.7030    2.4910   -0.2130 hc        1 CI2      0.063367
     25 H25         5.1850    1.9860   -1.8790 hc        1 CI2      0.063367
     26 H26         3.9590    2.6490   -0.7150 hc        1 CI2      0.063367
     27 H27         3.1470    0.4420   -1.8790 hc        1 CI2      0.061700
     28 H28         3.6920   -1.8140   -2.0360 hc        1 CI2      0.056200
     29 H29         4.2680   -1.9160   -0.3240 hc        1 CI2      0.056200
     30 H30         1.7200   -2.8510   -1.3040 hc        1 CI2      0.046200
     31 H31         2.1830   -2.6300    0.4280 hc        1 CI2      0.046200
     32 H32         0.8630   -0.6490   -1.5170 hc        1 CI2      0.044700
     33 H33         0.1890   -1.1300    1.4520 hc        1 CI2      0.059700
     34 H34        -1.1120   -2.1270   -1.1690 hc        1 CI2      0.042200
     35 H35        -0.3740   -3.1220    0.1440 hc        1 CI2      0.042200
     36 H36        -2.8880   -3.0360    0.2710 hc        1 CI2      0.044200
     37 H37        -2.0760   -2.4100    1.7600 hc        1 CI2      0.044200
     38 H38        -3.9090   -0.9430    1.2500 hc        1 CI2      0.052700
     39 H39        -2.7560   -0.8570   -1.6180 hc        1 CI2      0.070200
     40 H40        -4.3100   -1.5910   -1.0510 hc        1 CI2      0.070200
     41 H41        -2.6210    1.9180   -1.3590 hc        1 CI2      0.068700
     42 H42        -4.1340    2.6810   -0.7210 hc        1 CI2      0.068700
     43 H43        -2.3800    2.4880    1.0520 hc        1 CI2      0.048700
     44 H44        -3.8770    1.5660    1.4500 hc        1 CI2      0.048700
     45 H45        -2.8940    0.1030    3.0320 hc        1 CI2      0.038033
     46 H46        -1.2710   -0.6410    2.7450 hc        1 CI2      0.038033
     47 H47        -1.4350    1.1590    2.8590 hc        1 CI2      0.038033
     48 H48        -1.1270    0.4070   -0.8990 hc        1 CI2      0.043700
     49 H49        -0.5290    2.4720    0.2310 hc        1 CI2      0.043200
     50 H50         0.2010    1.5820    1.6270 hc        1 CI2      0.043200
     51 H51         1.1940    1.6960   -1.3010 hc        1 CI2      0.040200
     52 H52         1.9680    2.4080    0.1720 hc        1 CI2      0.040200
     53 H53         1.6240    0.1180    2.1620 hc        1 CI2      0.043700
     54 H54         3.0790   -0.8370    1.6450 hc        1 CI2      0.043700
     55 H55         3.1720    0.9670    1.7680 hc        1 CI2      0.043700
@<TRIPOS>BOND
     1    1    2 1   
     2    1   24 1   
     3    1   25 1   
     4    1   26 1   
     5    2    3 2   
     6    2    4 1   
     7    4    5 1   
     8    4   22 1   
     9    4   27 1   
    10    5    6 1   
    11    5   28 1   
    12    5   29 1   
    13    6    7 1   
    14    6   30 1   
    15    6   31 1   
    16    7    8 1   
    17    7   22 1   
    18    7   32 1   
    19    8    9 1   
    20    8   19 1   
    21    8   33 1   
    22    9   10 1   
    23    9   34 1   
    24    9   35 1   
    25   10   11 1   
    26   10   36 1   
    27   10   37 1   
    28   11   12 1   
    29   11   17 1   
    30   11   38 1   
    31   12   13 1   
    32   12   39 1   
    33   12   40 1   
    34   13   14 2   
    35   13   15 1   
    36   15   16 1   
    37   15   41 1   
    38   15   42 1   
    39   16   17 1   
    40   16   43 1   
    41   16   44 1   
    42   17   18 1   
    43   17   19 1   
    44   18   45 1   
    45   18   46 1   
    46   18   47 1   
    47   19   20 1   
    48   19   48 1   
    49   20   21 1   
    50   20   49 1   
    51   20   50 1   
    52   21   22 1   
    53   21   51 1   
    54   21   52 1   
    55   22   23 1   
    56   23   53 1   
    57   23   54 1   
    58   23   55 1   
@<TRIPOS>SUBSTRUCTURE
     1 CI2         1 TEMP              0 ****  ****    0 ROOT
