@<TRIPOS>MOLECULE
CI3
   52    54     1     0     0
SMALL
bcc


@<TRIPOS>ATOM
      1 CL         -0.1370    0.0540    0.1120 cl        1 CI3     -0.129400
      2 CZB         1.5680   -0.0010    0.0360 ca        1 CI3      0.009400
      3 CEA         2.3170    0.2310    1.1920 ca        1 CI3     -0.130000
      4 CDA         3.7080    0.1920    1.1240 ca        1 CI3     -0.114500
      5 CEB         2.1990   -0.2780   -1.1800 ca        1 CI3     -0.130000
      6 CDB         3.5910   -0.3120   -1.2370 ca        1 CI3     -0.114500
      7 CGA         4.3570   -0.0740   -0.0880 ca        1 CI3     -0.063300
      8 CO          5.8440   -0.0560   -0.1660 c3        1 CI3     -0.025100
      9 CF          6.5090   -1.4310   -0.0690 c3        1 CI3     -0.133000
     10 CH          6.1540   -2.1170    1.2650 c3        1 CI3      0.167800
     11 CB          6.0480   -2.3390   -1.2260 c         1 CI3      0.591300
     12 O13         5.5110   -3.4280   -0.9650 o         1 CI3     -0.580100
     13 CM          6.3130   -1.8350   -2.5530 ce        1 CI3     -0.401200
     14 CA          6.0460   -2.4540   -3.7330 cf        1 CI3      0.115900
     15 O14         5.4620   -3.6780   -3.7760 oh        1 CI3     -0.496100
     16 CE          6.3730   -1.8270   -5.1000 c         1 CI3      0.881800
     17 CG          8.0290   -1.2820   -0.1720 c3        1 CI3     -0.071400
     18 OAO         6.9010   -0.6910   -5.1410 o         1 CI3     -0.802300
     19 OAN         6.0640   -2.5480   -6.0920 o         1 CI3     -0.802300
     20 CK          8.6320   -0.6380    1.0560 c3        1 CI3     -0.075400
     21 CI          8.1910   -1.3450    2.3340 c3        1 CI3      0.166800
     22 NJ          6.7440   -1.4760    2.4370 n3        1 CI3     -0.730600
     23 CP          6.3400   -2.1490    3.6670 c3        1 CI3      0.211100
     24 CGB         6.5920   -1.3430    4.9090 ca        1 CI3     -0.074300
     25 CD1         6.1680   -0.0120    4.9950 ca        1 CI3     -0.119000
     26 CE1         6.3610    0.7100    6.1710 ca        1 CI3     -0.137000
     27 CZ          6.9730    0.1090    7.2710 ca        1 CI3     -0.139000
     28 CE2         7.3950   -1.2170    7.1910 ca        1 CI3     -0.137000
     29 CD2         7.2080   -1.9410    6.0140 ca        1 CI3     -0.119000
     30 HEB         1.6070   -0.4720   -2.0870 ha        1 CI3      0.139000
     31 HEA         1.8160    0.4410    2.1480 ha        1 CI3      0.139000
     32 HDB         4.1020   -0.5470   -2.1880 ha        1 CI3      0.155000
     33 HDA         4.3050    0.3640    2.0330 ha        1 CI3      0.155000
     34 HO1C        6.1490    0.4220   -1.1370 hc        1 CI3      0.058700
     35 HO2C        6.2450    0.5880    0.6640 hc        1 CI3      0.058700
     36 HG1C        8.2870   -0.6760   -1.0800 hc        1 CI3      0.055200
     37 HG2C        8.4740   -2.3030   -0.3120 hc        1 CI3      0.055200
     38 HH1C        5.0340   -2.0890    1.3830 h1        1 CI3      0.051200
     39 HH2C        6.4660   -3.2010    1.1910 h1        1 CI3      0.051200
     40 HM          6.7980   -0.8490   -2.6420 ha        1 CI3      0.154000
     41 H14         5.3710   -3.9200   -4.7230 ho        1 CI3      0.448000
     42 HK1C        9.7500   -0.6860    0.9950 hc        1 CI3      0.039700
     43 HK2C        8.3440    0.4440    1.1030 hc        1 CI3      0.039700
     44 HI1C        8.5400   -0.7510    3.2250 h1        1 CI3      0.025200
     45 HI2C        8.7010   -2.3540    2.3770 h1        1 CI3      0.025200
     46 HP1C        6.8450   -3.1560    3.7730 h1        1 CI3      0.040700
     47 HP2C        5.2280   -2.3370    3.6070 h1        1 CI3      0.040700
     48 HD1         5.6870    0.4620    4.1250 ha        1 CI3      0.139000
     49 HD2         7.5460   -2.9870    5.9550 ha        1 CI3      0.139000
     50 HE1         6.0300    1.7570    6.2310 ha        1 CI3      0.124500
     51 HZ          7.1230    0.6800    8.1980 ha        1 CI3      0.122000
     52 HE2         7.8790   -1.6940    8.0550 ha        1 CI3      0.124500
@<TRIPOS>BOND
     1    1    2 1   
     2    2    3 ar  
     3    2    5 ar  
     4    3    4 ar  
     5    3   31 1   
     6    4    7 ar  
     7    4   33 1   
     8    5    6 ar  
     9    5   30 1   
    10    6    7 ar  
    11    6   32 1   
    12    7    8 1   
    13    8    9 1   
    14    8   34 1   
    15    8   35 1   
    16    9   10 1   
    17    9   11 1   
    18    9   17 1   
    19   10   22 1   
    20   10   38 1   
    21   10   39 1   
    22   11   12 2   
    23   11   13 1   
    24   13   14 2   
    25   13   40 1   
    26   14   15 1   
    27   14   16 1   
    28   15   41 1   
    29   16   18 1   
    30   16   19 1   
    31   17   20 1   
    32   17   36 1   
    33   17   37 1   
    34   20   21 1   
    35   20   42 1   
    36   20   43 1   
    37   21   22 1   
    38   21   44 1   
    39   21   45 1   
    40   22   23 1   
    41   23   24 1   
    42   23   46 1   
    43   23   47 1   
    44   24   25 ar  
    45   24   29 ar  
    46   25   26 ar  
    47   25   48 1   
    48   26   27 ar  
    49   26   50 1   
    50   27   28 ar  
    51   27   51 1   
    52   28   29 ar  
    53   28   52 1   
    54   29   49 1   
@<TRIPOS>SUBSTRUCTURE
     1 CI3         1 TEMP              0 ****  ****    0 ROOT
