@<TRIPOS>MOLECULE
CI3
   52    49     1     0     0
SMALL
bcc


@<TRIPOS>ATOM
      1 CL         -5.8820    0.7850   -3.3890 cl        1 CI3     -0.061000
      2 CZB        -4.2210    0.8950   -2.7430 c2        1 CI3     -0.074000
      3 CEA        -3.9810    0.6440   -1.3950 c2        1 CI3     -0.149000
      4 CDA        -2.6980    0.7350   -0.8910 c1        1 CI3     -0.129000
      5 CEB        -3.1690    1.2370   -3.5820 c1        1 CI3     -0.115000
      6 CDB        -1.8840    1.3280   -3.0780 c1        1 CI3     -0.102000
      7 CGA        -1.6460    1.0760   -1.7270 c1        1 CI3     -0.060000
      8 CO         -0.2410    1.3300   -1.1320 c3        1 CI3     -0.104000
      9 CF          0.5980   -0.0270   -1.1590 c3        1 CI3     -0.086000
     10 CH          0.1980   -1.0290    0.1480 c3        1 CI3     -0.066000
     11 CB          0.1560   -0.6180   -2.4590 c2        1 CI3      0.314000
     12 O13        -0.3970    0.0690   -3.2740 o         1 CI3     -0.302000
     13 CM          0.4610   -2.0890   -2.7760 c2        1 CI3     -0.363000
     14 CA         -0.2240   -2.7340   -3.7810 c1        1 CI3      0.072000
     15 O14         0.0560   -4.0820   -4.0700 oh        1 CI3     -0.301000
     16 CE         -1.2810   -1.9950   -4.5750 c1        1 CI3      0.346000
     17 CG          2.0740    0.2380   -1.1490 c3        1 CI3     -0.146000
     18 OAO        -0.9460   -1.2810   -5.5550 o         1 CI3     -0.541500
     19 OAN        -2.5090   -2.0200   -4.1880 o         1 CI3     -0.541500
     20 CK          2.6500   -0.0250    0.0830 c3        1 CI3     -0.177000
     21 CI          2.1020    0.2480    1.2930 c3        1 CI3     -0.071000
     22 NJ          0.6860   -0.0330    1.3200 n3        1 CI3     -0.248000
     23 CP          0.3180   -0.6120    2.6520 c3        1 CI3     -0.036000
     24 CGB         0.9040    0.2610    3.7670 c2        1 CI3     -0.066000
     25 CD1         0.2290    1.3990    4.1690 c2        1 CI3     -0.102000
     26 CE1         0.6350    2.0770    5.2780 c1        1 CI3     -0.139000
     27 CZ          1.7180    1.6310    6.0010 c1        1 CI3     -0.140000
     28 CE2         2.3900    0.5040    5.6050 c1        1 CI3     -0.140000
     29 CD2         1.9820   -0.1820    4.4850 c1        1 CI3     -0.132000
     30 HEB        -3.3320    1.4080   -4.5030 ha        1 CI3      0.159000
     31 HEA        -4.7320    0.4010   -0.7950 ha        1 CI3      0.126000
     32 HDB        -1.1500    1.5660   -3.6620 ha        1 CI3      0.215000
     33 HDA        -2.5310    0.5560    0.0610 ha        1 CI3      0.122000
     34 HO1C        0.2130    2.0010   -1.6560 hc        1 CI3      0.091500
     35 HO2C       -0.3300    1.6540   -0.1730 hc        1 CI3      0.091500
     36 HG1C        2.4900   -0.3110   -1.8090 hc        1 CI3      0.082000
     37 HG2C        2.2290    1.1700   -1.3710 hc        1 CI3      0.082000
     38 HH1C       -0.8100   -1.2030    0.1950 h1        1 CI3      0.099000
     39 HH2C        0.7230   -1.8710    0.1390 h1        1 CI3      0.099000
     40 HM          1.0880   -2.6000   -2.1970 ha        1 CI3      0.123000
     41 H14        -0.4110   -4.6060   -3.5210 ho        1 CI3      0.251000
     42 HK1C        3.5390    0.4480    0.0730 hc        1 CI3      0.077000
     43 HK2C        2.8490   -1.0100    0.0900 hc        1 CI3      0.077000
     44 HI1C        2.2440    1.2280    1.5040 h1        1 CI3      0.077000
     45 HI2C        2.5540   -0.2990    1.9820 h1        1 CI3      0.077000
     46 HP1C       -0.6680   -0.6370    2.7380 h1        1 CI3      0.082500
     47 HP2C        0.6880   -1.5540    2.7290 h1        1 CI3      0.082500
     48 HD1        -0.5400    1.7160    3.6590 ha        1 CI3      0.155000
     49 HD2         2.5000   -0.9780    4.1710 ha        1 CI3      0.128000
     50 HE1         0.1580    2.8790    5.5600 ha        1 CI3      0.125000
     51 HZ          2.0070    2.1170    6.7940 ha        1 CI3      0.120500
     52 HE2         3.1510    0.1920    6.1140 ha        1 CI3      0.120500
@<TRIPOS>BOND
     1    1    2 1   
     2    2    3 1   
     3    2    5 1   
     4    3    4 1   
     5    3   31 1   
     6    4   33 1   
     7    5   30 1   
     8    6    7 1   
     9    6   32 1   
    10    7    8 1   
    11    8    9 1   
    12    8   34 1   
    13    8   35 1   
    14    9   10 1   
    15    9   11 1   
    16    9   17 1   
    17   10   22 1   
    18   10   38 1   
    19   10   39 1   
    20   11   12 1   
    21   11   13 1   
    22   13   14 1   
    23   13   40 1   
    24   14   15 1   
    25   15   41 1   
    26   16   18 1   
    27   16   19 1   
    28   17   20 1   
    29   17   36 1   
    30   17   37 1   
    31   20   21 1   
    32   20   42 1   
    33   20   43 1   
    34   21   22 1   
    35   21   44 1   
    36   21   45 1   
    37   22   23 1   
    38   23   24 1   
    39   23   46 1   
    40   23   47 1   
    41   24   25 1   
    42   24   29 1   
    43   25   26 1   
    44   25   48 1   
    45   26   50 1   
    46   27   28 1   
    47   27   51 1   
    48   28   52 1   
    49   29   49 1   
@<TRIPOS>SUBSTRUCTURE
     1 CI3         1 TEMP              0 ****  ****    0 ROOT
