@<TRIPOS>MOLECULE
CI3
   52    54     1     0     0
SMALL
bcc


@<TRIPOS>ATOM
      1 CL         -0.1350    0.0650    0.1170 cl        1 CI3     -0.129400
      2 CZB         1.5690    0.0080    0.0400 ca        1 CI3      0.009400
      3 CEA         2.3180    0.2340    1.1970 ca        1 CI3     -0.130000
      4 CDA         3.7100    0.1940    1.1290 ca        1 CI3     -0.114500
      5 CEB         2.2000   -0.2650   -1.1770 ca        1 CI3     -0.130000
      6 CDB         3.5920   -0.3000   -1.2340 ca        1 CI3     -0.114500
      7 CGA         4.3580   -0.0680   -0.0840 ca        1 CI3     -0.063300
      8 CO          5.8460   -0.0510   -0.1620 c3        1 CI3     -0.025100
      9 CF          6.5080   -1.4280   -0.0700 c3        1 CI3     -0.133000
     10 CH          6.1530   -2.1180    1.2620 c3        1 CI3      0.167800
     11 CB          6.0460   -2.3310   -1.2300 c         1 CI3      0.591300
     12 O13         5.5080   -3.4210   -0.9720 o         1 CI3     -0.580100
     13 CM          6.3110   -1.8230   -2.5560 ce        1 CI3     -0.401200
     14 CA          6.0430   -2.4370   -3.7370 cf        1 CI3      0.115900
     15 O14         5.4570   -3.6600   -3.7850 oh        1 CI3     -0.496100
     16 CE          6.3710   -1.8060   -5.1020 c         1 CI3      0.881800
     17 CG          8.0290   -1.2800   -0.1730 c3        1 CI3     -0.071400
     18 OAO         6.8990   -0.6700   -5.1390 o         1 CI3     -0.802300
     19 OAN         6.0590   -2.5230   -6.0970 o         1 CI3     -0.802300
     20 CK          8.6330   -0.6420    1.0570 c3        1 CI3     -0.075400
     21 CI          8.1920   -1.3520    2.3330 c3        1 CI3      0.166800
     22 NJ          6.7450   -1.4820    2.4360 n3        1 CI3     -0.730600
     23 CP          6.3400   -2.1580    3.6630 c3        1 CI3      0.211100
     24 CGB         6.5920   -1.3570    4.9080 ca        1 CI3     -0.074300
     25 CD1         6.1690   -0.0260    4.9980 ca        1 CI3     -0.119000
     26 CE1         6.3620    0.6930    6.1770 ca        1 CI3     -0.137000
     27 CZ          6.9750    0.0880    7.2750 ca        1 CI3     -0.139000
     28 CE2         7.3970   -1.2380    7.1900 ca        1 CI3     -0.137000
     29 CD2         7.2090   -1.9590    6.0110 ca        1 CI3     -0.119000
     30 HEB         1.6080   -0.4550   -2.0850 ha        1 CI3      0.139000
     31 HEA         1.8180    0.4410    2.1540 ha        1 CI3      0.139000
     32 HDB         4.1030   -0.5320   -2.1860 ha        1 CI3      0.155000
     33 HDA         4.3070    0.3620    2.0390 ha        1 CI3      0.155000
     34 HO1C        6.1510    0.4300   -1.1320 hc        1 CI3      0.058700
     35 HO2C        6.2470    0.5890    0.6700 hc        1 CI3      0.058700
     36 HG1C        8.2880   -0.6710   -1.0790 hc        1 CI3      0.055700
     37 HG2C        8.4720   -2.3020   -0.3170 hc        1 CI3      0.055700
     38 HH1C        5.0330   -2.0890    1.3800 h1        1 CI3      0.051200
     39 HH2C        6.4630   -3.2020    1.1830 h1        1 CI3      0.051200
     40 HM          6.7980   -0.8370   -2.6410 ha        1 CI3      0.154000
     41 H14         5.3660   -3.8990   -4.7320 ho        1 CI3      0.448000
     42 HK1C        9.7510   -0.6910    0.9960 hc        1 CI3      0.039700
     43 HK2C        8.3460    0.4410    1.1070 hc        1 CI3      0.039700
     44 HI1C        8.7010   -2.3620    2.3730 h1        1 CI3      0.025200
     45 HI2C        8.5420   -0.7610    3.2260 h1        1 CI3      0.025200
     46 HP1C        5.2280   -2.3460    3.6030 h1        1 CI3      0.040700
     47 HP2C        6.8440   -3.1670    3.7670 h1        1 CI3      0.040700
     48 HD1         5.6880    0.4510    4.1300 ha        1 CI3      0.139000
     49 HD2         7.5470   -3.0040    5.9480 ha        1 CI3      0.139000
     50 HE1         6.0310    1.7390    6.2400 ha        1 CI3      0.124500
     51 HZ          7.1250    0.6550    8.2040 ha        1 CI3      0.122000
     52 HE2         7.8810   -1.7180    8.0530 ha        1 CI3      0.124500
@<TRIPOS>BOND
     1    1    2 1   
     2    2    3 ar  
     3    2    5 ar  
     4    3    4 ar  
     5    3   31 1   
     6    4    7 ar  
     7    4   33 1   
     8    5    6 ar  
     9    5   30 1   
    10    6    7 ar  
    11    6   32 1   
    12    7    8 1   
    13    8    9 1   
    14    8   34 1   
    15    8   35 1   
    16    9   10 1   
    17    9   11 1   
    18    9   17 1   
    19   10   22 1   
    20   10   38 1   
    21   10   39 1   
    22   11   12 2   
    23   11   13 1   
    24   13   14 2   
    25   13   40 1   
    26   14   15 1   
    27   14   16 1   
    28   15   41 1   
    29   16   18 1   
    30   16   19 1   
    31   17   20 1   
    32   17   36 1   
    33   17   37 1   
    34   20   21 1   
    35   20   42 1   
    36   20   43 1   
    37   21   22 1   
    38   21   44 1   
    39   21   45 1   
    40   22   23 1   
    41   23   24 1   
    42   23   46 1   
    43   23   47 1   
    44   24   25 ar  
    45   24   29 ar  
    46   25   26 ar  
    47   25   48 1   
    48   26   27 ar  
    49   26   50 1   
    50   27   28 ar  
    51   27   51 1   
    52   28   29 ar  
    53   28   52 1   
    54   29   49 1   
@<TRIPOS>SUBSTRUCTURE
     1 CI3         1 TEMP              0 ****  ****    0 ROOT
