@<TRIPOS>MOLECULE
CI3
   52    54     1     0     0
SMALL
bcc


@<TRIPOS>ATOM
      1 Cl         -0.1450    0.0150    0.1240 cl        1 CI3     -0.129400
      2 CZB         1.5590   -0.0270    0.0450 ca        1 CI3      0.009400
      3 CEA         2.3080    0.2040    1.2020 ca        1 CI3     -0.130000
      4 CDA         3.6990    0.1750    1.1330 ca        1 CI3     -0.114500
      5 CEB         2.1920   -0.2920   -1.1720 ca        1 CI3     -0.130000
      6 CDB         3.5830   -0.3160   -1.2300 ca        1 CI3     -0.114500
      7 CGA         4.3490   -0.0790   -0.0810 ca        1 CI3     -0.063300
      8 CO          5.8360   -0.0500   -0.1600 c3        1 CI3     -0.025100
      9 CF          6.5110   -1.4200   -0.0720 c3        1 CI3     -0.133000
     10 CH          6.1620   -2.1160    1.2590 c3        1 CI3      0.167800
     11 CB          6.0560   -2.3250   -1.2330 c         1 CI3      0.591300
     12 O13         5.5270   -3.4200   -0.9780 o         1 CI3     -0.580100
     13 CM          6.3160   -1.8110   -2.5580 ce        1 CI3     -0.401200
     14 CA          6.0520   -2.4250   -3.7410 cf        1 CI3      0.115900
     15 O14         5.4770   -3.6530   -3.7910 oh        1 CI3     -0.496100
     16 CE          6.3730   -1.7880   -5.1040 c         1 CI3      0.881800
     17 CG          8.0300   -1.2600   -0.1750 c3        1 CI3     -0.071400
     18 OAO         6.8920   -0.6470   -5.1390 o         1 CI3     -0.802300
     19 OAN         6.0680   -2.5060   -6.1000 o         1 CI3     -0.802300
     20 CK          8.6290   -0.6190    1.0560 c3        1 CI3     -0.075400
     21 CI          8.1950   -1.3360    2.3310 c3        1 CI3      0.166800
     22 NJ          6.7490   -1.4780    2.4340 n3        1 CI3     -0.730600
     23 CP          6.3510   -2.1610    3.6600 c3        1 CI3      0.211100
     24 CGB         6.5970   -1.3600    4.9070 ca        1 CI3     -0.074300
     25 CD1         6.1630   -0.0330    5.0000 ca        1 CI3     -0.119000
     26 CE1         6.3510    0.6850    6.1810 ca        1 CI3     -0.137000
     27 CZ          6.9690    0.0820    7.2770 ca        1 CI3     -0.139000
     28 CE2         7.4010   -1.2400    7.1890 ca        1 CI3     -0.137000
     29 CD2         7.2180   -1.9600    6.0080 ca        1 CI3     -0.119000
     30 HEB         1.6010   -0.4850   -2.0800 ha        1 CI3      0.139000
     31 HEA         1.8060    0.4040    2.1600 ha        1 CI3      0.139000
     32 HDB         4.0960   -0.5410   -2.1830 ha        1 CI3      0.155000
     33 HDA         4.2960    0.3460    2.0430 ha        1 CI3      0.155000
     34 HO1C        6.2320    0.5930    0.6730 hc        1 CI3      0.058700
     35 HO2C        6.1360    0.4360   -1.1290 hc        1 CI3      0.058700
     36 HG1C        8.4820   -2.2770   -0.3210 hc        1 CI3      0.055200
     37 HG2C        8.2830   -0.6460   -1.0790 hc        1 CI3      0.055200
     38 HH1C        6.4820   -3.1970    1.1780 h1        1 CI3      0.051200
     39 HH2C        5.0420   -2.0980    1.3780 h1        1 CI3      0.051200
     40 HM          6.7930   -0.8210   -2.6410 ha        1 CI3      0.154000
     41 H14         5.3870   -3.8900   -4.7390 ho        1 CI3      0.448000
     42 HK1C        9.7480   -0.6580    0.9950 hc        1 CI3      0.039700
     43 HK2C        8.3330    0.4620    1.1100 hc        1 CI3      0.039700
     44 HI1C        8.5400   -0.7440    3.2250 h1        1 CI3      0.025200
     45 HI2C        8.7120   -2.3410    2.3680 h1        1 CI3      0.025200
     46 HP1C        6.8620   -3.1650    3.7610 h1        1 CI3      0.040700
     47 HP2C        5.2400   -2.3570    3.6000 h1        1 CI3      0.040700
     48 HD1         5.6780    0.4420    4.1330 ha        1 CI3      0.139000
     49 HD2         7.5650   -3.0020    5.9430 ha        1 CI3      0.139000
     50 HE1         6.0110    1.7280    6.2460 ha        1 CI3      0.124500
     51 HZ          7.1150    0.6490    8.2070 ha        1 CI3      0.122000
     52 HE2         7.8890   -1.7180    8.0500 ha        1 CI3      0.124500
@<TRIPOS>BOND
     1    1    2 1   
     2    2    3 ar  
     3    2    5 ar  
     4    3    4 ar  
     5    3   31 1   
     6    4    7 ar  
     7    4   33 1   
     8    5    6 ar  
     9    5   30 1   
    10    6    7 ar  
    11    6   32 1   
    12    7    8 1   
    13    8    9 1   
    14    8   34 1   
    15    8   35 1   
    16    9   10 1   
    17    9   11 1   
    18    9   17 1   
    19   10   22 1   
    20   10   38 1   
    21   10   39 1   
    22   11   12 2   
    23   11   13 1   
    24   13   14 2   
    25   13   40 1   
    26   14   15 1   
    27   14   16 1   
    28   15   41 1   
    29   16   18 1   
    30   16   19 1   
    31   17   20 1   
    32   17   36 1   
    33   17   37 1   
    34   20   21 1   
    35   20   42 1   
    36   20   43 1   
    37   21   22 1   
    38   21   44 1   
    39   21   45 1   
    40   22   23 1   
    41   23   24 1   
    42   23   46 1   
    43   23   47 1   
    44   24   25 ar  
    45   24   29 ar  
    46   25   26 ar  
    47   25   48 1   
    48   26   27 ar  
    49   26   50 1   
    50   27   28 ar  
    51   27   51 1   
    52   28   29 ar  
    53   28   52 1   
    54   29   49 1   
@<TRIPOS>SUBSTRUCTURE
     1 CI3         1 TEMP              0 ****  ****    0 ROOT
