@<TRIPOS>MOLECULE
CI3
   52    54     1     0     0
SMALL
bcc


@<TRIPOS>ATOM
      1 CL         -1.0620   -5.5480   -0.2560 cl        1 CI3     -0.129400
      2 CZB        -0.8750   -3.8990    0.1440 ca        1 CI3      0.009400
      3 CEA         0.4040   -3.3850    0.3710 ca        1 CI3     -0.130000
      4 CDA         0.5520   -2.0410    0.7040 ca        1 CI3     -0.114500
      5 CEB        -2.0010   -3.0760    0.2410 ca        1 CI3     -0.130000
      6 CDB        -1.8420   -1.7340    0.5770 ca        1 CI3     -0.114500
      7 CGA        -0.5670   -1.2050    0.8150 ca        1 CI3     -0.063300
      8 CO         -0.4070    0.2170    1.2290 c3        1 CI3     -0.025100
      9 CF         -0.3780    1.2220    0.0750 c3        1 CI3     -0.133000
     10 CH          0.7880    0.9180   -0.8860 c3        1 CI3      0.167800
     11 CB         -1.6960    1.1720   -0.7210 c         1 CI3      0.591300
     12 O13        -1.6610    0.9330   -1.9390 o         1 CI3     -0.580100
     13 CM         -2.8930    1.4400    0.0430 ce        1 CI3     -0.401200
     14 CA         -4.1680    1.4970   -0.4240 cf        1 CI3      0.115900
     15 O14        -4.4540    1.2860   -1.7330 oh        1 CI3     -0.496100
     16 CE         -5.3770    1.7950    0.4790 c         1 CI3      0.881800
     17 CG         -0.2220    2.6410    0.6260 c3        1 CI3     -0.071400
     18 OAO        -5.1930    1.9860    1.7040 o         1 CI3     -0.802300
     19 OAN        -6.4870    1.8180   -0.1270 o         1 CI3     -0.802300
     20 CK          1.1570    2.8920    1.1960 c3        1 CI3     -0.075400
     21 CI          2.2520    2.5190    0.2020 c3        1 CI3      0.166800
     22 NJ          2.1090    1.1640   -0.3140 n3        1 CI3     -0.730600
     23 CP          3.1660    0.8220   -1.2580 c3        1 CI3      0.211100
     24 CGB         4.5230    0.6900   -0.6280 ca        1 CI3     -0.074300
     25 CD1         4.7060   -0.0940    0.5170 ca        1 CI3     -0.119000
     26 CE1         5.9780   -0.2500    1.0640 ca        1 CI3     -0.137000
     27 CZ          7.0770    0.3720    0.4710 ca        1 CI3     -0.139000
     28 CE2         6.9000    1.1530   -0.6700 ca        1 CI3     -0.137000
     29 CD2         5.6280    1.3140   -1.2170 ca        1 CI3     -0.119000
     30 HEB        -3.0070   -3.4800    0.0500 ha        1 CI3      0.139000
     31 HEA         1.2880   -4.0330    0.2860 ha        1 CI3      0.139000
     32 HDB        -2.7230   -1.0690    0.6400 ha        1 CI3      0.155000
     33 HDA         1.5580   -1.6260    0.8750 ha        1 CI3      0.155000
     34 HO1C       -1.2510    0.4880    1.9210 hc        1 CI3      0.058700
     35 HO2C        0.5490    0.3210    1.8110 hc        1 CI3      0.058700
     36 HG1C       -0.4160    3.3660   -0.2080 hc        1 CI3      0.055200
     37 HG2C       -0.9950    2.8260    1.4180 hc        1 CI3      0.055200
     38 HH1C        0.7310   -0.1720   -1.1680 h1        1 CI3      0.051200
     39 HH2C        0.6290    1.5250   -1.8260 h1        1 CI3      0.051200
     40 HM         -2.7810    1.6380    1.1220 ha        1 CI3      0.154000
     41 H14        -5.4260    1.3790   -1.8340 ho        1 CI3      0.448000
     42 HK1C        1.2670    3.9790    1.4490 hc        1 CI3      0.039700
     43 HK2C        1.2920    2.3110    2.1450 hc        1 CI3      0.039700
     44 HI1C        2.2490    3.2810   -0.6340 h1        1 CI3      0.025200
     45 HI2C        3.2540    2.5810    0.7130 h1        1 CI3      0.025200
     46 HP1C        2.9090   -0.1790   -1.7150 h1        1 CI3      0.040700
     47 HP2C        3.2250    1.5700   -2.1050 h1        1 CI3      0.040700
     48 HD1         3.8360   -0.5820    0.9860 ha        1 CI3      0.139000
     49 HD2         5.4940    1.9350   -2.1160 ha        1 CI3      0.139000
     50 HE1         6.1150   -0.8640    1.9650 ha        1 CI3      0.124500
     51 HZ          8.0800    0.2470    0.9030 ha        1 CI3      0.122000
     52 HE2         7.7640    1.6450   -1.1390 ha        1 CI3      0.124500
@<TRIPOS>BOND
     1    1    2 1   
     2    2    3 ar  
     3    2    5 ar  
     4    3    4 ar  
     5    3   31 1   
     6    4    7 ar  
     7    4   33 1   
     8    5    6 ar  
     9    5   30 1   
    10    6    7 ar  
    11    6   32 1   
    12    7    8 1   
    13    8    9 1   
    14    8   34 1   
    15    8   35 1   
    16    9   10 1   
    17    9   11 1   
    18    9   17 1   
    19   10   22 1   
    20   10   38 1   
    21   10   39 1   
    22   11   12 2   
    23   11   13 1   
    24   13   14 2   
    25   13   40 1   
    26   14   15 1   
    27   14   16 1   
    28   15   41 1   
    29   16   18 1   
    30   16   19 1   
    31   17   20 1   
    32   17   36 1   
    33   17   37 1   
    34   20   21 1   
    35   20   42 1   
    36   20   43 1   
    37   21   22 1   
    38   21   44 1   
    39   21   45 1   
    40   22   23 1   
    41   23   24 1   
    42   23   46 1   
    43   23   47 1   
    44   24   25 ar  
    45   24   29 ar  
    46   25   26 ar  
    47   25   48 1   
    48   26   27 ar  
    49   26   50 1   
    50   27   28 ar  
    51   27   51 1   
    52   28   29 ar  
    53   28   52 1   
    54   29   49 1   
@<TRIPOS>SUBSTRUCTURE
     1 CI3         1 TEMP              0 ****  ****    0 ROOT
