@<TRIPOS>MOLECULE
CI4
   32    34     1     0     0
SMALL
bcc


@<TRIPOS>ATOM
      1 CL          4.2990   -1.8270    1.0180 cl        1 CI4     -0.062400
      2 OAC        -5.4960   -1.0790    1.0150 oh        1 CI4     -0.492100
      3 OAD        -3.6350   -1.9250   -0.8720 oh        1 CI4     -0.510100
      4 FAE         2.2040   -1.3070   -1.0600 f         1 CI4     -0.112900
      5 CAG        -4.2420    0.8910    1.4050 ca        1 CI4     -0.114000
      6 CAH         1.9930    1.0320   -0.6070 ca        1 CI4     -0.153300
      7 CAI         2.3970    2.1450    0.1320 ca        1 CI4     -0.100000
      8 CAJ        -3.1400    1.7270    1.1610 ca        1 CI4     -0.117000
      9 CAK         3.9490    0.7920    1.3940 ca        1 CI4     -0.095000
     10 CAM        -4.3900   -0.3180    0.7210 ca        1 CI4      0.097100
     11 CAN         2.5810   -0.2260   -0.3420 ca        1 CI4      0.154900
     12 CAO        -3.4230   -0.7280   -0.2410 ca        1 CI4      0.136100
     13 CAP         3.5660   -0.3380    0.6670 ca        1 CI4     -0.025600
     14 CAQ         3.3670    2.0290    1.1250 ca        1 CI4     -0.139000
     15 CAR        -0.9320    2.0000   -0.2430 c3        1 CI4      0.125300
     16 CAS        -1.1850   -0.0550   -1.3910 c         1 CI4      0.720100
     17 CAT        -2.2010    1.3310    0.2330 ca        1 CI4     -0.080300
     18 CAU        -2.3430    0.1050   -0.4700 ca        1 CI4     -0.222600
     19 NAV        -0.4040    1.1160   -1.2880 n         1 CI4     -0.462800
     20 HA0         1.1230    2.1950   -2.1840 h1        1 CI4      0.078700
     21 HA0A        1.1290    0.3830   -2.4770 h1        1 CI4      0.078700
     22 HOAC       -5.4610   -1.8820    0.4710 ho        1 CI4      0.441000
     23 HOAD       -2.8960   -2.0750   -1.4900 ho        1 CI4      0.466000
     24 HAG        -5.0060    1.1810    2.1430 ha        1 CI4      0.157000
     25 HAI         1.9450    3.1260   -0.0810 ha        1 CI4      0.140000
     26 HAJ        -3.0430    2.6750    1.7090 ha        1 CI4      0.144000
     27 HAK         4.7150    0.7020    2.1800 ha        1 CI4      0.154000
     28 HAQ         3.6770    2.9150    1.6990 ha        1 CI4      0.144000
     29 HAR        -1.1480    3.0090   -0.6910 h1        1 CI4      0.066200
     30 HARA       -0.1960    2.1230    0.5980 h1        1 CI4      0.066200
     31 CA0         0.9670    1.1870   -1.6980 c3        1 CI4      0.143300
     32 OAB        -0.9690   -1.0110   -2.1510 o         1 CI4     -0.623500
@<TRIPOS>BOND
     1    1   13 1   
     2    2   10 1   
     3    2   22 1   
     4    3   12 1   
     5    3   23 1   
     6    4   11 1   
     7    5    8 ar  
     8    5   10 ar  
     9    5   24 1   
    10    6    7 ar  
    11    6   11 ar  
    12    6   31 1   
    13    7   14 ar  
    14    7   25 1   
    15    8   17 ar  
    16    8   26 1   
    17    9   13 ar  
    18    9   14 ar  
    19    9   27 1   
    20   10   12 ar  
    21   11   13 ar  
    22   12   18 ar  
    23   14   28 1   
    24   15   17 1   
    25   15   19 1   
    26   15   29 1   
    27   15   30 1   
    28   16   18 1   
    29   16   19 1   
    30   16   32 2   
    31   17   18 ar  
    32   19   31 1   
    33   20   31 1   
    34   21   31 1   
@<TRIPOS>SUBSTRUCTURE
     1 CI4         1 TEMP              0 ****  ****    0 ROOT
