@<TRIPOS>MOLECULE
CI4
   32    35     1     0     0
SMALL
bcc


@<TRIPOS>ATOM
      1 Cl          0.0300   -1.0240    0.9970 cl        1 CI4     -0.016000
      2 OAC         5.2850    6.3810   -4.6670 oh        1 CI4     -0.237000
      3 OAD         4.6020    3.7480   -5.2080 oh        1 CI4     -0.250000
      4 FAE         0.7600    1.1830   -0.9430 f         1 CI4     -0.091000
      5 CAG         5.9950    5.7780   -2.4930 ca        1 CI4     -0.091000
      6 CAH         3.0810    1.3350   -0.2830 cx        1 CI4     -0.113000
      7 CAI         4.1240    0.6500    0.4940 cu        1 CI4     -0.530000
      8 CAJ         6.2120    4.8320   -1.4770 ca        1 CI4     -0.109000
      9 CAK         2.4950   -0.5290    1.8500 c1        1 CI4     -0.047000
     10 CAM         5.4590    5.3980   -3.7250 ca        1 CI4      0.054000
     11 CAN         1.7310    0.7230   -0.1340 c2        1 CI4      0.136000
     12 CAO         5.1200    4.0370   -3.9770 ca        1 CI4      0.111000
     13 CAP         1.5310   -0.2240    0.8500 c2        1 CI4     -0.188000
     14 CAQ         3.9050   -0.1680    1.6700 c3        1 CI4     -0.076000
     15 CAR         6.0090    2.3180   -0.8170 c3        1 CI4     -0.093000
     16 CAS         5.0930    1.6670   -2.9500 c2        1 CI4      0.314000
     17 CAT         5.8890    3.5140   -1.7170 ca        1 CI4     -0.057000
     18 CAU         5.3430    3.1120   -2.9660 ca        1 CI4     -0.232000
     19 NAV         5.4320    1.1510   -1.5810 nx        1 CI4     -0.054000
     20 HA0         6.1440    0.4220   -1.6660 hn        1 CI4      0.221000
     21 HA0A        3.9850   -0.3800   -1.5610 hx        1 CI4      0.134000
     22 HOAC        4.8620    5.9860   -5.4470 ho        1 CI4      0.244000
     23 HOAD        4.3730    2.8010   -5.2350 ho        1 CI4      0.261000
     24 HAG         6.2440    6.8390   -2.3250 ha        1 CI4      0.169000
     25 HAI         3.0550    2.4260   -0.4540 hc        1 CI4      0.115000
     26 HAJ         6.6290    5.1520   -0.5100 ha        1 CI4      0.159000
     27 HAK         4.5000   -1.1250    1.6290 hc        1 CI4      0.127500
     28 HAQ         4.2270    0.3650    2.6120 hc        1 CI4      0.127500
     29 HAR         5.4230    2.4400    0.1460 hx        1 CI4      0.166000
     30 HARA        7.0810    2.1060   -0.5570 hx        1 CI4      0.166000
     31 CA0         4.2000    0.4900   -0.9100 cx        1 CI4     -0.065000
     32 OAB         4.6880    0.9330   -3.8490 o         1 CI4     -0.254000
@<TRIPOS>BOND
     1    1   13 1   
     2    2   10 1   
     3    2   22 1   
     4    3   12 1   
     5    3   23 1   
     6    4   11 1   
     7    5    8 1   
     8    5   10 1   
     9    5   24 1   
    10    6    7 1   
    11    6   11 1   
    12    6   25 1   
    13    6   31 1   
    14    7   14 1   
    15    7   31 1   
    16    8   17 1   
    17    8   26 1   
    18    9   13 1   
    19    9   14 1   
    20   10   12 1   
    21   11   13 1   
    22   12   18 1   
    23   14   27 1   
    24   14   28 1   
    25   15   17 1   
    26   15   19 1   
    27   15   29 1   
    28   15   30 1   
    29   16   18 1   
    30   16   19 1   
    31   16   32 1   
    32   17   18 1   
    33   19   20 1   
    34   19   31 1   
    35   21   31 1   
@<TRIPOS>SUBSTRUCTURE
     1 CI4         1 TEMP              0 ****  ****    0 ROOT
