@<TRIPOS>MOLECULE
CI4
   32    33     1     0     0
SMALL
bcc


@<TRIPOS>ATOM
      1 CL          0.1530    0.4630   -0.8840 cl        1 CI4     -0.108000
      2 OAC         4.1630    6.4750   -3.5540 oh        1 CI4     -0.222000
      3 OAD         3.4380    3.9170   -4.3600 oh        1 CI4     -0.267000
      4 FAE         2.4580   -1.2580   -0.1540 f         1 CI4     -0.054000
      5 CAG         5.7780    5.6450   -1.9850 c3        1 CI4     -0.188000
      6 CAH         4.1680    0.4560    0.1300 c3        1 CI4      0.124000
      7 CAI         4.5870   -0.0890    1.3990 c1        1 CI4     -0.166000
      8 CAJ         6.4380    4.5060   -1.3590 c1        1 CI4     -0.070000
      9 CAK         2.0960    2.3340   -0.5010 c1        1 CI4     -0.179000
     10 CAM         4.7260    5.3740   -3.0050 c2        1 CI4      0.115000
     11 CAN         2.7250    0.0480   -0.1740 c2        1 CI4      0.309000
     12 CAO         4.3760    4.0770   -3.3600 c2        1 CI4     -0.072000
     13 CAP         1.7570    0.9970   -0.4970 c2        1 CI4     -0.248000
     14 CAQ         4.9690   -0.5190    2.4480 c1        1 CI4     -0.203000
     15 CAR         6.4940    1.9250   -1.1800 c3        1 CI4     -0.060000
     16 CAS         4.8110    1.5510   -2.8850 c2        1 CI4      0.207000
     17 CAT         6.0040    3.2270   -1.7420 c2        1 CI4     -0.187000
     18 CAU         5.0230    3.0090   -2.7020 c2        1 CI4     -0.019000
     19 NAV         5.7000    0.8140   -1.8570 n4        1 CI4      0.152000
     20 HA0         6.3360    0.2300   -2.4070 hn        1 CI4      0.230000
     21 HA0A        5.0090   -1.0900   -1.2270 hx        1 CI4      0.165000
     22 HOAC        3.4610    6.2030   -4.1750 ho        1 CI4      0.256000
     23 HOAD        3.0640    3.0250   -4.2750 ho        1 CI4      0.250000
     24 HAG         6.5790    6.3020   -2.4430 hc        1 CI4      0.191000
     25 HAI         4.1680    1.5910    0.2130 hc        1 CI4      0.163000
     26 HAJ         5.3250    6.2650   -1.1490 hc        1 CI4      0.191000
     27 HAK         1.3530    3.1060   -0.7150 ha        1 CI4      0.085000
     28 HAQ         5.3000   -0.8970    3.3810 ha        1 CI4      0.222000
     29 HAR         6.3320    1.8710   -0.0680 hx        1 CI4      0.147500
     30 HARA        7.5850    1.7700   -1.3970 hx        1 CI4      0.147500
     31 CA0         4.9950   -0.0250   -0.9880 c2        1 CI4     -0.697000
     32 OAB         4.0780    0.9740   -3.6770 o         1 CI4     -0.215000
@<TRIPOS>BOND
     1    1   13 1   
     2    2   10 1   
     3    2   22 1   
     4    3   12 1   
     5    3   23 1   
     6    4   11 1   
     7    5    8 1   
     8    5   10 1   
     9    5   24 1   
    10    5   26 1   
    11    6    7 1   
    12    6   11 1   
    13    6   25 1   
    14    6   31 1   
    15    7   14 1   
    16    8   17 1   
    17    9   13 1   
    18    9   27 1   
    19   10   12 1   
    20   11   13 1   
    21   12   18 1   
    22   14   28 1   
    23   15   17 1   
    24   15   19 1   
    25   15   29 1   
    26   15   30 1   
    27   16   18 1   
    28   16   19 1   
    29   16   32 1   
    30   17   18 1   
    31   19   20 1   
    32   19   31 1   
    33   21   31 1   
@<TRIPOS>SUBSTRUCTURE
     1 CI4         1 TEMP              0 ****  ****    0 ROOT
