@<TRIPOS>MOLECULE
CI4
   32    31     1     0     0
SMALL
bcc


@<TRIPOS>ATOM
      1 CL         -4.9210   -1.9540    0.1110 cl        1 CI4      0.014000
      2 CA0         0.3460   -1.9920    0.8200 c3        1 CI4      0.018000
      3 OAB        -0.5980   -0.8260   -1.7080 o         1 CI4     -0.298000
      4 OAC         1.8790    3.9390   -3.6200 oh        1 CI4     -0.269000
      5 OAD        -0.2450    1.7820   -3.2950 oh        1 CI4     -0.213000
      6 FAE        -2.7190   -2.1640   -0.6130 f         1 CI4     -0.076000
      7 CAG         2.6960    3.2010   -1.5520 c1        1 CI4     -0.149000
      8 CAH        -1.0610   -1.9070    1.4370 c2        1 CI4     -0.144000
      9 CAI        -1.2150   -2.0010    2.8160 c2        1 CI4     -0.101000
     10 CAJ         2.6880    2.3970   -0.4130 c1        1 CI4     -0.125000
     11 CAK        -3.6350   -2.0160    2.5460 c1        1 CI4     -0.097000
     12 CAM         1.8290    2.9180   -2.6140 c2        1 CI4     -0.016000
     13 CAN        -2.2070   -1.8660    0.5970 c2        1 CI4      0.121000
     14 CAO         0.9620    1.8370   -2.5310 c2        1 CI4      0.150000
     15 CAP        -3.4870   -1.9210    1.1620 c2        1 CI4     -0.105000
     16 CAQ        -2.4960   -2.0560    3.3770 c1        1 CI4     -0.141000
     17 CAR         1.6440    0.2110    0.7210 c3        1 CI4     -0.002000
     18 CAS         0.1860   -0.2770   -1.0150 c1        1 CI4      0.357000
     19 CAT         1.8100    1.3010   -0.3270 c2        1 CI4     -0.066000
     20 CAU         0.9570    1.0200   -1.3680 c2        1 CI4     -0.153000
     21 NAV         0.6780   -0.7550    0.2170 n2        1 CI4     -0.331000
     22 HA0         0.3670   -2.7290    0.1170 h1        1 CI4      0.117000
     23 HA0A        0.9940   -2.1940    1.5240 h1        1 CI4      0.117000
     24 HOAC        2.6520    3.8660   -4.0860 ho        1 CI4      0.232000
     25 HOAD       -0.0550    1.5280   -4.1370 ho        1 CI4      0.240000
     26 HAG         3.3830    3.8950   -1.6540 ha        1 CI4      0.139000
     27 HAI        -0.4340   -2.0300    3.3900 ha        1 CI4      0.139000
     28 HAJ         3.3040    2.5980    0.3400 ha        1 CI4      0.144000
     29 HAK        -4.5310   -2.0530    2.9430 ha        1 CI4      0.152000
     30 HAQ        -2.6030   -2.1220    4.3470 ha        1 CI4      0.142000
     31 HAR         2.5310   -0.2420    0.8850 h1        1 CI4      0.102500
     32 HARA        1.3010    0.6130    1.5820 h1        1 CI4      0.102500
@<TRIPOS>BOND
     1    1   15 1   
     2    2    8 1   
     3    2   21 1   
     4    2   22 1   
     5    2   23 1   
     6    3   18 1   
     7    4   12 1   
     8    4   24 1   
     9    5   14 1   
    10    5   25 1   
    11    6   13 1   
    12    7   12 1   
    13    7   26 1   
    14    8    9 1   
    15    8   13 1   
    16    9   16 1   
    17    9   27 1   
    18   10   19 1   
    19   10   28 1   
    20   11   15 1   
    21   11   29 1   
    22   12   14 1   
    23   13   15 1   
    24   14   20 1   
    25   16   30 1   
    26   17   19 1   
    27   17   21 1   
    28   17   31 1   
    29   17   32 1   
    30   18   20 1   
    31   19   20 1   
@<TRIPOS>SUBSTRUCTURE
     1 CI4         1 TEMP              0 ****  ****    0 ROOT
