@<TRIPOS>MOLECULE
CI9
   97    98     1     0     0
SMALL
bcc


@<TRIPOS>ATOM
      1 OAA        10.9180    1.2180   -6.4840 o         1 CI9     -0.509000
      2 CBN        10.3640    0.1310   -6.3140 c         1 CI9      0.630100
      3 OAG         9.9730   -0.0750   -5.0180 oh        1 CI9     -0.595100
      4 CAZ        10.0670   -0.9040   -7.3540 c3        1 CI9     -0.186400
      5 CBB        10.4820   -2.3040   -6.9470 c3        1 CI9     -0.079400
      6 CBW         9.3480   -3.3240   -7.0580 c3        1 CI9     -0.071300
      7 CBP         9.9770   -4.7670   -6.9700 c         1 CI9      0.922600
      8 OAI        10.8720   -5.0350   -7.8070 o         1 CI9     -0.822300
      9 OAC         9.5430   -5.5550   -6.0820 o         1 CI9     -0.822300
     10 NBI         8.3190   -3.1360   -6.0320 n         1 CI9     -0.489900
     11 CBQ         7.0790   -2.6690   -6.4100 c         1 CI9      0.612100
     12 OAD         6.8400   -1.9320   -7.3810 o         1 CI9     -0.540100
     13 N           5.8990   -2.9250   -5.5000 n4        1 CI9     -0.648800
     14 CA          5.1430   -4.1780   -5.8330 c3        1 CI9     -0.053500
     15 C           3.5780   -3.8370   -5.9330 c         1 CI9      0.934600
     16 OXT         3.2630   -2.6490   -5.6550 o         1 CI9     -0.769800
     17 O           2.8530   -4.7880   -6.2730 o         1 CI9     -0.769800
     18 CB          5.3080   -5.2870   -4.8080 c3        1 CI9     -0.096400
     19 CAP         6.7320   -5.7600   -4.6380 c3        1 CI9     -0.106400
     20 CAQ         6.7930   -7.1640   -4.0700 c3        1 CI9     -0.085400
     21 CBC         8.2570   -7.5350   -3.8170 c3        1 CI9      0.026300
     22 NBX         8.5570   -8.9450   -3.9810 na        1 CI9      0.061400
     23 CAO         9.1200   -9.4970   -5.1360 cc        1 CI9     -0.182600
     24 NBF         8.3040   -9.9270   -3.0820 nc        1 CI9     -0.183800
     25 NBE         8.6740  -11.0490   -3.5490 nd        1 CI9     -0.364000
     26 CBR         9.2050  -10.8750   -4.8520 cd        1 CI9      0.185600
     27 CBD         9.7030  -11.9720   -5.7110 c3        1 CI9      0.121100
     28 OBM        10.8920  -11.6190   -6.4070 os        1 CI9     -0.428600
     29 CAY        12.0450  -11.5580   -5.5690 c3        1 CI9      0.090400
     30 CAX        13.2070  -11.0990   -6.4440 c3        1 CI9      0.123400
     31 OBL        13.4250   -9.7000   -6.3340 os        1 CI9     -0.451600
     32 CAW        12.4860   -8.9180   -7.0770 c3        1 CI9      0.120400
     33 CAV        12.8210   -7.4540   -6.8310 c3        1 CI9      0.103400
     34 OBK        13.9160   -7.1310   -7.6910 os        1 CI9     -0.458600
     35 CAU        14.0310   -5.7240   -7.9130 c3        1 CI9      0.114400
     36 CAT        15.0930   -5.5490   -8.9930 c3        1 CI9      0.119400
     37 OBJ        16.2130   -4.9120   -8.3730 os        1 CI9     -0.429600
     38 CAS        17.4280   -5.0460   -9.0950 c3        1 CI9      0.122400
     39 CAR        18.4220   -5.9020   -8.2970 c3        1 CI9      0.168800
     40 NBG        17.9370   -7.2360   -8.0350 nh        1 CI9     -0.723600
     41 CBT        18.6420   -8.0370   -7.1330 ca        1 CI9      0.194600
     42 CAM        20.0500   -7.9300   -7.0250 ca        1 CI9     -0.200000
     43 CAL        20.7940   -8.8110   -6.2560 ca        1 CI9     -0.072000
     44 CBS        20.1600   -9.8480   -5.5560 ca        1 CI9     -0.017400
     45 NBY        20.9580  -10.8870   -4.8890 nh        1 CI9     -0.104000
     46 OAJ        22.0360  -10.3040   -4.3350 oh        1 CI9     -0.437800
     47 OAE        20.2860  -11.3970   -3.8320 oh        1 CI9     -0.437800
     48 CAN        18.7610   -9.9480   -5.5980 ca        1 CI9     -0.068000
     49 CBU        17.9980   -9.0520   -6.3540 ca        1 CI9     -0.003400
     50 NBZ        16.5260   -9.0490   -6.2640 nh        1 CI9     -0.090000
     51 OAK        16.0220   -9.3470   -7.4760 oh        1 CI9     -0.461800
     52 OAF        16.1210  -10.0510   -5.4610 oh        1 CI9     -0.461800
     53 HAZ1       10.5990   -0.6080   -8.2980 hc        1 CI9      0.088200
     54 HAZ2        8.9630   -0.8590   -7.5720 hc        1 CI9      0.088200
     55 HBB1       11.2930   -2.6720   -7.6360 hc        1 CI9      0.075200
     56 HBB2       10.9120   -2.3140   -5.9110 hc        1 CI9      0.075200
     57 HBW         8.8810   -3.2320   -8.0820 h1        1 CI9      0.081700
     58 HBI         8.3520   -3.8770   -5.3450 hn        1 CI9      0.339500
     59 H           5.2080   -2.1440   -5.6380 hn        1 CI9      0.462800
     60 HA          5.4760   -4.5240   -6.8500 hx        1 CI9      0.100700
     61 HB1C        4.8870   -4.9650   -3.8190 hc        1 CI9      0.079700
     62 HB2C        4.6570   -6.1300   -5.1780 hc        1 CI9      0.079700
     63 HAP1        7.2720   -5.7580   -5.6260 hc        1 CI9      0.051700
     64 HAP2        7.2870   -5.0670   -3.9490 hc        1 CI9      0.051700
     65 HAQ1        6.3130   -7.8720   -4.7960 hc        1 CI9      0.055200
     66 HAQ2        6.2130   -7.2270   -3.1140 hc        1 CI9      0.055200
     67 HBC1        8.5370   -7.2310   -2.7680 h1        1 CI9      0.095200
     68 HBC2        8.9240   -6.9750   -4.5420 h1        1 CI9      0.095200
     69 HAO         9.4090   -8.9000   -6.0030 h4        1 CI9      0.214000
     70 HBD1        8.9670  -12.1740   -6.5400 h1        1 CI9      0.059700
     71 HBD2        9.8680  -12.9100   -5.1150 h1        1 CI9      0.059700
     72 HAY1       12.2510  -12.5800   -5.1520 h1        1 CI9      0.042700
     73 HAY2       11.8680  -10.8380   -4.7270 h1        1 CI9      0.042700
     74 HAX1       14.1700  -11.5470   -6.0740 h1        1 CI9      0.064700
     75 HAX2       13.0320  -11.3910   -7.5130 h1        1 CI9      0.064700
     76 HAW1       11.4480   -9.1480   -6.7160 h1        1 CI9      0.048700
     77 HAW2       12.5740   -9.1720   -8.1660 h1        1 CI9      0.048700
     78 HAV1       11.9230   -6.8120   -7.0640 h1        1 CI9      0.077700
     79 HAV2       13.1460   -7.2910   -5.7700 h1        1 CI9      0.077700
     80 HAU1       14.3430   -5.2240   -6.9580 h1        1 CI9      0.071200
     81 HAU2       13.0430   -5.3090   -8.2530 h1        1 CI9      0.071200
     82 HAT1       14.7180   -4.8770   -9.8090 h1        1 CI9      0.043200
     83 HAT2       15.3840   -6.5420   -9.4270 h1        1 CI9      0.043200
     84 HAS1       17.8480   -4.0070   -9.1840 h1        1 CI9      0.047200
     85 HAS2       17.2650   -5.4700  -10.1190 h1        1 CI9      0.047200
     86 HAR1       18.6700   -5.3590   -7.3390 h1        1 CI9      0.040200
     87 HAR2       19.3680   -5.9790   -8.9060 h1        1 CI9      0.040200
     88 HBG        16.9380   -7.2770   -7.9520 hn        1 CI9      0.432800
     89 HAM        20.5810   -7.1340   -7.5690 ha        1 CI9      0.132000
     90 HAL        21.8870   -8.6920   -6.1970 ha        1 CI9      0.141000
     91 HAN        18.2520  -10.7320   -5.0110 ha        1 CI9      0.160000
     92 HAE        20.0730  -12.3090   -4.0980 ho        1 CI9      0.419000
     93 HAJ        22.6360  -11.0380   -4.1070 ho        1 CI9      0.419000
     94 HAK        15.1240   -8.9480   -7.4840 ho        1 CI9      0.448500
     95 HAF        15.2630   -9.7450   -5.1050 ho        1 CI9      0.448500
     96 HBI2        9.5720   -0.9520   -4.9360 ho        1 CI9      0.429000
     97 H2          6.1780   -2.9450   -4.5200 hn        1 CI9      0.462800
@<TRIPOS>BOND
     1    1    2 2   
     2    2    3 1   
     3    2    4 1   
     4    3   96 1   
     5    4    5 1   
     6    4   53 1   
     7    4   54 1   
     8    5    6 1   
     9    5   55 1   
    10    5   56 1   
    11    6    7 1   
    12    6   10 1   
    13    6   57 1   
    14    7    8 1   
    15    7    9 1   
    16   10   11 1   
    17   10   58 1   
    18   11   12 2   
    19   11   13 1   
    20   13   14 1   
    21   13   59 1   
    22   13   97 1   
    23   14   15 1   
    24   14   18 1   
    25   14   60 1   
    26   15   16 1   
    27   15   17 1   
    28   18   19 1   
    29   18   61 1   
    30   18   62 1   
    31   19   20 1   
    32   19   63 1   
    33   19   64 1   
    34   20   21 1   
    35   20   65 1   
    36   20   66 1   
    37   21   22 1   
    38   21   67 1   
    39   21   68 1   
    40   22   23 1   
    41   22   24 1   
    42   23   26 2   
    43   23   69 1   
    44   24   25 2   
    45   25   26 1   
    46   26   27 1   
    47   27   28 1   
    48   27   70 1   
    49   27   71 1   
    50   28   29 1   
    51   29   30 1   
    52   29   72 1   
    53   29   73 1   
    54   30   31 1   
    55   30   74 1   
    56   30   75 1   
    57   31   32 1   
    58   32   33 1   
    59   32   76 1   
    60   32   77 1   
    61   33   34 1   
    62   33   78 1   
    63   33   79 1   
    64   34   35 1   
    65   35   36 1   
    66   35   80 1   
    67   35   81 1   
    68   36   37 1   
    69   36   82 1   
    70   36   83 1   
    71   37   38 1   
    72   38   39 1   
    73   38   84 1   
    74   38   85 1   
    75   39   40 1   
    76   39   86 1   
    77   39   87 1   
    78   40   41 1   
    79   40   88 1   
    80   41   42 ar  
    81   41   49 ar  
    82   42   43 ar  
    83   42   89 1   
    84   43   44 ar  
    85   43   90 1   
    86   44   45 1   
    87   44   48 ar  
    88   45   46 1   
    89   45   47 1   
    90   46   93 1   
    91   47   92 1   
    92   48   49 ar  
    93   48   91 1   
    94   49   50 1   
    95   50   51 1   
    96   50   52 1   
    97   51   94 1   
    98   52   95 1   
@<TRIPOS>SUBSTRUCTURE
     1 CI9         1 TEMP              0 ****  ****    0 ROOT
