@<TRIPOS>MOLECULE
CI9
   95    96     1     0     0
SMALL
bcc


@<TRIPOS>ATOM
      1 OAA         7.3130    0.2700   -4.1250 o         1 CI9     -0.876300
      2 CBN         7.0780    0.2380   -2.8770 c         1 CI9      0.903600
      3 OAG         7.9920    0.0100   -2.0280 o         1 CI9     -0.876300
      4 CAZ         5.6510    0.5310   -2.3960 c3        1 CI9     -0.180400
      5 CBB         5.1220   -0.5370   -1.4710 c3        1 CI9     -0.052400
      6 CBW         3.6880   -0.2780   -0.9770 c3        1 CI9     -0.019300
      7 CBP         3.1720   -1.5810   -0.3180 c         1 CI9      0.892600
      8 OAI         2.6100   -2.4520   -1.0540 o         1 CI9     -0.878800
      9 OAC         3.2720   -1.7620    0.9360 o         1 CI9     -0.878800
     10 NBI         3.6080    0.8860   -0.1060 n         1 CI9     -0.499900
     11 CBQ         2.3360    1.3470    0.3010 c         1 CI9      0.737100
     12 OAD         1.2970    1.0750   -0.3630 o         1 CI9     -0.698100
     13 N           2.2570    2.2810    1.3610 n         1 CI9     -0.522900
     14 CA          1.0760    2.3150    2.1950 c3        1 CI9     -0.027300
     15 C           0.9420    3.6990    2.9190 c         1 CI9      0.921600
     16 OXT         1.9020    4.1140    3.6240 o         1 CI9     -0.851300
     17 O          -0.1570    4.3120    2.7830 o         1 CI9     -0.851300
     18 CB          1.0370    1.2470    3.3020 c3        1 CI9     -0.095400
     19 CAP         1.0120   -0.1650    2.7660 c3        1 CI9     -0.107400
     20 CAQ         0.9800   -1.1840    3.8860 c3        1 CI9     -0.080400
     21 CBC         1.3170   -2.5880    3.3850 c3        1 CI9      0.032300
     22 NBX         0.3310   -3.1680    2.4890 na        1 CI9      0.060400
     23 CAO         0.5030   -3.2310    1.1030 cc        1 CI9     -0.149600
     24 NBF        -0.9540   -3.4710    2.8070 nc        1 CI9     -0.226800
     25 NBE        -1.6120   -3.7340    1.7510 nd        1 CI9     -0.396000
     26 CBR        -0.7740   -3.5940    0.6190 cd        1 CI9      0.145600
     27 CBD        -1.1940   -3.7180   -0.7930 c3        1 CI9      0.133100
     28 OBM        -1.4880   -2.4550   -1.3850 os        1 CI9     -0.465600
     29 CAY        -0.3400   -1.6500   -1.6640 c3        1 CI9      0.072400
     30 CAX         0.2180   -1.9560   -3.0470 c3        1 CI9      0.102400
     31 OBL        -0.1580   -0.9990   -4.0290 os        1 CI9     -0.427600
     32 CAW        -1.5550   -0.9130   -4.2760 c3        1 CI9      0.092400
     33 CAV        -1.7980    0.4740   -4.8690 c3        1 CI9      0.120400
     34 OBK        -2.8120    1.2000   -4.1910 os        1 CI9     -0.437600
     35 CAU        -2.4740    1.6420   -2.8800 c3        1 CI9      0.094400
     36 CAT        -1.2890    2.6050   -2.8760 c3        1 CI9      0.094400
     37 OBJ        -1.5160    3.6680   -1.9630 os        1 CI9     -0.442600
     38 CAS        -0.9610    3.4800   -0.6610 c3        1 CI9      0.095400
     39 CAR        -2.0790    3.4330    0.3850 c3        1 CI9      0.150800
     40 NBG        -2.7960    2.1800    0.4010 nh        1 CI9     -0.726600
     41 CBT        -3.9180    1.9790    1.1500 ca        1 CI9      0.276600
     42 CAM        -4.5690    3.0590    1.8180 ca        1 CI9     -0.238000
     43 CAL        -5.7840    2.9020    2.4550 ca        1 CI9     -0.030000
     44 CBS        -6.4160    1.6480    2.4780 ca        1 CI9     -0.129400
     45 NBY        -7.7190    1.5390    3.1520 nh        1 CI9     -0.069000
     46 OAJ        -8.5290    0.7940    2.3660 oh        1 CI9     -0.454800
     47 OAE        -7.6390    0.8580    4.2990 oh        1 CI9     -0.454800
     48 CAN        -5.7820    0.5510    1.8760 ca        1 CI9     -0.052000
     49 CBU        -4.5410    0.6810    1.2570 ca        1 CI9     -0.056400
     50 NBZ        -3.7800   -0.5000    0.8140 nh        1 CI9     -0.085000
     51 OAK        -4.4820   -1.6210    1.0760 oh        1 CI9     -0.467800
     52 OAF        -3.6780   -0.4650   -0.5280 oh        1 CI9     -0.467800
     53 HAZ1        5.6690    1.5190   -1.8690 hc        1 CI9      0.025200
     54 HAZ2        4.9800    0.6310   -3.2870 hc        1 CI9      0.025200
     55 HBB1        5.0990   -1.5210   -2.0120 hc        1 CI9      0.048200
     56 HBB2        5.8200   -0.6520   -0.6010 hc        1 CI9      0.048200
     57 HBW         3.0240   -0.0700   -1.8670 h1        1 CI9      0.071700
     58 HBI         4.2970    0.8560    0.6170 hn        1 CI9      0.278500
     59 H           3.0930    2.4690    1.8700 hn        1 CI9      0.289500
     60 HA          0.1780    2.1750    1.5260 h1        1 CI9      0.060700
     61 HB1C        1.9210    1.3900    3.9780 hc        1 CI9      0.037700
     62 HB2C        0.1160    1.4380    3.9130 hc        1 CI9      0.037700
     63 HAP1        0.1130   -0.2970    2.1070 hc        1 CI9      0.070700
     64 HAP2        1.9150   -0.3570    2.1190 hc        1 CI9      0.070700
     65 HAQ1        1.7560   -0.9210    4.6540 hc        1 CI9      0.034700
     66 HAQ2       -0.0180   -1.1710    4.3940 hc        1 CI9      0.034700
     67 HBC1        2.2910   -2.5430    2.8030 h1        1 CI9      0.080700
     68 HBC2        1.4300   -3.2780    4.2680 h1        1 CI9      0.080700
     69 HAO         1.4720   -3.0230    0.5990 h4        1 CI9      0.290000
     70 HBD1       -0.3830   -4.2310   -1.3790 h1        1 CI9      0.045700
     71 HBD2       -2.1600   -4.2860   -0.8880 h1        1 CI9      0.045700
     72 HAY1       -0.7070   -0.5910   -1.5970 h1        1 CI9      0.096200
     73 HAY2        0.4750   -1.8010   -0.9010 h1        1 CI9      0.096200
     74 HAX1        1.3450   -1.8750   -3.0130 h1        1 CI9      0.071700
     75 HAX2       -0.0930   -2.9810   -3.3810 h1        1 CI9      0.071700
     76 HAW1       -1.8350   -1.7130   -5.0140 h1        1 CI9      0.033700
     77 HAW2       -2.1510   -1.0690   -3.3380 h1        1 CI9      0.033700
     78 HAV1       -0.8380    1.0570   -4.8810 h1        1 CI9      0.047700
     79 HAV2       -2.1970    0.3850   -5.9140 h1        1 CI9      0.047700
     80 HAU1       -3.4070    2.1630   -2.5310 h1        1 CI9      0.060700
     81 HAU2       -2.2750    0.7590   -2.2160 h1        1 CI9      0.060700
     82 HAT1       -0.3330    2.0610   -2.6510 h1        1 CI9      0.060700
     83 HAT2       -1.2060    3.1120   -3.8770 h1        1 CI9      0.060700
     84 HAS1       -0.2850    2.5830   -0.6030 h1        1 CI9      0.093200
     85 HAS2       -0.3540    4.4060   -0.4610 h1        1 CI9      0.093200
     86 HAR1       -1.5980    3.6350    1.3980 h1        1 CI9      0.086700
     87 HAR2       -2.8110    4.2590    0.1560 h1        1 CI9      0.086700
     88 HBG        -2.3080    1.3900    0.0360 hn        1 CI9      0.452800
     89 HAM        -4.0790    4.0450    1.8460 ha        1 CI9      0.151000
     90 HAL        -6.2480    3.7680    2.9520 ha        1 CI9      0.124000
     91 HAN        -6.2760   -0.4360    1.8980 ha        1 CI9      0.146000
     92 HAE        -7.0240    0.1020    4.2250 ho        1 CI9      0.403000
     93 HAJ        -9.4310    1.0390    2.6330 ho        1 CI9      0.403000
     94 HAK        -3.8080   -2.2610    1.3780 ho        1 CI9      0.448500
     95 HAF        -2.9230   -1.0510   -0.7470 ho        1 CI9      0.448500
@<TRIPOS>BOND
     1    1    2 1   
     2    2    3 1   
     3    2    4 1   
     4    4    5 1   
     5    4   53 1   
     6    4   54 1   
     7    5    6 1   
     8    5   55 1   
     9    5   56 1   
    10    6    7 1   
    11    6   10 1   
    12    6   57 1   
    13    7    8 1   
    14    7    9 1   
    15   10   11 1   
    16   10   58 1   
    17   11   12 2   
    18   11   13 1   
    19   13   14 1   
    20   13   59 1   
    21   14   15 1   
    22   14   18 1   
    23   14   60 1   
    24   15   16 1   
    25   15   17 1   
    26   18   19 1   
    27   18   61 1   
    28   18   62 1   
    29   19   20 1   
    30   19   63 1   
    31   19   64 1   
    32   20   21 1   
    33   20   65 1   
    34   20   66 1   
    35   21   22 1   
    36   21   67 1   
    37   21   68 1   
    38   22   23 1   
    39   22   24 1   
    40   23   26 2   
    41   23   69 1   
    42   24   25 2   
    43   25   26 1   
    44   26   27 1   
    45   27   28 1   
    46   27   70 1   
    47   27   71 1   
    48   28   29 1   
    49   29   30 1   
    50   29   72 1   
    51   29   73 1   
    52   30   31 1   
    53   30   74 1   
    54   30   75 1   
    55   31   32 1   
    56   32   33 1   
    57   32   76 1   
    58   32   77 1   
    59   33   34 1   
    60   33   78 1   
    61   33   79 1   
    62   34   35 1   
    63   35   36 1   
    64   35   80 1   
    65   35   81 1   
    66   36   37 1   
    67   36   82 1   
    68   36   83 1   
    69   37   38 1   
    70   38   39 1   
    71   38   84 1   
    72   38   85 1   
    73   39   40 1   
    74   39   86 1   
    75   39   87 1   
    76   40   41 1   
    77   40   88 1   
    78   41   42 ar  
    79   41   49 ar  
    80   42   43 ar  
    81   42   89 1   
    82   43   44 ar  
    83   43   90 1   
    84   44   45 1   
    85   44   48 ar  
    86   45   46 1   
    87   45   47 1   
    88   46   93 1   
    89   47   92 1   
    90   48   49 ar  
    91   48   91 1   
    92   49   50 1   
    93   50   51 1   
    94   50   52 1   
    95   51   94 1   
    96   52   95 1   
@<TRIPOS>SUBSTRUCTURE
     1 CI9         1 TEMP              0 ****  ****    0 ROOT
