@<TRIPOS>MOLECULE
CI9
   97    98     1     0     0
SMALL
bcc


@<TRIPOS>ATOM
      1 OAA         7.8180    2.0010   -2.1590 o         1 CI9     -0.502000
      2 CBN         7.0410    1.0490   -2.0770 c         1 CI9      0.628100
      3 OAG         7.0200    0.4800   -0.8310 oh        1 CI9     -0.591100
      4 CAZ         6.1390    0.5210   -3.1500 c3        1 CI9     -0.179400
      5 CBB         6.3590   -0.9520   -3.4150 c3        1 CI9     -0.073400
      6 CBW         5.4840   -1.4610   -4.5570 c3        1 CI9     -0.077300
      7 CBP         5.9790   -2.8760   -5.0060 c         1 CI9      0.896600
      8 OAI         7.2070   -3.1110   -5.0430 o         1 CI9     -0.825800
      9 OAC         5.0850   -3.7150   -5.3480 o         1 CI9     -0.825800
     10 NBI         4.0560   -1.4560   -4.2110 ns        1 CI9     -0.451900
     11 CBQ         3.2520   -1.9880   -5.2480 c         1 CI9      0.657100
     12 OAD         3.1520   -1.4860   -6.3710 o         1 CI9     -0.511100
     13 N           2.3940   -3.1970   -4.9430 ny        1 CI9     -0.657800
     14 CA          1.1480   -3.3260   -5.7590 c3        1 CI9     -0.039500
     15 C          -0.1220   -3.3730   -4.8030 c         1 CI9      0.925600
     16 OXT         0.1140   -3.3250   -3.5630 o         1 CI9     -0.786300
     17 O          -1.2280   -3.4410   -5.3750 o         1 CI9     -0.786300
     18 CB          1.1490   -4.5690   -6.6410 c3        1 CI9     -0.085400
     19 CAP         2.2860   -4.6010   -7.6430 c3        1 CI9     -0.098400
     20 CAQ         3.3450   -5.6280   -7.2870 c3        1 CI9     -0.094400
     21 CBC         4.6650   -5.2590   -7.9660 c3        1 CI9      0.050300
     22 NBX         5.7510   -6.1810   -7.6950 na        1 CI9      0.051400
     23 CAO         6.7630   -5.9620   -6.7540 cc        1 CI9     -0.156600
     24 NBF         5.9040   -7.4080   -8.2590 nc        1 CI9     -0.205800
     25 NBE         6.9280   -7.9820   -7.7780 nd        1 CI9     -0.350000
     26 CBR         7.5350   -7.1410   -6.8130 cd        1 CI9      0.196600
     27 CBD         8.7440   -7.4710   -6.0360 c3        1 CI9      0.131100
     28 OBM         9.8650   -7.4480   -6.9300 os        1 CI9     -0.414600
     29 CAY        11.0870   -7.6900   -6.2420 c3        1 CI9      0.128400
     30 CAX        12.1770   -7.6170   -7.3080 c3        1 CI9      0.127400
     31 OBL        13.4100   -7.8380   -6.6230 os        1 CI9     -0.432600
     32 CAW        14.5300   -7.7410   -7.4990 c3        1 CI9      0.129400
     33 CAV        15.7600   -8.0860   -6.6660 c3        1 CI9      0.126400
     34 OBK        16.1950   -9.3760   -7.0960 os        1 CI9     -0.428600
     35 CAU        17.1720   -9.9360   -6.2230 c3        1 CI9      0.128400
     36 CAT        17.6050  -11.2550   -6.8560 c3        1 CI9      0.126400
     37 OBJ        18.9650  -11.0840   -7.2590 os        1 CI9     -0.434600
     38 CAS        19.4280  -12.1640   -8.0630 c3        1 CI9      0.118400
     39 CAR        20.8890  -11.8650   -8.4200 c3        1 CI9      0.192800
     40 NBG        21.7660  -11.8810   -7.2730 nu        1 CI9     -0.726600
     41 CBT        23.0670  -11.4030   -7.4080 ca        1 CI9      0.207600
     42 CAM        23.7290  -11.4450   -8.6610 ca        1 CI9     -0.202000
     43 CAL        25.0680  -11.1200   -8.7910 ca        1 CI9     -0.060000
     44 CBS        25.8180  -10.7410   -7.6650 ca        1 CI9     -0.009400
     45 NBY        27.2740  -10.5690   -7.7750 nh        1 CI9     -0.105000
     46 OAJ        27.5410   -9.9560   -8.9430 oh        1 CI9     -0.437300
     47 OAE        27.7060   -9.7000   -6.8360 oh        1 CI9     -0.437300
     48 CAN        25.1810  -10.6400   -6.4210 ca        1 CI9     -0.062000
     49 CBU        23.8200  -10.9360   -6.2850 ca        1 CI9     -0.041400
     50 NBZ        23.1160  -10.6660   -5.0160 nh        1 CI9     -0.104000
     51 OAK        22.7370  -11.8450   -4.4910 oh        1 CI9     -0.437800
     52 OAF        23.9610  -10.1560   -4.0950 oh        1 CI9     -0.437800
     53 HAZ1        6.3270    1.1070   -4.0900 hc        1 CI9      0.084200
     54 HAZ2        5.0780    0.7120   -2.8370 hc        1 CI9      0.084200
     55 HBB1        7.4260   -1.1410   -3.7240 hc        1 CI9      0.070200
     56 HBB2        6.1730   -1.5520   -2.4860 hc        1 CI9      0.070200
     57 HBW         5.6020   -0.7800   -5.4500 h1        1 CI9      0.091700
     58 HBI         6.4160   -0.2760   -0.8280 ho        1 CI9      0.425000
     59 H           2.0830   -3.1920   -3.9490 hn        1 CI9      0.476300
     60 HA          1.0470   -2.4080   -6.4040 hx        1 CI9      0.103700
     61 HB1C        0.1580   -4.5550   -7.1740 hc        1 CI9      0.073200
     62 HB2C        1.1570   -5.4920   -6.0030 hc        1 CI9      0.073200
     63 HAP1        1.8780   -4.8430   -8.6590 hc        1 CI9      0.050700
     64 HAP2        2.7540   -3.5810   -7.7190 hc        1 CI9      0.050700
     65 HAQ1        3.5090   -5.6610   -6.1770 hc        1 CI9      0.052700
     66 HAQ2        3.0080   -6.6480   -7.6050 hc        1 CI9      0.052700
     67 HBC1        4.9960   -4.2480   -7.5820 h1        1 CI9      0.078200
     68 HBC2        4.5080   -5.2050   -9.0800 h1        1 CI9      0.078200
     69 HAO         6.8310   -5.0440   -6.1470 h4        1 CI9      0.255000
     70 HBD1        8.6660   -8.4950   -5.5780 h1        1 CI9      0.038200
     71 HBD2        8.8970   -6.7060   -5.2260 h1        1 CI9      0.038200
     72 HAY1       11.0690   -8.7040   -5.7630 h1        1 CI9      0.035200
     73 HAY2       11.2530   -6.9110   -5.4530 h1        1 CI9      0.035200
     74 HAX1       12.1830   -6.6090   -7.7980 h1        1 CI9      0.042700
     75 HAX2       12.0250   -8.4090   -8.0870 h1        1 CI9      0.042700
     76 HAW1       14.6070   -6.6920   -7.8910 h1        1 CI9      0.043200
     77 HAW2       14.4140   -8.4560   -8.3570 h1        1 CI9      0.043200
     78 HAV1       15.5050   -8.1030   -5.5730 h1        1 CI9      0.043700
     79 HAV2       16.5820   -7.3460   -6.8510 h1        1 CI9      0.043700
     80 HAU1       18.0440   -9.2360   -6.1190 h1        1 CI9      0.043200
     81 HAU2       16.7130  -10.1170   -5.2160 h1        1 CI9      0.043200
     82 HAT1       17.5490  -12.0900   -6.1090 h1        1 CI9      0.046200
     83 HAT2       16.9630  -11.4990   -7.7430 h1        1 CI9      0.046200
     84 HAS1       18.8260  -12.2210   -9.0090 h1        1 CI9      0.040700
     85 HAS2       19.3290  -13.1290   -7.4990 h1        1 CI9      0.040700
     86 HAR1       20.9300  -10.8720   -8.9560 h1        1 CI9      0.049200
     87 HAR2       21.2290  -12.6660   -9.1380 h1        1 CI9      0.049200
     88 HBG        21.3040  -11.6590   -6.4150 hn        1 CI9      0.429800
     89 HAM        23.1750  -11.7520   -9.5620 ha        1 CI9      0.138000
     90 HAL        25.5450  -11.1590   -9.7830 ha        1 CI9      0.147000
     91 HAN        25.7560  -10.3090   -5.5380 ha        1 CI9      0.162000
     92 HAE        28.4120  -10.1800   -6.3680 ho        1 CI9      0.419500
     93 HAJ        28.4780  -10.1520   -9.1260 ho        1 CI9      0.419500
     94 HAK        22.1660  -11.6240   -3.7310 ho        1 CI9      0.426000
     95 HAF        23.7050   -9.2190   -4.0250 ho        1 CI9      0.426000
     96 HBI2        3.9060   -1.8970   -3.3210 hn        1 CI9      0.269500
     97 H2          3.0150   -4.0080   -5.1010 hn        1 CI9      0.476300
@<TRIPOS>BOND
     1    1    2 2   
     2    2    3 1   
     3    2    4 1   
     4    3   58 1   
     5    4    5 1   
     6    4   53 1   
     7    4   54 1   
     8    5    6 1   
     9    5   55 1   
    10    5   56 1   
    11    6    7 1   
    12    6   10 1   
    13    6   57 1   
    14    7    8 1   
    15    7    9 1   
    16   10   11 1   
    17   10   96 1   
    18   11   12 2   
    19   11   13 1   
    20   13   14 1   
    21   13   59 1   
    22   13   97 1   
    23   14   15 1   
    24   14   18 1   
    25   14   60 1   
    26   15   16 1   
    27   15   17 1   
    28   18   19 1   
    29   18   61 1   
    30   18   62 1   
    31   19   20 1   
    32   19   63 1   
    33   19   64 1   
    34   20   21 1   
    35   20   65 1   
    36   20   66 1   
    37   21   22 1   
    38   21   67 1   
    39   21   68 1   
    40   22   23 1   
    41   22   24 1   
    42   23   26 2   
    43   23   69 1   
    44   24   25 2   
    45   25   26 1   
    46   26   27 1   
    47   27   28 1   
    48   27   70 1   
    49   27   71 1   
    50   28   29 1   
    51   29   30 1   
    52   29   72 1   
    53   29   73 1   
    54   30   31 1   
    55   30   74 1   
    56   30   75 1   
    57   31   32 1   
    58   32   33 1   
    59   32   76 1   
    60   32   77 1   
    61   33   34 1   
    62   33   78 1   
    63   33   79 1   
    64   34   35 1   
    65   35   36 1   
    66   35   80 1   
    67   35   81 1   
    68   36   37 1   
    69   36   82 1   
    70   36   83 1   
    71   37   38 1   
    72   38   39 1   
    73   38   84 1   
    74   38   85 1   
    75   39   40 1   
    76   39   86 1   
    77   39   87 1   
    78   40   41 1   
    79   40   88 1   
    80   41   42 ar  
    81   41   49 ar  
    82   42   43 ar  
    83   42   89 1   
    84   43   44 ar  
    85   43   90 1   
    86   44   45 1   
    87   44   48 ar  
    88   45   46 1   
    89   45   47 1   
    90   46   93 1   
    91   47   92 1   
    92   48   49 ar  
    93   48   91 1   
    94   49   50 1   
    95   50   51 1   
    96   50   52 1   
    97   51   94 1   
    98   52   95 1   
@<TRIPOS>SUBSTRUCTURE
     1 CI9         1 TEMP              0 ****  ****    0 ROOT
