@<TRIPOS>MOLECULE
CI9
   95    96     1     0     0
SMALL
bcc


@<TRIPOS>ATOM
      1 OAA        14.8440   -7.4460   -4.2570 o         1 CI9     -0.891800
      2 CBN        14.4640   -6.2370   -4.0920 c         1 CI9      0.911600
      3 OAG        15.1340   -5.4750   -3.3230 o         1 CI9     -0.891800
      4 CAZ        13.2410   -5.6930   -4.8110 c3        1 CI9     -0.165400
      5 CBB        12.1050   -6.6870   -4.8650 c3        1 CI9     -0.053400
      6 CBW        10.8510   -6.1450   -5.5720 c3        1 CI9     -0.034300
      7 CBP         9.9640   -7.3680   -5.9390 c         1 CI9      0.892600
      8 OAI        10.1620   -7.9330   -7.0590 o         1 CI9     -0.865300
      9 OAC         9.0700   -7.7630   -5.1330 o         1 CI9     -0.865300
     10 NBI        10.1630   -5.1450   -4.7660 n         1 CI9     -0.503900
     11 CBQ         9.1660   -4.3540   -5.4050 c         1 CI9      0.727100
     12 OAD         9.1940   -4.1670   -6.6500 o         1 CI9     -0.674100
     13 N           8.2520   -3.6390   -4.6010 n         1 CI9     -0.514900
     14 CA          6.9140   -3.3850   -5.0890 c3        1 CI9     -0.026300
     15 C           6.2000   -2.2830   -4.2280 c         1 CI9      0.919600
     16 OXT         6.2530   -2.3650   -2.9680 o         1 CI9     -0.853300
     17 O           5.5600   -1.3910   -4.8540 o         1 CI9     -0.853300
     18 CB          5.9700   -4.6020   -5.0540 c3        1 CI9     -0.096400
     19 CAP         6.4530   -5.7770   -5.8710 c3        1 CI9     -0.103400
     20 CAQ         5.5130   -6.9590   -5.7530 c3        1 CI9     -0.078400
     21 CBC         6.1460   -8.2410   -6.2930 c3        1 CI9      0.016300
     22 NBX         6.1940   -8.3320   -7.7430 na        1 CI9      0.071400
     23 CAO         7.3450   -8.1240   -8.5070 cc        1 CI9     -0.149600
     24 NBF         5.1220   -8.4930   -8.5570 nc        1 CI9     -0.230800
     25 NBE         5.4840   -8.4160   -9.7750 nd        1 CI9     -0.397000
     26 CBR         6.8770   -8.1730   -9.8410 cd        1 CI9      0.144600
     27 CBD         7.6280   -8.0080  -11.1040 c3        1 CI9      0.136100
     28 OBM         8.8820   -7.3670  -10.9390 os        1 CI9     -0.419600
     29 CAY         8.7990   -6.0120  -10.4920 c3        1 CI9      0.122400
     30 CAX         9.9450   -5.7580   -9.5210 c3        1 CI9      0.080400
     31 OBL        11.1310   -5.5580  -10.2970 os        1 CI9     -0.441600
     32 CAW        12.3140   -5.9280   -9.6040 c3        1 CI9      0.108400
     33 CAV        12.4110   -7.4430   -9.4350 c3        1 CI9      0.067400
     34 OBK        13.7590   -7.8830   -9.5740 os        1 CI9     -0.438600
     35 CAU        14.5890   -7.5820   -8.4600 c3        1 CI9      0.126400
     36 CAT        14.3470   -8.5030   -7.2710 c3        1 CI9      0.064400
     37 OBJ        15.3120   -9.5610   -7.3570 os        1 CI9     -0.444600
     38 CAS        15.5490  -10.2120   -6.1190 c3        1 CI9      0.118400
     39 CAR        17.0530  -10.1150   -5.8010 c3        1 CI9      0.199800
     40 NBG        17.3790   -9.0000   -4.9610 nh        1 CI9     -0.746600
     41 CBT        18.6660   -8.5970   -4.7410 ca        1 CI9      0.268600
     42 CAM        19.7840   -9.3260   -5.2300 ca        1 CI9     -0.273000
     43 CAL        21.0870   -8.9190   -4.9870 ca        1 CI9     -0.036000
     44 CBS        21.3420   -7.7640   -4.2410 ca        1 CI9     -0.120400
     45 NBY        22.7430   -7.3620   -4.0350 nh        1 CI9     -0.073000
     46 OAJ        22.9140   -7.1270   -2.7150 oh        1 CI9     -0.454300
     47 OAE        23.0250   -6.1980   -4.6290 oh        1 CI9     -0.454300
     48 CAN        20.2600   -7.0290   -3.7160 ca        1 CI9     -0.073000
     49 CBU        18.9500   -7.4070   -3.9610 ca        1 CI9     -0.018400
     50 NBZ        17.7830   -6.6070   -3.5560 nh        1 CI9     -0.053000
     51 OAK        17.1710   -7.2390   -2.5430 oh        1 CI9     -0.495800
     52 OAF        18.1610   -5.4180   -3.0560 oh        1 CI9     -0.495800
     53 HAZ1       13.5530   -5.4210   -5.8540 hc        1 CI9      0.040200
     54 HAZ2       12.9110   -4.7530   -4.2990 hc        1 CI9      0.040200
     55 HBB1       12.4390   -7.5980   -5.4320 hc        1 CI9      0.045700
     56 HBB2       11.8470   -7.0220   -3.8280 hc        1 CI9      0.045700
     57 HBW        11.1560   -5.6490   -6.5400 h1        1 CI9      0.069700
     58 HBI         9.8680   -5.5380   -3.8940 hn        1 CI9      0.272500
     59 H           8.2730   -3.8100   -3.6180 hn        1 CI9      0.290500
     60 HA          6.9990   -3.0180   -6.1510 h1        1 CI9      0.071700
     61 HB1C        5.8260   -4.9150   -3.9860 hc        1 CI9      0.035700
     62 HB2C        4.9760   -4.2560   -5.4390 hc        1 CI9      0.035700
     63 HAP1        7.4750   -6.1030   -5.5240 hc        1 CI9      0.065700
     64 HAP2        6.5580   -5.4720   -6.9450 hc        1 CI9      0.065700
     65 HAQ1        5.2860   -7.1440   -4.6690 hc        1 CI9      0.033700
     66 HAQ2        4.5430   -6.7380   -6.2670 hc        1 CI9      0.033700
     67 HBC1        5.5600   -9.1260   -5.9140 h1        1 CI9      0.094200
     68 HBC2        7.2200   -8.3130   -5.9190 h1        1 CI9      0.094200
     69 HAO         8.3510   -7.9830   -8.0640 h4        1 CI9      0.275000
     70 HBD1        7.0100   -7.4440  -11.8570 h1        1 CI9      0.031700
     71 HBD2        7.9030   -9.0140  -11.5290 h1        1 CI9      0.031700
     72 HAY1        8.8840   -5.3580  -11.4000 h1        1 CI9      0.037200
     73 HAY2        7.8290   -5.8150   -9.9660 h1        1 CI9      0.037200
     74 HAX1       10.0580   -6.6240   -8.8090 h1        1 CI9      0.096200
     75 HAX2        9.7490   -4.8210   -8.9310 h1        1 CI9      0.096200
     76 HAW1       12.3520   -5.4140   -8.6070 h1        1 CI9      0.041200
     77 HAW2       13.1440   -5.5490  -10.2590 h1        1 CI9      0.041200
     78 HAV1       11.8690   -7.9600  -10.2720 h1        1 CI9      0.087700
     79 HAV2       11.9700   -7.7630   -8.4500 h1        1 CI9      0.087700
     80 HAU1       15.6320   -7.7200   -8.8550 h1        1 CI9      0.046700
     81 HAU2       14.4370   -6.5180   -8.1380 h1        1 CI9      0.046700
     82 HAT1       14.4700   -7.9340   -6.3040 h1        1 CI9      0.087700
     83 HAT2       13.3230   -8.9620   -7.3130 h1        1 CI9      0.087700
     84 HAS1       14.9150   -9.7920   -5.2900 h1        1 CI9      0.060200
     85 HAS2       15.2930  -11.2940   -6.2790 h1        1 CI9      0.060200
     86 HAR1       17.6170  -10.0520   -6.7770 h1        1 CI9      0.025700
     87 HAR2       17.3690  -11.0680   -5.2840 h1        1 CI9      0.025700
     88 HBG        16.6100   -8.4140   -4.6600 hn        1 CI9      0.515800
     89 HAM        19.6190  -10.2370   -5.8220 ha        1 CI9      0.123000
     90 HAL        21.9180   -9.5140   -5.3960 ha        1 CI9      0.115000
     91 HAN        20.4550   -6.1370   -3.0960 ha        1 CI9      0.146000
     92 HAE        22.2890   -5.5610   -4.5370 ho        1 CI9      0.402500
     93 HAJ        23.8730   -7.1960   -2.5700 ho        1 CI9      0.402500
     94 HAK        16.2020   -7.0970   -2.7140 ho        1 CI9      0.484000
     95 HAF        17.3190   -4.9070   -3.0390 ho        1 CI9      0.484000
@<TRIPOS>BOND
     1    1    2 1   
     2    2    3 1   
     3    2    4 1   
     4    4    5 1   
     5    4   53 1   
     6    4   54 1   
     7    5    6 1   
     8    5   55 1   
     9    5   56 1   
    10    6    7 1   
    11    6   10 1   
    12    6   57 1   
    13    7    8 1   
    14    7    9 1   
    15   10   11 1   
    16   10   58 1   
    17   11   12 2   
    18   11   13 1   
    19   13   14 1   
    20   13   59 1   
    21   14   15 1   
    22   14   18 1   
    23   14   60 1   
    24   15   16 1   
    25   15   17 1   
    26   18   19 1   
    27   18   61 1   
    28   18   62 1   
    29   19   20 1   
    30   19   63 1   
    31   19   64 1   
    32   20   21 1   
    33   20   65 1   
    34   20   66 1   
    35   21   22 1   
    36   21   67 1   
    37   21   68 1   
    38   22   23 1   
    39   22   24 1   
    40   23   26 2   
    41   23   69 1   
    42   24   25 2   
    43   25   26 1   
    44   26   27 1   
    45   27   28 1   
    46   27   70 1   
    47   27   71 1   
    48   28   29 1   
    49   29   30 1   
    50   29   72 1   
    51   29   73 1   
    52   30   31 1   
    53   30   74 1   
    54   30   75 1   
    55   31   32 1   
    56   32   33 1   
    57   32   76 1   
    58   32   77 1   
    59   33   34 1   
    60   33   78 1   
    61   33   79 1   
    62   34   35 1   
    63   35   36 1   
    64   35   80 1   
    65   35   81 1   
    66   36   37 1   
    67   36   82 1   
    68   36   83 1   
    69   37   38 1   
    70   38   39 1   
    71   38   84 1   
    72   38   85 1   
    73   39   40 1   
    74   39   86 1   
    75   39   87 1   
    76   40   41 1   
    77   40   88 1   
    78   41   42 ar  
    79   41   49 ar  
    80   42   43 ar  
    81   42   89 1   
    82   43   44 ar  
    83   43   90 1   
    84   44   45 1   
    85   44   48 ar  
    86   45   46 1   
    87   45   47 1   
    88   46   93 1   
    89   47   92 1   
    90   48   49 ar  
    91   48   91 1   
    92   49   50 1   
    93   50   51 1   
    94   50   52 1   
    95   51   94 1   
    96   52   95 1   
@<TRIPOS>SUBSTRUCTURE
     1 CI9         1 TEMP              0 ****  ****    0 ROOT
