@<TRIPOS>MOLECULE
CIA
   48    53     1     0     0
SMALL
bcc


@<TRIPOS>ATOM
      1 C3         -0.2380    0.6780    0.0860 ca        1 CIA     -0.110000
      2 C2          1.0810    0.2000   -0.0160 ca        1 CIA     -0.154000
      3 C1          1.8100   -0.1510    1.1090 ca        1 CIA     -0.082000
      4 C6          1.2150   -0.0240    2.3650 ca        1 CIA     -0.076800
      5 C7          1.6390   -0.2860    3.7170 cc        1 CIA     -0.138400
      6 C8          0.5740    0.0510    4.5600 cd        1 CIA     -0.084300
      7 N9         -0.5000    0.5430    3.8160 na        1 CIA     -0.167400
      8 C5         -0.1430    0.4740    2.4630 ca        1 CIA     -0.042200
      9 C4         -0.8670    0.8240    1.3120 ca        1 CIA     -0.143000
     10 C13         0.6280   -0.0870    6.0510 c3        1 CIA      0.237200
     11 N12         2.0080   -0.0410    6.5360 n         1 CIA     -0.465800
     12 C17         2.2380    0.2950    7.8620 c         1 CIA      0.691500
     13 O20         1.3190    0.6310    8.6320 o         1 CIA     -0.637500
     14 C16         3.6800    0.2610    8.3790 c3        1 CIA      0.028000
     15 N15         4.5760   -0.5920    7.6470 n         1 CIA     -0.478800
     16 C31         4.3540   -0.8490    6.3040 c         1 CIA      0.689500
     17 O32         5.1140   -1.5750    5.6410 o         1 CIA     -0.624500
     18 C11         3.1530   -0.1330    5.6450 c3        1 CIA      0.052700
     19 C10         2.8940   -0.7930    4.2770 c3        1 CIA      0.000800
     20 C18         5.6450   -1.2150    8.3730 c3        1 CIA      0.081300
     21 C22        -0.0970   -1.3490    6.4800 ca        1 CIA     -0.121300
     22 C27        -0.8230   -1.3260    7.6720 ca        1 CIA     -0.106000
     23 C26        -1.5420   -2.4450    8.1290 ca        1 CIA     -0.121000
     24 C25        -1.4840   -3.5740    7.3370 ca        1 CIA      0.066100
     25 O30        -2.0870   -4.8110    7.5350 os        1 CIA     -0.333900
     26 C29        -1.6980   -5.6480    6.4200 c3        1 CIA      0.320200
     27 O28        -0.8520   -4.8630    5.5500 os        1 CIA     -0.331900
     28 C24        -0.7350   -3.6040    6.1310 ca        1 CIA      0.045100
     29 C23        -0.0290   -2.5090    5.6800 ca        1 CIA     -0.088000
     30 H3         -0.7820    0.9420   -0.8340 ha        1 CIA      0.131000
     31 H2          1.5360    0.1040   -1.0130 ha        1 CIA      0.132000
     32 H1          2.8410   -0.5240    1.0240 ha        1 CIA      0.137000
     33 HN9        -1.4090    0.7060    4.1610 hn        1 CIA      0.303700
     34 H4         -1.8970    1.2000    1.3830 ha        1 CIA      0.134000
     35 H13         0.0900    0.7940    6.5300 h1        1 CIA      0.084700
     36 H161        3.6350   -0.0740    9.4560 h1        1 CIA      0.079200
     37 H162        4.0590    1.3250    8.3570 h1        1 CIA      0.079200
     38 H11         3.5090    0.9280    5.4380 h1        1 CIA      0.067700
     39 H101        2.8490   -1.9110    4.3960 hc        1 CIA      0.078700
     40 H102        3.7700   -0.5660    3.6130 hc        1 CIA      0.078700
     41 H181        6.2730   -0.4280    8.8710 h1        1 CIA      0.050700
     42 H182        6.2860   -1.8080    7.6670 h1        1 CIA      0.050700
     43 H183        5.2330   -1.9020    9.1610 h1        1 CIA      0.050700
     44 H27        -0.8170   -0.4120    8.2910 ha        1 CIA      0.163000
     45 H26        -2.1110   -2.4180    9.0660 ha        1 CIA      0.158000
     46 H291       -1.1060   -6.5110    6.8120 h2        1 CIA      0.072700
     47 H292       -2.6180   -5.9390    5.8560 h2        1 CIA      0.072700
     48 H23         0.5540   -2.5320    4.7480 ha        1 CIA      0.168000
@<TRIPOS>BOND
     1    1    2 ar  
     2    1    9 ar  
     3    1   30 1   
     4    2    3 ar  
     5    2   31 1   
     6    3    4 ar  
     7    3   32 1   
     8    4    5 1   
     9    4    8 ar  
    10    5    6 2   
    11    5   19 1   
    12    6    7 1   
    13    6   10 1   
    14    7    8 1   
    15    7   33 1   
    16    8    9 ar  
    17    9   34 1   
    18   10   11 1   
    19   10   21 1   
    20   10   35 1   
    21   11   12 1   
    22   11   18 1   
    23   12   13 2   
    24   12   14 1   
    25   14   15 1   
    26   14   36 1   
    27   14   37 1   
    28   15   16 1   
    29   15   20 1   
    30   16   17 2   
    31   16   18 1   
    32   18   19 1   
    33   18   38 1   
    34   19   39 1   
    35   19   40 1   
    36   20   41 1   
    37   20   42 1   
    38   20   43 1   
    39   21   22 ar  
    40   21   29 ar  
    41   22   23 ar  
    42   22   44 1   
    43   23   24 ar  
    44   23   45 1   
    45   24   25 1   
    46   24   28 ar  
    47   25   26 1   
    48   26   27 1   
    49   26   46 1   
    50   26   47 1   
    51   27   28 1   
    52   28   29 ar  
    53   29   48 1   
@<TRIPOS>SUBSTRUCTURE
     1 CIA         1 TEMP              0 ****  ****    0 ROOT
