@<TRIPOS>MOLECULE
CIA
   48    53     1     0     0
SMALL
bcc


@<TRIPOS>ATOM
      1 C3         -3.7230   -4.4540    0.1470 ca        1 CIA     -0.110000
      2 C2         -4.2530   -3.5880   -0.8280 ca        1 CIA     -0.154000
      3 C1         -3.7350   -2.3170   -1.0220 ca        1 CIA     -0.082000
      4 C6         -2.6640   -1.8970   -0.2300 ca        1 CIA     -0.076800
      5 C7         -1.8810   -0.6900   -0.1440 cc        1 CIA     -0.138400
      6 C8         -0.9350   -0.8800    0.8690 cd        1 CIA     -0.084300
      7 N9         -1.0940   -2.1360    1.4570 na        1 CIA     -0.167400
      8 C5         -2.1280   -2.7930    0.7760 ca        1 CIA     -0.042200
      9 C4         -2.6650   -4.0770    0.9580 ca        1 CIA     -0.143000
     10 C13         0.0740    0.1580    1.2570 c3        1 CIA      0.237200
     11 N12        -0.3880    1.5010    0.9080 n         1 CIA     -0.465800
     12 C17         0.1660    2.5900    1.5670 c         1 CIA      0.691500
     13 O20         0.9860    2.4580    2.4950 o         1 CIA     -0.637500
     14 C16        -0.2670    3.9940    1.1360 c3        1 CIA      0.028000
     15 N15        -0.7730    4.0980   -0.2050 n         1 CIA     -0.478800
     16 C31        -1.3840    3.0100   -0.8060 c         1 CIA      0.689500
     17 O32        -1.8410    3.0690   -1.9610 o         1 CIA     -0.624500
     18 C11        -1.5390    1.7340    0.0520 c3        1 CIA      0.052700
     19 C10        -1.9310    0.5730   -0.8840 c3        1 CIA      0.000800
     20 C18        -0.5530    5.3300   -0.9070 c3        1 CIA      0.081300
     21 C22         1.4200   -0.1730    0.6390 ca        1 CIA     -0.121300
     22 C27         2.5750    0.1010    1.3740 ca        1 CIA     -0.106000
     23 C26         3.8590   -0.1970    0.8840 ca        1 CIA     -0.121000
     24 C25         3.9170   -0.7680   -0.3710 ca        1 CIA      0.066100
     25 O30         5.0330   -1.1640   -1.0990 os        1 CIA     -0.333900
     26 C29         4.5460   -1.6900   -2.3570 c3        1 CIA      0.320200
     27 O28         3.1030   -1.6020   -2.3460 os        1 CIA     -0.331900
     28 C24         2.7440   -1.0350   -1.1260 ca        1 CIA      0.045100
     29 C23         1.4840   -0.7450   -0.6490 ca        1 CIA     -0.088000
     30 H3         -4.1640   -5.4550    0.2650 ha        1 CIA      0.131000
     31 H2         -5.0950   -3.9340   -1.4460 ha        1 CIA      0.132000
     32 H1         -4.1520   -1.6430   -1.7840 ha        1 CIA      0.137000
     33 HN9        -0.4630   -2.5580    2.0840 hn        1 CIA      0.303700
     34 H4         -2.2590   -4.7580    1.7170 ha        1 CIA      0.134000
     35 H13         0.2070    0.1480    2.3880 h1        1 CIA      0.084700
     36 H161        0.6330    4.6660    1.2530 h1        1 CIA      0.079200
     37 H162       -1.0560    4.3320    1.8720 h1        1 CIA      0.079200
     38 H11        -2.4330    1.9300    0.7280 h1        1 CIA      0.067700
     39 H101       -2.9590    0.7840   -1.2820 hc        1 CIA      0.078700
     40 H102       -1.2330    0.5430   -1.7650 hc        1 CIA      0.078700
     41 H181        0.5470    5.5120   -1.0400 h1        1 CIA      0.050700
     42 H182       -1.0420    5.2820   -1.9170 h1        1 CIA      0.050700
     43 H183       -0.9930    6.1820   -0.3230 h1        1 CIA      0.050700
     44 H27         2.4840    0.5870    2.3610 ha        1 CIA      0.163000
     45 H26         4.7610    0.0210    1.4690 ha        1 CIA      0.158000
     46 H291        4.9370   -1.0510   -3.1860 h2        1 CIA      0.072700
     47 H292        4.8380   -2.7660   -2.4280 h2        1 CIA      0.072700
     48 H23         0.5750   -0.9480   -1.2340 ha        1 CIA      0.168000
@<TRIPOS>BOND
     1    1    2 ar  
     2    1    9 ar  
     3    1   30 1   
     4    2    3 ar  
     5    2   31 1   
     6    3    4 ar  
     7    3   32 1   
     8    4    5 1   
     9    4    8 ar  
    10    5    6 2   
    11    5   19 1   
    12    6    7 1   
    13    6   10 1   
    14    7    8 1   
    15    7   33 1   
    16    8    9 ar  
    17    9   34 1   
    18   10   11 1   
    19   10   21 1   
    20   10   35 1   
    21   11   12 1   
    22   11   18 1   
    23   12   13 2   
    24   12   14 1   
    25   14   15 1   
    26   14   36 1   
    27   14   37 1   
    28   15   16 1   
    29   15   20 1   
    30   16   17 2   
    31   16   18 1   
    32   18   19 1   
    33   18   38 1   
    34   19   39 1   
    35   19   40 1   
    36   20   41 1   
    37   20   42 1   
    38   20   43 1   
    39   21   22 ar  
    40   21   29 ar  
    41   22   23 ar  
    42   22   44 1   
    43   23   24 ar  
    44   23   45 1   
    45   24   25 1   
    46   24   28 ar  
    47   25   26 1   
    48   26   27 1   
    49   26   46 1   
    50   26   47 1   
    51   27   28 1   
    52   28   29 ar  
    53   29   48 1   
@<TRIPOS>SUBSTRUCTURE
     1 CIA         1 TEMP              0 ****  ****    0 ROOT
