@<TRIPOS>MOLECULE
CIA
   48    53     1     0     0
SMALL
bcc


@<TRIPOS>ATOM
      1 C3         -0.3460    0.5440    0.0750 ca        1 CIA     -0.110000
      2 C2          0.9770    0.0780   -0.0390 ca        1 CIA     -0.154000
      3 C1          1.7290   -0.2390    1.0820 ca        1 CIA     -0.082000
      4 C6          1.1530   -0.0920    2.3450 ca        1 CIA     -0.076800
      5 C7          1.6020   -0.3180    3.6950 cc        1 CIA     -0.138400
      6 C8          0.5470    0.0250    4.5480 cd        1 CIA     -0.084300
      7 N9         -0.5450    0.4880    3.8110 na        1 CIA     -0.167400
      8 C5         -0.2100    0.3940    2.4540 ca        1 CIA     -0.042200
      9 C4         -0.9570    0.7100    1.3080 ca        1 CIA     -0.143000
     10 C13         0.6280   -0.0810    6.0400 c3        1 CIA      0.237200
     11 N12         2.0150   -0.0070    6.5010 n         1 CIA     -0.465800
     12 C17         2.2630    0.3600    7.8150 c         1 CIA      0.691500
     13 O20         1.3520    0.7030    8.5930 o         1 CIA     -0.637500
     14 C16         3.7130    0.3540    8.3080 c3        1 CIA      0.028000
     15 N15         4.6070   -0.5050    7.5800 n         1 CIA     -0.478800
     16 C31         4.3650   -0.7930    6.2480 c         1 CIA      0.689500
     17 O32         5.1230   -1.5260    5.5870 o         1 CIA     -0.624500
     18 C11         3.1460   -0.1060    5.5930 c3        1 CIA      0.052700
     19 C10         2.8720   -0.7990    4.2440 c3        1 CIA      0.000800
     20 C18         5.6950   -1.1000    8.3020 c3        1 CIA      0.081300
     21 C22        -0.0750   -1.3410    6.5090 ca        1 CIA     -0.121300
     22 C27        -0.7810   -1.3000    7.7130 ca        1 CIA     -0.106000
     23 C26        -1.4790   -2.4170    8.2060 ca        1 CIA     -0.121000
     24 C25        -1.4210   -3.5620    7.4380 ca        1 CIA      0.066100
     25 O30        -2.0060   -4.8010    7.6730 os        1 CIA     -0.333900
     26 C29        -1.6260   -5.6580    6.5700 c3        1 CIA      0.320200
     27 O28        -0.8030   -4.8830    5.6680 os        1 CIA     -0.331900
     28 C24        -0.6920   -3.6090    6.2200 ca        1 CIA      0.045100
     29 C23        -0.0070   -2.5170    5.7330 ca        1 CIA     -0.088000
     30 H3         -0.9080    0.7820   -0.8410 ha        1 CIA      0.131000
     31 H2          1.4160   -0.0340   -1.0410 ha        1 CIA      0.132000
     32 H1          2.7620   -0.6020    0.9880 ha        1 CIA      0.137000
     33 HN9        -1.4490    0.6480    4.1680 hn        1 CIA      0.303700
     34 H4         -1.9890    1.0750    1.3880 ha        1 CIA      0.134000
     35 H13         0.0870    0.8050    6.5090 h1        1 CIA      0.084700
     36 H161        4.0800    1.4220    8.2560 h1        1 CIA      0.079200
     37 H162        3.6900    0.0440    9.3930 h1        1 CIA      0.079200
     38 H11         3.4860    0.9540    5.3570 h1        1 CIA      0.067700
     39 H101        2.8420   -1.9140    4.3890 hc        1 CIA      0.078700
     40 H102        3.7340   -0.5770    3.5610 hc        1 CIA      0.078700
     41 H181        6.3310   -1.7020    7.5990 h1        1 CIA      0.050700
     42 H182        5.3040   -1.7730    9.1120 h1        1 CIA      0.050700
     43 H183        6.3220   -0.2950    8.7710 h1        1 CIA      0.050700
     44 H27        -0.7750   -0.3720    8.3110 ha        1 CIA      0.163000
     45 H26        -2.0320   -2.3750    9.1520 ha        1 CIA      0.158000
     46 H291       -1.0170   -6.5050    6.9700 h2        1 CIA      0.072700
     47 H292       -2.5520   -5.9720    6.0280 h2        1 CIA      0.072700
     48 H23         0.5610   -2.5540    4.7930 ha        1 CIA      0.168000
@<TRIPOS>BOND
     1    1    2 ar  
     2    1    9 ar  
     3    1   30 1   
     4    2    3 ar  
     5    2   31 1   
     6    3    4 ar  
     7    3   32 1   
     8    4    5 1   
     9    4    8 ar  
    10    5    6 2   
    11    5   19 1   
    12    6    7 1   
    13    6   10 1   
    14    7    8 1   
    15    7   33 1   
    16    8    9 ar  
    17    9   34 1   
    18   10   11 1   
    19   10   21 1   
    20   10   35 1   
    21   11   12 1   
    22   11   18 1   
    23   12   13 2   
    24   12   14 1   
    25   14   15 1   
    26   14   36 1   
    27   14   37 1   
    28   15   16 1   
    29   15   20 1   
    30   16   17 2   
    31   16   18 1   
    32   18   19 1   
    33   18   38 1   
    34   19   39 1   
    35   19   40 1   
    36   20   41 1   
    37   20   42 1   
    38   20   43 1   
    39   21   22 ar  
    40   21   29 ar  
    41   22   23 ar  
    42   22   44 1   
    43   23   24 ar  
    44   23   45 1   
    45   24   25 1   
    46   24   28 ar  
    47   25   26 1   
    48   26   27 1   
    49   26   46 1   
    50   26   47 1   
    51   27   28 1   
    52   28   29 ar  
    53   29   48 1   
@<TRIPOS>SUBSTRUCTURE
     1 CIA         1 TEMP              0 ****  ****    0 ROOT
