@<TRIPOS>MOLECULE
CIA
   48    53     1     0     0
SMALL
bcc


@<TRIPOS>ATOM
      1 C3         -0.2320    0.5880    0.0580 ca        1 CIA     -0.110000
      2 C2          1.0860    0.1020   -0.0360 ca        1 CIA     -0.154000
      3 C1          1.8140   -0.2310    1.0950 ca        1 CIA     -0.082000
      4 C6          1.2190   -0.0800    2.3490 ca        1 CIA     -0.076800
      5 C7          1.6420   -0.3190    3.7060 cc        1 CIA     -0.138400
      6 C8          0.5790    0.0370    4.5420 cd        1 CIA     -0.084300
      7 N9         -0.4930    0.5200    3.7890 na        1 CIA     -0.167400
      8 C5         -0.1370    0.4260    2.4380 ca        1 CIA     -0.042200
      9 C4         -0.8600    0.7580    1.2810 ca        1 CIA     -0.143000
     10 C13         0.6330   -0.0760    6.0350 c3        1 CIA      0.237200
     11 N12         2.0130   -0.0260    6.5190 n         1 CIA     -0.465800
     12 C17         2.2450    0.3330    7.8390 c         1 CIA      0.691500
     13 O20         1.3270    0.6860    8.6030 o         1 CIA     -0.637500
     14 C16         3.6860    0.3020    8.3560 c3        1 CIA      0.028000
     15 N15         4.5780   -0.5680    7.6400 n         1 CIA     -0.478800
     16 C31         4.3550   -0.8470    6.3020 c         1 CIA      0.689500
     17 O32         5.1120   -1.5880    5.6510 o         1 CIA     -0.624500
     18 C11         3.1570   -0.1380    5.6300 c3        1 CIA      0.052700
     19 C10         2.8950   -0.8220    4.2740 c3        1 CIA      0.000800
     20 C18         5.6450   -1.1820    8.3770 c3        1 CIA      0.081300
     21 C22        -0.0970   -1.3270    6.4870 ca        1 CIA     -0.121300
     22 C27        -0.8230   -1.2800    7.6790 ca        1 CIA     -0.106000
     23 C26        -1.5470   -2.3870    8.1550 ca        1 CIA     -0.121000
     24 C25        -1.4930   -3.5300    7.3840 ca        1 CIA      0.066100
     25 O30        -2.1010   -4.7610    7.6040 os        1 CIA     -0.333900
     26 C29        -1.7160   -5.6190    6.5040 c3        1 CIA      0.320200
     27 O28        -0.8660   -4.8540    5.6190 os        1 CIA     -0.331900
     28 C24        -0.7450   -3.5840    6.1790 ca        1 CIA      0.045100
     29 C23        -0.0340   -2.5010    5.7080 ca        1 CIA     -0.088000
     30 H3         -0.7740    0.8380   -0.8670 ha        1 CIA      0.131000
     31 H2          1.5400   -0.0130   -1.0310 ha        1 CIA      0.132000
     32 H1          2.8430   -0.6100    1.0170 ha        1 CIA      0.137000
     33 HN9        -1.4010    0.6920    4.1320 hn        1 CIA      0.303700
     34 H4         -1.8870    1.1390    1.3450 ha        1 CIA      0.134000
     35 H13         0.0980    0.8170    6.4990 h1        1 CIA      0.084700
     36 H161        4.0690    1.3640    8.3150 h1        1 CIA      0.079200
     37 H162        3.6400   -0.0130    9.4390 h1        1 CIA      0.079200
     38 H11         3.5180    0.9170    5.4040 h1        1 CIA      0.067700
     39 H101        2.8450   -1.9370    4.4130 hc        1 CIA      0.078700
     40 H102        3.7720   -0.6100    3.6060 hc        1 CIA      0.078700
     41 H181        5.2310   -1.8530    9.1780 h1        1 CIA      0.050700
     42 H182        6.2830   -1.7910    7.6820 h1        1 CIA      0.050700
     43 H183        6.2770   -0.3890    8.8600 h1        1 CIA      0.050700
     44 H27        -0.8130   -0.3540    8.2810 ha        1 CIA      0.163000
     45 H26        -2.1150   -2.3410    9.0920 ha        1 CIA      0.158000
     46 H291       -1.1270   -6.4780    6.9110 h2        1 CIA      0.072700
     47 H292       -2.6370   -5.9170    5.9450 h2        1 CIA      0.072700
     48 H23         0.5490   -2.5430    4.7770 ha        1 CIA      0.168000
@<TRIPOS>BOND
     1    1    2 ar  
     2    1    9 ar  
     3    1   30 1   
     4    2    3 ar  
     5    2   31 1   
     6    3    4 ar  
     7    3   32 1   
     8    4    5 1   
     9    4    8 ar  
    10    5    6 2   
    11    5   19 1   
    12    6    7 1   
    13    6   10 1   
    14    7    8 1   
    15    7   33 1   
    16    8    9 ar  
    17    9   34 1   
    18   10   11 1   
    19   10   21 1   
    20   10   35 1   
    21   11   12 1   
    22   11   18 1   
    23   12   13 2   
    24   12   14 1   
    25   14   15 1   
    26   14   36 1   
    27   14   37 1   
    28   15   16 1   
    29   15   20 1   
    30   16   17 2   
    31   16   18 1   
    32   18   19 1   
    33   18   38 1   
    34   19   39 1   
    35   19   40 1   
    36   20   41 1   
    37   20   42 1   
    38   20   43 1   
    39   21   22 ar  
    40   21   29 ar  
    41   22   23 ar  
    42   22   44 1   
    43   23   24 ar  
    44   23   45 1   
    45   24   25 1   
    46   24   28 ar  
    47   25   26 1   
    48   26   27 1   
    49   26   46 1   
    50   26   47 1   
    51   27   28 1   
    52   28   29 ar  
    53   29   48 1   
@<TRIPOS>SUBSTRUCTURE
     1 CIA         1 TEMP              0 ****  ****    0 ROOT
