@<TRIPOS>MOLECULE
CIA
   48    45     1     0     0
SMALL
bcc


@<TRIPOS>ATOM
      1 C3         -1.2950    0.5370   -5.3830 c1        1 CIA     -0.122250
      2 C2          0.1510    0.6450   -5.4430 c1        1 CIA     -0.122250
      3 C1          0.8890    0.8420   -4.2790 c1        1 CIA     -0.122250
      4 C6          0.1670    0.9460   -2.9520 c1        1 CIA     -0.107000
      5 C7          0.6910    0.9610   -1.6090 c1        1 CIA     -0.107000
      6 C8         -0.5050    0.8470   -0.5930 c1        1 CIA     -0.026500
      7 N9         -1.6860    0.7720   -1.3560 n2        1 CIA     -0.192000
      8 C5         -1.2500    0.8390   -2.9090 c1        1 CIA     -0.026500
      9 C4         -1.9780    0.6320   -4.1500 c1        1 CIA     -0.122250
     10 C13        -0.1290    0.2690    1.0060 c2        1 CIA      0.127000
     11 N12         1.3070   -0.1430    1.2200 n         1 CIA     -0.307000
     12 C17         1.3190   -0.1530    1.2520 c2        1 CIA      0.302000
     13 O20         0.8290   -1.2610    1.8530 o         1 CIA     -0.359000
     14 C16         1.7180    0.6090    1.8070 c3        1 CIA     -0.036000
     15 N15         2.7420    1.4160    0.8840 n         1 CIA     -0.334000
     16 C31         2.7430    1.4150    0.8830 c2        1 CIA      0.309000
     17 O32         3.8650    2.1320    0.1800 o         1 CIA     -0.355000
     18 C11         2.3670    0.6930    0.4370 c3        1 CIA      0.007000
     19 C10         2.2040    0.8800   -1.0360 c2        1 CIA     -0.102000
     20 C18         3.3200    2.7880    1.5760 c3        1 CIA     -0.077000
     21 C22        -0.9290   -0.7970    1.2820 c2        1 CIA     -0.107000
     22 C27        -0.5230   -2.0190    1.0080 c2        1 CIA     -0.113000
     23 C26        -1.3150   -3.1500    1.3810 c1        1 CIA     -0.118000
     24 C25        -2.5230   -2.9580    2.0440 c1        1 CIA      0.021000
     25 O30        -3.1990   -3.8270    2.8900 os        1 CIA     -0.216000
     26 C29        -4.2440   -3.1380    3.4840 c3        1 CIA      0.098000
     27 O28        -4.0730   -1.7760    3.1940 os        1 CIA     -0.215000
     28 C24        -2.9530   -1.6690    2.3340 c2        1 CIA      0.005000
     29 C23        -2.1720   -0.5780    1.9650 c2        1 CIA     -0.093000
     30 H3         -1.8050    0.3960   -6.2110 ha        1 CIA      0.133250
     31 H2          0.5980    0.5570   -6.3210 ha        1 CIA      0.133250
     32 H1          1.9970    0.8930   -4.3310 ha        1 CIA      0.133250
     33 HN9        -2.4130    0.7300   -1.0840 DU        1 CIA      0.256000
     34 H4         -3.0210    0.5550   -4.1230 ha        1 CIA      0.133250
     35 H13        -0.3580    1.0720    1.7430 h4        1 CIA      0.146000
     36 H161        2.3360    0.3060    2.8800 h1        1 CIA      0.118000
     37 H162        0.8840    1.2120    2.2030 h1        1 CIA      0.118000
     38 H11         3.1280    0.0500    0.4240 h1        1 CIA      0.140000
     39 H101        2.7460    1.8410   -1.3530 ha        1 CIA      0.110500
     40 H102        2.6650    0.1200   -1.4930 ha        1 CIA      0.110500
     41 H181        2.4710    3.2660    2.2960 h1        1 CIA      0.091000
     42 H182        4.2290    2.5200    2.1890 h1        1 CIA      0.091000
     43 H183        3.5390    3.3560    0.9660 h1        1 CIA      0.091000
     44 H27         0.2890   -2.1560    0.3800 ha        1 CIA      0.151000
     45 H26        -0.9880   -4.0710    1.1750 ha        1 CIA      0.159000
     46 H291       -5.1010   -3.4670    3.1030 h2        1 CIA      0.113500
     47 H292       -4.2030   -3.2960    4.5380 h2        1 CIA      0.113500
     48 H23        -2.5310    0.3620    2.0510 ha        1 CIA      0.171000
@<TRIPOS>BOND
     1    1    9 1   
     2    1   30 1   
     3    2    3 1   
     4    2   31 1   
     5    3   32 1   
     6    4    8 1   
     7    5    6 1   
     8    6    7 1   
     9    7    8 1   
    10    9   34 1   
    11   10   11 1   
    12   10   21 1   
    13   10   35 1   
    14   11   12 1   
    15   11   18 1   
    16   12   13 1   
    17   12   14 1   
    18   14   15 1   
    19   14   36 1   
    20   14   37 1   
    21   15   16 1   
    22   15   20 1   
    23   16   17 1   
    24   16   18 1   
    25   18   19 1   
    26   18   38 1   
    27   19   39 1   
    28   19   40 1   
    29   20   41 1   
    30   20   42 1   
    31   20   43 1   
    32   21   22 1   
    33   21   29 1   
    34   22   23 1   
    35   22   44 1   
    36   23   45 1   
    37   24   25 1   
    38   24   28 1   
    39   25   26 1   
    40   26   27 1   
    41   26   46 1   
    42   26   47 1   
    43   27   28 1   
    44   28   29 1   
    45   29   48 1   
@<TRIPOS>SUBSTRUCTURE
     1 CIA         1 TEMP              0 ****  ****    0 ROOT
