@<TRIPOS>MOLECULE
CIB
   64    63     1     0     0
SMALL
bcc


@<TRIPOS>ATOM
      1 N1          0.1420    1.2420   -3.8090 n         1 CIB     -0.528900
      2 CA1        -0.0230    0.1630   -2.8660 c3        1 CIB      0.044700
      3 C1         -0.6990    0.6370   -1.5480 c         1 CIB      0.621100
      4 O1         -0.8560    1.8460   -1.2850 o         1 CIB     -0.614100
      5 CB1         1.2480   -0.6200   -2.5140 c3        1 CIB     -0.078400
      6 CG1         1.9540   -1.2120   -3.7240 c3        1 CIB     -0.061700
      7 CD1         3.2300   -1.8960   -3.2710 c3        1 CIB     -0.092600
      8 CD2         1.0760   -2.1920   -4.4740 c3        1 CIB     -0.092600
      9 C10         1.1940    2.1640   -3.7730 c         1 CIB      0.657100
     10 C25         1.0010    3.4250   -4.5860 c3        1 CIB     -0.179100
     11 O28         2.2610    1.9500   -3.1720 o         1 CIB     -0.589100
     12 N2         -1.2090   -0.3440   -0.7190 n         1 CIB     -0.546900
     13 CA2        -1.7040   -0.0410    0.6010 c3        1 CIB      0.034700
     14 C2         -0.8400   -0.7400    1.6860 c         1 CIB      0.638100
     15 O2         -0.3100   -1.8500    1.4770 o         1 CIB     -0.620100
     16 CB2        -3.1500   -0.5040    0.8440 c3        1 CIB     -0.084400
     17 CG2        -4.1610    0.1410   -0.0900 c3        1 CIB     -0.061700
     18 CD3        -5.5440   -0.3990    0.2210 c3        1 CIB     -0.097600
     19 CD4        -4.1490    1.6520    0.0170 c3        1 CIB     -0.097600
     20 N3         -0.6800   -0.0680    2.8780 n         1 CIB     -0.546900
     21 CA3        -0.0200   -0.6600    4.0150 c3        1 CIB     -0.019300
     22 C3         -0.9620   -0.9690    5.1760 c         1 CIB      0.546900
     23 O3         -2.1110   -0.5410    5.2710 o         1 CIB     -0.522100
     24 CB3         1.1150    0.2130    4.5800 c3        1 CIB     -0.081400
     25 CG3         2.2820    0.3090    3.6230 c3        1 CIB     -0.080400
     26 CE3         4.5920    1.1940    3.2910 c3        1 CIB     -0.094100
     27 C19         3.4280    1.0840    4.2420 c3        1 CIB     -0.079400
     28 HN1        -0.7310    1.6300   -4.0980 hn        1 CIB      0.297500
     29 HA1        -0.7490   -0.5580   -3.3600 h1        1 CIB      0.071700
     30 HB11        1.9640    0.0530   -1.9690 hc        1 CIB      0.067200
     31 HB12        0.9680   -1.4590   -1.8230 hc        1 CIB      0.067200
     32 HG1         2.2370   -0.3710   -4.4190 hc        1 CIB      0.065700
     33 HD11        3.7810   -2.3050   -4.1520 hc        1 CIB      0.034200
     34 HD12        3.8930   -1.1690   -2.7430 hc        1 CIB      0.034200
     35 HD13        2.9990   -2.7390   -2.5750 hc        1 CIB      0.034200
     36 HD21        0.6800   -2.9750   -3.7840 hc        1 CIB      0.034200
     37 HD22        0.2140   -1.6660   -4.9500 hc        1 CIB      0.034200
     38 HD23        1.6640   -2.6960   -5.2790 hc        1 CIB      0.034200
     39 H251        1.9600    3.9970   -4.5920 hc        1 CIB      0.067700
     40 H252        0.7140    3.1840   -5.6370 hc        1 CIB      0.067700
     41 H253        0.2050    4.0560   -4.1220 hc        1 CIB      0.067700
     42 HN2        -0.9550   -1.2940   -0.8760 hn        1 CIB      0.325500
     43 HA2        -1.6580    1.0840    0.7400 h1        1 CIB      0.104700
     44 HB21       -3.2080   -1.6190    0.7360 hc        1 CIB      0.056200
     45 HB22       -3.4130   -0.2490    1.9050 hc        1 CIB      0.056200
     46 HG2        -3.9050   -0.1410   -1.1510 hc        1 CIB      0.052700
     47 HD31       -6.2920    0.0270   -0.4910 hc        1 CIB      0.038367
     48 HD32       -5.5600   -1.5110    0.1290 hc        1 CIB      0.038367
     49 HD33       -5.8480   -0.1240    1.2590 hc        1 CIB      0.038367
     50 HD41       -4.2620    1.9730    1.0800 hc        1 CIB      0.038367
     51 HD42       -3.1920    2.0670   -0.3850 hc        1 CIB      0.038367
     52 HD43       -4.9940    2.0840   -0.5720 hc        1 CIB      0.038367
     53 HN3        -1.2200    0.7470    3.0540 hn        1 CIB      0.321500
     54 HA3         0.4270   -1.6490    3.6780 h1        1 CIB      0.110700
     55 H3         -0.5090   -1.6220    5.9550 h4        1 CIB      0.006200
     56 HB31        1.4590   -0.2490    5.5430 hc        1 CIB      0.049200
     57 HB32        0.7310    1.2390    4.8160 hc        1 CIB      0.049200
     58 HG31        1.9600    0.8140    2.6750 hc        1 CIB      0.051700
     59 HG32        2.6310   -0.7210    3.3470 hc        1 CIB      0.051700
     60 HE31        5.4250    1.7670    3.7640 hc        1 CIB      0.036033
     61 HE32        4.9720    0.1810    3.0140 hc        1 CIB      0.036033
     62 HE33        4.2870    1.7210    2.3540 hc        1 CIB      0.036033
     63 H191        3.7590    0.5750    5.1860 hc        1 CIB      0.037200
     64 H192        3.0750    2.1100    4.5260 hc        1 CIB      0.037200
@<TRIPOS>BOND
     1    1    2 1   
     2    1    9 1   
     3    1   28 1   
     4    2    3 1   
     5    2    5 1   
     6    2   29 1   
     7    3    4 2   
     8    3   12 1   
     9    5    6 1   
    10    5   30 1   
    11    5   31 1   
    12    6    7 1   
    13    6    8 1   
    14    6   32 1   
    15    7   33 1   
    16    7   34 1   
    17    7   35 1   
    18    8   36 1   
    19    8   37 1   
    20    8   38 1   
    21    9   10 1   
    22    9   11 2   
    23   10   39 1   
    24   10   40 1   
    25   10   41 1   
    26   12   13 1   
    27   12   42 1   
    28   13   14 1   
    29   13   16 1   
    30   13   43 1   
    31   14   15 2   
    32   14   20 1   
    33   16   17 1   
    34   16   44 1   
    35   16   45 1   
    36   17   18 1   
    37   17   19 1   
    38   17   46 1   
    39   18   47 1   
    40   18   48 1   
    41   18   49 1   
    42   19   50 1   
    43   19   51 1   
    44   19   52 1   
    45   20   21 1   
    46   20   53 1   
    47   21   22 1   
    48   21   24 1   
    49   21   54 1   
    50   22   23 2   
    51   22   55 1   
    52   24   25 1   
    53   24   56 1   
    54   24   57 1   
    55   25   27 1   
    56   25   58 1   
    57   25   59 1   
    58   26   27 1   
    59   26   60 1   
    60   26   61 1   
    61   26   62 1   
    62   27   63 1   
    63   27   64 1   
@<TRIPOS>SUBSTRUCTURE
     1 CIB         1 TEMP              0 ****  ****    0 ROOT
