@<TRIPOS>MOLECULE
CIB
   67    66     1     0     0
SMALL
bcc


@<TRIPOS>ATOM
      1 N1         -0.4040    0.4110   -0.4780 n4        1 CIB     -0.705800
      2 CA1         0.8020   -0.2990    0.0710 c3        1 CIB      0.075500
      3 C1          0.9080   -0.0270    1.5830 c         1 CIB      0.529100
      4 O1         -0.0120   -0.2430    2.3570 o         1 CIB     -0.374100
      5 CB1         2.0780   -0.0170   -0.7250 c3        1 CIB     -0.130400
      6 CG1         1.9570   -0.3370   -2.2160 c3        1 CIB     -0.071700
      7 CD1         3.3270   -0.1790   -2.8540 c3        1 CIB     -0.114600
      8 CD2         1.4240   -1.7300   -2.4650 c3        1 CIB     -0.114600
      9 C10        -0.4070    1.9320   -0.2620 c         1 CIB      0.615100
     10 C25        -1.3610    2.7120   -1.0830 c3        1 CIB     -0.199100
     11 O28         0.3930    2.3040    0.5870 o         1 CIB     -0.494100
     12 N2          2.1800    0.5460    2.1420 n4        1 CIB     -0.657800
     13 CA2         2.4300    0.1960    3.5980 c3        1 CIB      0.084500
     14 C2          2.9790    1.4540    4.3030 c         1 CIB      0.522100
     15 O2          2.4740    2.5580    4.1300 o         1 CIB     -0.390100
     16 CB2         3.3070   -1.0480    3.7430 c3        1 CIB     -0.134400
     17 CG2         2.7080   -2.3070    3.1170 c3        1 CIB     -0.054700
     18 CD3         3.7670   -3.3940    3.0860 c3        1 CIB     -0.117100
     19 CD4         1.4910   -2.7860    3.8800 c3        1 CIB     -0.117100
     20 N3          4.1250    1.3660    5.2480 n4        1 CIB     -0.654800
     21 CA3         5.2950    2.2370    4.8080 c3        1 CIB     -0.007500
     22 C3          5.5980    2.1070    3.3190 c         1 CIB      0.624900
     23 O3          4.7900    1.5590    2.5610 o         1 CIB     -0.614100
     24 CB3         6.5420    1.9320    5.6430 c3        1 CIB     -0.114400
     25 CG3         6.3170    2.1510    7.1250 c3        1 CIB     -0.100400
     26 CE3         7.4250    2.2820    9.3560 c3        1 CIB     -0.105100
     27 C19         7.6390    2.1110    7.8740 c3        1 CIB     -0.077400
     28 HN1        -1.2570    0.0210   -0.0450 hn        1 CIB      0.497300
     29 HA1         0.5870   -1.4230   -0.0110 hx        1 CIB      0.179700
     30 HB11        2.8880   -0.6800   -0.3100 hc        1 CIB      0.086200
     31 HB12        2.3850    1.0570   -0.6130 hc        1 CIB      0.086200
     32 HG1         1.2730    0.4160   -2.7020 hc        1 CIB      0.046700
     33 HD11        4.0380   -0.9490   -2.4660 hc        1 CIB      0.066200
     34 HD12        3.7440    0.8370   -2.6550 hc        1 CIB      0.066200
     35 HD13        3.2430   -0.3130   -3.9620 hc        1 CIB      0.066200
     36 HD21        2.0270   -2.4970   -1.9210 hc        1 CIB      0.066200
     37 HD22        1.4860   -1.9680   -3.5600 hc        1 CIB      0.066200
     38 HD23        0.3540   -1.8250   -2.1590 hc        1 CIB      0.066200
     39 H251       -0.7760    3.3490   -1.8090 hc        1 CIB      0.149700
     40 H252       -1.9270    3.4150   -0.4040 hc        1 CIB      0.149700
     41 H253       -2.0970    2.0940   -1.6550 hc        1 CIB      0.149700
     42 HN2         2.9960    0.2280    1.5910 hn        1 CIB      0.499800
     43 HA2         1.4170   -0.0090    4.0890 hx        1 CIB      0.183700
     44 HB21        3.4220   -1.2690    4.8410 hc        1 CIB      0.095200
     45 HB22        4.3220   -0.8580    3.2990 hc        1 CIB      0.095200
     46 HG2         2.4070   -2.0830    2.0530 hc        1 CIB      0.000700
     47 HD31        4.0960   -3.6550    4.1220 hc        1 CIB      0.069033
     48 HD32        3.3490   -4.3190    2.6160 hc        1 CIB      0.069033
     49 HD33        4.6580   -3.0690    2.4960 hc        1 CIB      0.069033
     50 HD41        1.7460   -3.0000    4.9470 hc        1 CIB      0.069033
     51 HD42        0.6690   -2.0290    3.8510 hc        1 CIB      0.069033
     52 HD43        1.1090   -3.7370    3.4310 hc        1 CIB      0.069033
     53 HN3         3.8320    1.7100    6.1830 hn        1 CIB      0.491300
     54 HA3         4.9790    3.3170    4.9930 hx        1 CIB      0.165700
     55 H3          6.5610    2.5580    2.9860 h4        1 CIB      0.120200
     56 HB31        7.3500    2.6360    5.2890 hc        1 CIB      0.105200
     57 HB32        6.9040    0.8870    5.4530 hc        1 CIB      0.105200
     58 HG31        5.6450    1.3550    7.5440 hc        1 CIB      0.045700
     59 HG32        5.8280    3.1460    7.3020 hc        1 CIB      0.045700
     60 HE31        6.7880    1.4620    9.7660 hc        1 CIB      0.057700
     61 HE32        6.9340    3.2610    9.5790 hc        1 CIB      0.057700
     62 HE33        8.4100    2.2580    9.8850 hc        1 CIB      0.057700
     63 H191        8.1530    1.1340    7.6750 hc        1 CIB      0.062200
     64 H192        8.3090    2.9280    7.4940 hc        1 CIB      0.062200
     65 H12        -0.4420    0.2160   -1.4950 hn        1 CIB      0.497300
     66 H22         2.1110    1.5790    2.0350 hn        1 CIB      0.499800
     67 H32         4.4590    0.3990    5.3510 hn        1 CIB      0.491300
@<TRIPOS>BOND
     1    1    2 1   
     2    1    9 1   
     3    1   28 1   
     4    1   65 1   
     5    2    3 1   
     6    2    5 1   
     7    2   29 1   
     8    3    4 2   
     9    3   12 1   
    10    5    6 1   
    11    5   30 1   
    12    5   31 1   
    13    6    7 1   
    14    6    8 1   
    15    6   32 1   
    16    7   33 1   
    17    7   34 1   
    18    7   35 1   
    19    8   36 1   
    20    8   37 1   
    21    8   38 1   
    22    9   10 1   
    23    9   11 2   
    24   10   39 1   
    25   10   40 1   
    26   10   41 1   
    27   12   13 1   
    28   12   42 1   
    29   12   66 1   
    30   13   14 1   
    31   13   16 1   
    32   13   43 1   
    33   14   15 2   
    34   14   20 1   
    35   16   17 1   
    36   16   44 1   
    37   16   45 1   
    38   17   18 1   
    39   17   19 1   
    40   17   46 1   
    41   18   47 1   
    42   18   48 1   
    43   18   49 1   
    44   19   50 1   
    45   19   51 1   
    46   19   52 1   
    47   20   21 1   
    48   20   53 1   
    49   20   67 1   
    50   21   22 1   
    51   21   24 1   
    52   21   54 1   
    53   22   23 2   
    54   22   55 1   
    55   24   25 1   
    56   24   56 1   
    57   24   57 1   
    58   25   27 1   
    59   25   58 1   
    60   25   59 1   
    61   26   27 1   
    62   26   60 1   
    63   26   61 1   
    64   26   62 1   
    65   27   63 1   
    66   27   64 1   
@<TRIPOS>SUBSTRUCTURE
     1 CIB         1 TEMP              0 ****  ****    0 ROOT
