@<TRIPOS>MOLECULE
CIB
   64    63     1     0     0
SMALL
bcc


@<TRIPOS>ATOM
      1 N1          0.7020   -1.5730   -3.8800 n         1 CIB     -0.572900
      2 CA1        -0.3300   -1.3150   -2.9400 c3        1 CIB      0.046700
      3 C1          0.2380   -1.3760   -1.5390 c         1 CIB      0.638100
      4 O1          0.3180   -2.4420   -0.9620 o         1 CIB     -0.638100
      5 CB1        -1.4190   -2.3540   -3.0880 c3        1 CIB     -0.083400
      6 CG1        -2.3410   -1.9600   -4.2210 c3        1 CIB     -0.069700
      7 CD1        -3.7340   -1.7270   -3.6790 c3        1 CIB     -0.090600
      8 CD2        -2.3790   -3.0690   -5.2490 c3        1 CIB     -0.090600
      9 C10         1.0090   -0.6110   -4.8780 c         1 CIB      0.663100
     10 C25         2.0490   -0.9210   -5.9320 c3        1 CIB     -0.173100
     11 O28         0.4310    0.4570   -4.8900 o         1 CIB     -0.624100
     12 N2          0.6850   -0.1890   -0.9020 n         1 CIB     -0.557900
     13 CA2         1.2490   -0.2510    0.3990 c3        1 CIB      0.039700
     14 C2          0.9130    1.0140    1.1560 c         1 CIB      0.642100
     15 O2          1.3870    2.0760    0.8050 o         1 CIB     -0.601100
     16 CB2         2.7520   -0.3890    0.2900 c3        1 CIB     -0.081400
     17 CG2         3.2840   -1.0920    1.5200 c3        1 CIB     -0.066700
     18 CD3         4.5290   -0.3830    2.0060 c3        1 CIB     -0.091600
     19 CD4         3.6220   -2.5250    1.1750 c3        1 CIB     -0.091600
     20 N3          0.0660    0.9570    2.2920 n         1 CIB     -0.569900
     21 CA3        -0.1710    2.1270    3.0610 c3        1 CIB     -0.018300
     22 C3          0.9030    2.2610    4.1180 c         1 CIB      0.558900
     23 O3          1.6760    3.2000    4.0840 o         1 CIB     -0.519100
     24 CB3        -1.5240    2.0260    3.7280 c3        1 CIB     -0.089400
     25 CG3        -1.8830    3.3610    4.3450 c3        1 CIB     -0.087400
     26 CE3        -3.5410    4.5630    5.7240 c3        1 CIB     -0.093100
     27 C19        -3.1530    3.2180    5.1530 c3        1 CIB     -0.077400
     28 HN1         1.1540   -2.3640   -3.8550 hn        1 CIB      0.321500
     29 HA1        -0.7040   -0.4260   -3.1010 h1        1 CIB      0.090700
     30 HB11       -1.0150   -3.2230   -3.2840 hc        1 CIB      0.068700
     31 HB12       -1.9300   -2.4120   -2.2560 hc        1 CIB      0.068700
     32 HG1        -2.0130   -1.1410   -4.6380 hc        1 CIB      0.051700
     33 HD11       -4.3540   -1.5810   -4.4240 hc        1 CIB      0.035700
     34 HD12       -4.0200   -2.5110   -3.1650 hc        1 CIB      0.035700
     35 HD13       -3.7310   -0.9380   -3.0970 hc        1 CIB      0.035700
     36 HD21       -3.0230   -2.8410   -5.9520 hc        1 CIB      0.035700
     37 HD22       -2.6500   -3.9060   -4.8170 hc        1 CIB      0.035700
     38 HD23       -1.4890   -3.1780   -5.6450 hc        1 CIB      0.035700
     39 H251        1.9780   -1.8620   -6.1950 hc        1 CIB      0.071033
     40 H252        2.9430   -0.7500   -5.5680 hc        1 CIB      0.071033
     41 H253        1.9010   -0.3500   -6.7150 hc        1 CIB      0.071033
     42 HN2         0.6260    0.6110   -1.3360 hn        1 CIB      0.349500
     43 HA2         0.8850   -1.0230    0.8760 h1        1 CIB      0.085700
     44 HB21        3.1560    0.4990    0.2210 hc        1 CIB      0.063200
     45 HB22        2.9740   -0.9120   -0.5060 hc        1 CIB      0.063200
     46 HG2         2.6060   -1.0770    2.2220 hc        1 CIB      0.061700
     47 HD31        5.2030   -0.3830    1.2960 hc        1 CIB      0.035367
     48 HD32        4.3060    0.5410    2.2460 hc        1 CIB      0.035367
     49 HD33        4.8830   -0.8480    2.7930 hc        1 CIB      0.035367
     50 HD41        2.7960   -3.0210    0.9910 hc        1 CIB      0.035367
     51 HD42        4.0910   -2.9410    1.9290 hc        1 CIB      0.035367
     52 HD43        4.1970   -2.5440    0.3820 hc        1 CIB      0.035367
     53 HN3        -0.3130    0.1640    2.5390 hn        1 CIB      0.335500
     54 HA3        -0.1530    2.9100    2.4770 h1        1 CIB      0.115700
     55 H3          0.9770    1.5920    4.8270 h4        1 CIB      0.000200
     56 HB31       -1.4940    1.3420    4.4270 hc        1 CIB      0.048200
     57 HB32       -2.1990    1.7830    3.0630 hc        1 CIB      0.048200
     58 HG31       -2.0200    4.0210    3.6360 hc        1 CIB      0.054700
     59 HG32       -1.1560    3.6560    4.9290 hc        1 CIB      0.054700
     60 HE31       -4.1570    4.4340    6.4760 hc        1 CIB      0.034367
     61 HE32       -3.9800    5.0990    5.0310 hc        1 CIB      0.034367
     62 HE33       -2.7380    5.0290    6.0370 hc        1 CIB      0.034367
     63 H191       -3.8710    2.8890    4.5760 hc        1 CIB      0.036700
     64 H192       -3.0060    2.5840    5.8830 hc        1 CIB      0.036700
@<TRIPOS>BOND
     1    1    2 1   
     2    1    9 1   
     3    1   28 1   
     4    2    3 1   
     5    2    5 1   
     6    2   29 1   
     7    3    4 2   
     8    3   12 1   
     9    5    6 1   
    10    5   30 1   
    11    5   31 1   
    12    6    7 1   
    13    6    8 1   
    14    6   32 1   
    15    7   33 1   
    16    7   34 1   
    17    7   35 1   
    18    8   36 1   
    19    8   37 1   
    20    8   38 1   
    21    9   10 1   
    22    9   11 2   
    23   10   39 1   
    24   10   40 1   
    25   10   41 1   
    26   12   13 1   
    27   12   42 1   
    28   13   14 1   
    29   13   16 1   
    30   13   43 1   
    31   14   15 2   
    32   14   20 1   
    33   16   17 1   
    34   16   44 1   
    35   16   45 1   
    36   17   18 1   
    37   17   19 1   
    38   17   46 1   
    39   18   47 1   
    40   18   48 1   
    41   18   49 1   
    42   19   50 1   
    43   19   51 1   
    44   19   52 1   
    45   20   21 1   
    46   20   53 1   
    47   21   22 1   
    48   21   24 1   
    49   21   54 1   
    50   22   23 2   
    51   22   55 1   
    52   24   25 1   
    53   24   56 1   
    54   24   57 1   
    55   25   27 1   
    56   25   58 1   
    57   25   59 1   
    58   26   27 1   
    59   26   60 1   
    60   26   61 1   
    61   26   62 1   
    62   27   63 1   
    63   27   64 1   
@<TRIPOS>SUBSTRUCTURE
     1 CIB         1 TEMP              0 ****  ****    0 ROOT
