@<TRIPOS>MOLECULE
CIB
   67    66     1     0     0
SMALL
bcc


@<TRIPOS>ATOM
      1 N1         -0.3820    0.4630   -0.5020 n4        1 CIB     -0.705800
      2 CA1         0.8080   -0.2670    0.0580 c3        1 CIB      0.075500
      3 C1          0.9080    0.0090    1.5690 c         1 CIB      0.529100
      4 O1         -0.0200   -0.1880    2.3380 o         1 CIB     -0.374100
      5 CB1         2.0940   -0.0110   -0.7300 c3        1 CIB     -0.130400
      6 CG1         1.9770   -0.3340   -2.2210 c3        1 CIB     -0.071700
      7 CD1         3.3540   -0.2040   -2.8500 c3        1 CIB     -0.114600
      8 CD2         1.4200   -1.7180   -2.4690 c3        1 CIB     -0.114600
      9 C10        -0.3590    1.9840   -0.2900 c         1 CIB      0.615100
     10 C25        -1.2930    2.7780   -1.1210 c3        1 CIB     -0.200100
     11 O28         0.4420    2.3450    0.5620 o         1 CIB     -0.494100
     12 N2          2.1860    0.5610    2.1350 n4        1 CIB     -0.657800
     13 CA2         2.4210    0.2120    3.5940 c3        1 CIB      0.084500
     14 C2          2.9870    1.4630    4.2980 c         1 CIB      0.522100
     15 O2          2.5020    2.5740    4.1190 o         1 CIB     -0.390100
     16 CB2         3.2750   -1.0470    3.7490 c3        1 CIB     -0.134400
     17 CG2         2.6580   -2.2970    3.1230 c3        1 CIB     -0.054700
     18 CD3         3.6990   -3.4020    3.1030 c3        1 CIB     -0.117100
     19 CD4         1.4270   -2.7520    3.8800 c3        1 CIB     -0.117100
     20 N3          4.1250    1.3580    5.2520 n4        1 CIB     -0.654800
     21 CA3         5.3120    2.2070    4.8160 c3        1 CIB     -0.007500
     22 C3          5.6240    2.0670    3.3300 c         1 CIB      0.624900
     23 O3          4.8110    1.5300    2.5680 o         1 CIB     -0.614100
     24 CB3         6.5490    1.8830    5.6610 c3        1 CIB     -0.114400
     25 CG3         6.3180    2.1110    7.1410 c3        1 CIB     -0.100400
     26 CE3         7.4130    2.2320    9.3780 c3        1 CIB     -0.105100
     27 C19         7.6340    2.0520    7.8980 c3        1 CIB     -0.077400
     28 HN1        -0.4170    0.2650   -1.5180 hn        1 CIB      0.497300
     29 HA1         0.5730   -1.3870   -0.0210 hx        1 CIB      0.179700
     30 HB11        2.4200    1.0580   -0.6200 hc        1 CIB      0.086200
     31 HB12        2.8890   -0.6860   -0.3080 hc        1 CIB      0.086200
     32 HG1         1.3100    0.4290   -2.7150 hc        1 CIB      0.046700
     33 HD11        3.7880    0.8050   -2.6520 hc        1 CIB      0.066200
     34 HD12        3.2750   -0.3400   -3.9590 hc        1 CIB      0.066200
     35 HD13        4.0480   -0.9850   -2.4550 hc        1 CIB      0.066200
     36 HD21        0.3470   -1.7920   -2.1700 hc        1 CIB      0.066200
     37 HD22        2.0060   -2.4940   -1.9180 hc        1 CIB      0.066200
     38 HD23        1.4860   -1.9610   -3.5620 hc        1 CIB      0.066200
     39 H251       -1.8500    3.4950   -0.4490 hc        1 CIB      0.149700
     40 H252       -0.6930    3.4010   -1.8470 hc        1 CIB      0.149700
     41 H253       -2.0380    2.1710   -1.6950 hc        1 CIB      0.149700
     42 HN2         3.0010    0.2270    1.5910 hn        1 CIB      0.499800
     43 HA2         1.4010    0.0260    4.0790 hx        1 CIB      0.183700
     44 HB21        4.2960   -0.8760    3.3110 hc        1 CIB      0.095200
     45 HB22        3.3790   -1.2660    4.8490 hc        1 CIB      0.095200
     46 HG2         2.3680   -2.0720    2.0560 hc        1 CIB      0.000700
     47 HD31        4.0150   -3.6660    4.1420 hc        1 CIB      0.069033
     48 HD32        4.5980   -3.0950    2.5180 hc        1 CIB      0.069033
     49 HD33        3.2670   -4.3210    2.6330 hc        1 CIB      0.069033
     50 HD41        0.6200   -1.9810    3.8420 hc        1 CIB      0.069033
     51 HD42        1.6720   -2.9670    4.9490 hc        1 CIB      0.069033
     52 HD43        1.0320   -3.6980    3.4310 hc        1 CIB      0.069033
     53 HN3         3.8320    1.7090    6.1830 hn        1 CIB      0.491300
     54 HA3         5.0140    3.2930    4.9960 hx        1 CIB      0.165700
     55 H3          6.5960    2.5000    3.0020 h4        1 CIB      0.120200
     56 HB31        6.8940    0.8320    5.4760 hc        1 CIB      0.105200
     57 HB32        7.3710    2.5710    5.3090 hc        1 CIB      0.105200
     58 HG31        5.6300    1.3290    7.5570 hc        1 CIB      0.045700
     59 HG32        5.8450    3.1150    7.3100 hc        1 CIB      0.045700
     60 HE31        6.7600    1.4230    9.7870 hc        1 CIB      0.057700
     61 HE32        6.9380    3.2190    9.5940 hc        1 CIB      0.057700
     62 HE33        8.3950    2.1920    9.9140 hc        1 CIB      0.057700
     63 H191        8.1330    1.0650    7.7060 hc        1 CIB      0.062200
     64 H192        8.3200    2.8560    7.5190 hc        1 CIB      0.062200
     65 H12        -1.2440    0.0900   -0.0730 hn        1 CIB      0.497300
     66 H22         2.1370    1.5950    2.0250 hn        1 CIB      0.499800
     67 H32         4.4410    0.3850    5.3590 hn        1 CIB      0.491300
@<TRIPOS>BOND
     1    1    2 1   
     2    1    9 1   
     3    1   28 1   
     4    1   65 1   
     5    2    3 1   
     6    2    5 1   
     7    2   29 1   
     8    3    4 2   
     9    3   12 1   
    10    5    6 1   
    11    5   30 1   
    12    5   31 1   
    13    6    7 1   
    14    6    8 1   
    15    6   32 1   
    16    7   33 1   
    17    7   34 1   
    18    7   35 1   
    19    8   36 1   
    20    8   37 1   
    21    8   38 1   
    22    9   10 1   
    23    9   11 2   
    24   10   39 1   
    25   10   40 1   
    26   10   41 1   
    27   12   13 1   
    28   12   42 1   
    29   12   66 1   
    30   13   14 1   
    31   13   16 1   
    32   13   43 1   
    33   14   15 2   
    34   14   20 1   
    35   16   17 1   
    36   16   44 1   
    37   16   45 1   
    38   17   18 1   
    39   17   19 1   
    40   17   46 1   
    41   18   47 1   
    42   18   48 1   
    43   18   49 1   
    44   19   50 1   
    45   19   51 1   
    46   19   52 1   
    47   20   21 1   
    48   20   53 1   
    49   20   67 1   
    50   21   22 1   
    51   21   24 1   
    52   21   54 1   
    53   22   23 2   
    54   22   55 1   
    55   24   25 1   
    56   24   56 1   
    57   24   57 1   
    58   25   27 1   
    59   25   58 1   
    60   25   59 1   
    61   26   27 1   
    62   26   60 1   
    63   26   61 1   
    64   26   62 1   
    65   27   63 1   
    66   27   64 1   
@<TRIPOS>SUBSTRUCTURE
     1 CIB         1 TEMP              0 ****  ****    0 ROOT
