@<TRIPOS>MOLECULE
CIB
   67    66     1     0     0
SMALL
bcc


@<TRIPOS>ATOM
      1 N1         -0.3760    0.4110   -0.5100 ny        1 CIB     -0.705800
      2 CA1         0.8110   -0.3100    0.0660 c3        1 CIB      0.075500
      3 C1          0.9100   -0.0040    1.5720 c         1 CIB      0.529100
      4 O1         -0.0200   -0.1830    2.3430 o         1 CIB     -0.374100
      5 CB1         2.0990   -0.0730   -0.7250 c3        1 CIB     -0.130400
      6 CG1         1.9840   -0.4260   -2.2090 c3        1 CIB     -0.071700
      7 CD1         3.3620   -0.3120   -2.8380 c3        1 CIB     -0.114600
      8 CD2         1.4230   -1.8140   -2.4300 c3        1 CIB     -0.114600
      9 C10        -0.3490    1.9370   -0.3290 c         1 CIB      0.615100
     10 C25        -1.2790    2.7170   -1.1770 c3        1 CIB     -0.200100
     11 O28         0.4520    2.3130    0.5170 o         1 CIB     -0.494100
     12 N2          2.1890    0.5550    2.1290 ny        1 CIB     -0.657800
     13 CA2         2.4200    0.2340    3.5940 c3        1 CIB      0.084500
     14 C2          2.9890    1.4970    4.2750 c         1 CIB      0.522100
     15 O2          2.5070    2.6060    4.0730 o         1 CIB     -0.390100
     16 CB2         3.2700   -1.0240    3.7760 c3        1 CIB     -0.134400
     17 CG2         2.6500   -2.2840    3.1740 c3        1 CIB     -0.054700
     18 CD3         3.6880   -3.3920    3.1780 c3        1 CIB     -0.117100
     19 CD4         1.4180   -2.7200    3.9370 c3        1 CIB     -0.117100
     20 N3          4.1250    1.4080    5.2320 ny        1 CIB     -0.654800
     21 CA3         5.3150    2.2450    4.7820 c3        1 CIB     -0.007500
     22 C3          5.6280    2.0750    3.2990 c         1 CIB      0.624900
     23 O3          4.8150    1.5260    2.5470 o         1 CIB     -0.614100
     24 CB3         6.5490    1.9360    5.6350 c3        1 CIB     -0.114400
     25 CG3         6.3170    2.1930    7.1090 c3        1 CIB     -0.100400
     26 CE3         7.4090    2.3540    9.3450 c3        1 CIB     -0.105100
     27 C19         7.6310    2.1450    7.8700 c3        1 CIB     -0.077400
     28 HN1        -1.2400    0.0500   -0.0750 hn        1 CIB      0.497300
     29 HA1         0.5730   -1.4310    0.0090 hx        1 CIB      0.179700
     30 HB11        2.8910   -0.7430   -0.2870 hc        1 CIB      0.086200
     31 HB12        2.4280    0.9960   -0.6350 hc        1 CIB      0.086200
     32 HG1         1.3200    0.3290   -2.7190 hc        1 CIB      0.046700
     33 HD11        4.0530   -1.0870   -2.4260 hc        1 CIB      0.066200
     34 HD12        3.7990    0.6990   -2.6590 hc        1 CIB      0.066200
     35 HD13        3.2840   -0.4700   -3.9440 hc        1 CIB      0.066200
     36 HD21        1.4900   -2.0780   -3.5180 hc        1 CIB      0.066200
     37 HD22        0.3490   -1.8790   -2.1310 hc        1 CIB      0.066200
     38 HD23        2.0060   -2.5800   -1.8620 hc        1 CIB      0.066200
     39 H251       -0.6750    3.3220   -1.9150 hc        1 CIB      0.149700
     40 H252       -2.0250    2.1000   -1.7400 hc        1 CIB      0.149700
     41 H253       -1.8350    3.4490   -0.5210 hc        1 CIB      0.149700
     42 HN2         2.1420    1.5860    1.9980 hn        1 CIB      0.499800
     43 HA2         1.3990    0.0610    4.0820 hx        1 CIB      0.183700
     44 HB21        3.3720   -1.2210    4.8800 hc        1 CIB      0.095200
     45 HB22        4.2930   -0.8640    3.3370 hc        1 CIB      0.095200
     46 HG2         2.3630   -2.0790    2.1020 hc        1 CIB      0.000700
     47 HD31        3.2550   -4.3190    2.7250 hc        1 CIB      0.069033
     48 HD32        4.5900   -3.1000    2.5880 hc        1 CIB      0.069033
     49 HD33        4.0030   -3.6360    4.2220 hc        1 CIB      0.069033
     50 HD41        1.6600   -2.9150    5.0110 hc        1 CIB      0.069033
     51 HD42        1.0200   -3.6740    3.5060 hc        1 CIB      0.069033
     52 HD43        0.6120   -1.9480    3.8840 hc        1 CIB      0.069033
     53 HN3         4.4380    0.4370    5.3590 hn        1 CIB      0.491300
     54 HA3         5.0190    3.3350    4.9390 hx        1 CIB      0.165700
     55 H3          6.6020    2.4990    2.9640 h4        1 CIB      0.120200
     56 HB31        7.3740    2.6150    5.2710 hc        1 CIB      0.105200
     57 HB32        6.8920    0.8790    5.4710 hc        1 CIB      0.105200
     58 HG31        5.8460    3.2010    7.2590 hc        1 CIB      0.045700
     59 HG32        5.6260    1.4200    7.5400 hc        1 CIB      0.045700
     60 HE31        6.9350    3.3470    9.5420 hc        1 CIB      0.057700
     61 HE32        8.3890    2.3230    9.8830 hc        1 CIB      0.057700
     62 HE33        6.7530    1.5560    9.7690 hc        1 CIB      0.057700
     63 H191        8.1290    1.1540    7.6970 hc        1 CIB      0.062200
     64 H192        8.3200    2.9400    7.4770 hc        1 CIB      0.062200
     65 H12        -0.4090    0.1930   -1.5220 hn        1 CIB      0.497300
     66 H22         3.0030    0.2080    1.5930 hn        1 CIB      0.499800
     67 H32         3.8310    1.7790    6.1560 hn        1 CIB      0.491300
@<TRIPOS>BOND
     1    1    2 1   
     2    1    9 1   
     3    1   28 1   
     4    1   65 1   
     5    2    3 1   
     6    2    5 1   
     7    2   29 1   
     8    3    4 2   
     9    3   12 1   
    10    5    6 1   
    11    5   30 1   
    12    5   31 1   
    13    6    7 1   
    14    6    8 1   
    15    6   32 1   
    16    7   33 1   
    17    7   34 1   
    18    7   35 1   
    19    8   36 1   
    20    8   37 1   
    21    8   38 1   
    22    9   10 1   
    23    9   11 2   
    24   10   39 1   
    25   10   40 1   
    26   10   41 1   
    27   12   13 1   
    28   12   42 1   
    29   12   66 1   
    30   13   14 1   
    31   13   16 1   
    32   13   43 1   
    33   14   15 2   
    34   14   20 1   
    35   16   17 1   
    36   16   44 1   
    37   16   45 1   
    38   17   18 1   
    39   17   19 1   
    40   17   46 1   
    41   18   47 1   
    42   18   48 1   
    43   18   49 1   
    44   19   50 1   
    45   19   51 1   
    46   19   52 1   
    47   20   21 1   
    48   20   53 1   
    49   20   67 1   
    50   21   22 1   
    51   21   24 1   
    52   21   54 1   
    53   22   23 2   
    54   22   55 1   
    55   24   25 1   
    56   24   56 1   
    57   24   57 1   
    58   25   27 1   
    59   25   58 1   
    60   25   59 1   
    61   26   27 1   
    62   26   60 1   
    63   26   61 1   
    64   26   62 1   
    65   27   63 1   
    66   27   64 1   
@<TRIPOS>SUBSTRUCTURE
     1 CIB         1 TEMP              0 ****  ****    0 ROOT
