@<TRIPOS>MOLECULE
CID
   39    42     1     0     0
SMALL
bcc


@<TRIPOS>ATOM
      1 C20        -0.1760    0.0220    0.0890 ca        1 CID     -0.089300
      2 C18        -1.0520   -0.2550   -1.0860 c3        1 CID      0.191700
      3 O16        -1.1760    1.0030   -1.8150 os        1 CID     -0.189300
      4 N11        -1.9000    0.8950   -2.9190 n2        1 CID     -0.457200
      5 C10        -2.0630    2.0250   -3.5590 ce        1 CID      0.444800
      6 C21         0.9040    0.9020   -0.0110 ca        1 CID     -0.092000
      7 C23         1.7360    1.1210    1.0930 ca        1 CID      0.015400
      8 Cl26        3.0370    2.1970    0.9390 cl        1 CID     -0.064400
      9 C25         1.4860    0.4520    2.3000 ca        1 CID      0.021400
     10 Cl27        2.4770    0.6890    3.6560 cl        1 CID     -0.065400
     11 C24         0.4010   -0.4280    2.3960 ca        1 CID     -0.118000
     12 C22        -0.4270   -0.6370    1.2980 ca        1 CID     -0.114000
     13 N5         -3.3350    1.0500   -5.5260 na        1 CID     -0.116900
     14 C9         -3.9460    1.6150   -6.6980 cc        1 CID      0.395900
     15 N4         -3.8250    2.9630   -6.7170 nd        1 CID     -0.625000
     16 C1         -3.1340    3.2880   -5.5460 cd        1 CID      0.412800
     17 C2         -2.8110    2.1140   -4.7930 cc        1 CID     -0.245500
     18 C3         -2.8050    4.6570   -5.1810 ca        1 CID     -0.120500
     19 C8         -2.9880    5.1050   -3.8660 ca        1 CID     -0.100500
     20 C13        -2.6680    6.4150   -3.5160 ca        1 CID     -0.128500
     21 C17        -2.1670    7.2860   -4.4880 ca        1 CID      0.023400
     22 Cl19       -1.7710    8.8840   -4.0640 cl        1 CID     -0.092400
     23 C12        -1.9930    6.8540   -5.8060 ca        1 CID     -0.128500
     24 C7         -2.3150    5.5440   -6.1510 ca        1 CID     -0.100500
     25 C11        -3.4480   -0.3360   -5.4900 cc        1 CID     -0.065300
     26 S14        -4.6180    0.4000   -7.6710 ss        1 CID     -0.010300
     27 C15        -4.1190   -0.8140   -6.5890 cd        1 CID     -0.176100
     28 H181       -0.5800   -1.0270   -1.7500 h1        1 CID      0.059200
     29 H182       -2.0700   -0.5980   -0.7650 h1        1 CID      0.059200
     30 H10        -1.6390    2.9930   -3.2140 h4        1 CID      0.028800
     31 H21         1.0920    1.4290   -0.9610 ha        1 CID      0.165000
     32 H24         0.2020   -0.9520    3.3440 ha        1 CID      0.153000
     33 H22        -1.2820   -1.3250    1.3840 ha        1 CID      0.142000
     34 H8         -3.4030    4.4250   -3.1060 ha        1 CID      0.148000
     35 H13        -2.8150    6.7600   -2.4810 ha        1 CID      0.149500
     36 H12        -1.6060    7.5450   -6.5710 ha        1 CID      0.149500
     37 H7         -2.1870    5.2050   -7.1910 ha        1 CID      0.148000
     38 H11        -3.0250   -0.8980   -4.6490 h4        1 CID      0.204000
     39 H15        -4.3270   -1.8660   -6.7770 h4        1 CID      0.189000
@<TRIPOS>BOND
     1    1    2 1   
     2    1    6 ar  
     3    1   12 ar  
     4    2    3 1   
     5    2   28 1   
     6    2   29 1   
     7    3    4 1   
     8    4    5 2   
     9    5   17 1   
    10    5   30 1   
    11    6    7 ar  
    12    6   31 1   
    13    7    8 1   
    14    7    9 ar  
    15    9   10 1   
    16    9   11 ar  
    17   11   12 ar  
    18   11   32 1   
    19   12   33 1   
    20   13   14 1   
    21   13   17 1   
    22   13   25 1   
    23   14   15 2   
    24   14   26 1   
    25   15   16 1   
    26   16   17 2   
    27   16   18 1   
    28   18   19 ar  
    29   18   24 ar  
    30   19   20 ar  
    31   19   34 1   
    32   20   21 ar  
    33   20   35 1   
    34   21   22 1   
    35   21   23 ar  
    36   23   24 ar  
    37   23   36 1   
    38   24   37 1   
    39   25   27 2   
    40   25   38 1   
    41   26   27 1   
    42   27   39 1   
@<TRIPOS>SUBSTRUCTURE
     1 CID         1 TEMP              0 ****  ****    0 ROOT
