@<TRIPOS>MOLECULE
CID
   39    33     1     0     0
SMALL
bcc


@<TRIPOS>ATOM
      1 C20         1.7800   -2.4430   -0.7650 c1        1 CID     -0.096000
      2 C18         1.9720   -1.2260   -1.6600 c2        1 CID      0.034000
      3 O16         1.2220   -0.1280   -1.1390 os        1 CID     -0.231000
      4 N11         0.2790    0.2670   -2.0540 n2        1 CID     -0.051000
      5 C10        -0.3960    1.3940   -1.8670 c1        1 CID     -0.056000
      6 C21         2.8000   -3.3730   -0.6330 c1        1 CID     -0.108000
      7 C23         2.6050   -4.5130    0.1320 c1        1 CID     -0.060000
      8 CL26        3.8780   -5.6940    0.2760 cl        1 CID      0.012000
      9 C25         1.3920   -4.7230    0.7650 c1        1 CID     -0.057000
     10 CL27        1.1910   -6.0890    1.8310 cl        1 CID      0.013000
     11 C24         0.3720   -3.7930    0.6340 c2        1 CID     -0.116000
     12 C22         0.5680   -2.6520   -0.1330 c2        1 CID     -0.103000
     13 N5          0.7160    3.2890   -0.5700 n3        1 CID     -0.076000
     14 C9          0.5490    3.9100    0.6860 c2        1 CID     -0.270000
     15 N4         -0.4030    3.2260    1.3680 n2        1 CID     -0.100000
     16 C1         -0.8350    2.1980    0.5770 c2        1 CID     -0.024000
     17 C2         -0.1250    2.2520   -0.6330 c1        1 CID     -0.099000
     18 C3         -1.8610    1.3130    0.8790 c1        1 CID     -0.013000
     19 C8         -2.9850    1.2530    0.0660 c1        1 CID     -0.122000
     20 C13        -4.0680    0.4660    0.4340 c1        1 CID     -0.122000
     21 C17        -4.0280   -0.2590    1.6150 c1        1 CID     -0.055000
     22 CL19       -5.3480   -1.3230    2.0290 cl        1 CID     -0.014000
     23 C12        -2.9050   -0.1990    2.4280 c1        1 CID     -0.130000
     24 C7         -1.8220    0.5870    2.0600 c1        1 CID     -0.087000
     25 C11         1.8260    4.0800   -1.3760 c1        1 CID     -0.047000
     26 S14         1.5280    5.1180    0.7580 ss        1 CID      0.575000
     27 C15         2.2910    5.1660   -0.5560 c1        1 CID     -0.445000
     28 H181        1.6590   -1.4340   -2.5670 h4        1 CID      0.112500
     29 H182        2.9240   -0.9870   -1.6890 h4        1 CID      0.112500
     30 H10        -1.0650    1.6740   -2.5160 ha        1 CID      0.183000
     31 H21         3.6370   -3.2510   -1.1200 ha        1 CID      0.152000
     32 H24        -0.4810   -3.9400    1.0780 ha        1 CID      0.154000
     33 H22        -0.1470   -2.0000   -0.2250 ha        1 CID      0.144000
     34 H8         -3.0130    1.7640   -0.7670 ha        1 CID      0.146000
     35 H13        -4.8590    0.4240   -0.1390 ha        1 CID      0.146000
     36 H12        -2.8770   -0.7100    3.2600 ha        1 CID      0.150000
     37 H7         -1.0310    0.6290    2.6330 ha        1 CID      0.155000
     38 H11         2.1400    3.8670   -2.2750 DU        1 CID      0.196500
     39 H15         2.9260    5.8580   -0.8250 DU        1 CID      0.196500
@<TRIPOS>BOND
     1    1    6 1   
     2    1   12 1   
     3    2    3 1   
     4    2   28 1   
     5    2   29 1   
     6    3    4 1   
     7    4    5 1   
     8    5   30 1   
     9    6   31 1   
    10    7    8 1   
    11    7    9 1   
    12    9   11 1   
    13   11   12 1   
    14   11   32 1   
    15   12   33 1   
    16   13   14 1   
    17   13   17 1   
    18   13   25 1   
    19   14   15 1   
    20   14   26 1   
    21   15   16 1   
    22   16   17 1   
    23   16   18 1   
    24   18   24 1   
    25   19   20 1   
    26   19   34 1   
    27   20   35 1   
    28   21   22 1   
    29   21   23 1   
    30   23   36 1   
    31   24   37 1   
    32   25   27 1   
    33   26   27 1   
@<TRIPOS>SUBSTRUCTURE
     1 CID         1 TEMP              0 ****  ****    0 ROOT
