@<TRIPOS>MOLECULE
CID
   39    42     1     0     0
SMALL
bcc


@<TRIPOS>ATOM
      1 C20        -0.1530    0.0260    0.0810 ca        1 CID     -0.089300
      2 C18        -1.0170   -0.2580   -1.1020 c3        1 CID      0.191700
      3 O16        -1.1580    1.0020   -1.8230 os        1 CID     -0.189300
      4 N11        -1.8820    0.8920   -2.9270 n2        1 CID     -0.457200
      5 C10        -2.0580    2.0220   -3.5620 ce        1 CID      0.444800
      6 C21         0.9110    0.9250   -0.0060 ca        1 CID     -0.092000
      7 C23         1.7320    1.1510    1.1040 ca        1 CID      0.015400
      8 CL26        3.0140    2.2520    0.9670 cl        1 CID     -0.064400
      9 C25         1.4880    0.4680    2.3050 ca        1 CID      0.021400
     10 CL27        2.4660    0.7130    3.6680 cl        1 CID     -0.065400
     11 C24         0.4190   -0.4310    2.3870 ca        1 CID     -0.118000
     12 C22        -0.3990   -0.6480    1.2830 ca        1 CID     -0.114000
     13 N5         -3.3220    1.0420   -5.5320 na        1 CID     -0.116900
     14 C9         -3.9390    1.6050   -6.7010 cc        1 CID      0.395900
     15 N4         -3.8330    2.9550   -6.7140 nd        1 CID     -0.625000
     16 C1         -3.1430    3.2830   -5.5430 cd        1 CID      0.412800
     17 C2         -2.8080    2.1090   -4.7950 cc        1 CID     -0.245500
     18 C3         -2.8280    4.6530   -5.1740 ca        1 CID     -0.120500
     19 C8         -3.0140    5.0950   -3.8560 ca        1 CID     -0.100500
     20 C13        -2.7070    6.4060   -3.5020 ca        1 CID     -0.128500
     21 C17        -2.2150    7.2860   -4.4710 ca        1 CID      0.023400
     22 CL19       -1.8350    8.8860   -4.0420 cl        1 CID     -0.092400
     23 C12        -2.0380    6.8610   -5.7920 ca        1 CID     -0.128500
     24 C7         -2.3480    5.5480   -6.1410 ca        1 CID     -0.100500
     25 C11        -3.4210   -0.3450   -5.5010 cc        1 CID     -0.065300
     26 S14        -4.6010    0.3880   -7.6780 ss        1 CID     -0.010300
     27 C15        -4.0880   -0.8250   -6.6010 cd        1 CID     -0.176100
     28 H181       -0.5280   -1.0180   -1.7680 h1        1 CID      0.059200
     29 H182       -2.0310   -0.6210   -0.7900 h1        1 CID      0.059200
     30 H10        -1.6440    2.9940   -3.2130 h4        1 CID      0.028800
     31 H21         1.0950    1.4630   -0.9510 ha        1 CID      0.165000
     32 H24         0.2240   -0.9660    3.3300 ha        1 CID      0.153000
     33 H22        -1.2420   -1.3510    1.3590 ha        1 CID      0.142000
     34 H8         -3.4210    4.4070   -3.0990 ha        1 CID      0.148000
     35 H13        -2.8560    6.7460   -2.4660 ha        1 CID      0.149500
     36 H12        -1.6590    7.5580   -6.5540 ha        1 CID      0.149500
     37 H7         -2.2170    5.2140   -7.1820 ha        1 CID      0.148000
     38 H11        -2.9910   -0.9060   -4.6630 h4        1 CID      0.204000
     39 H15        -4.2860   -1.8790   -6.7920 h4        1 CID      0.189000
@<TRIPOS>BOND
     1    1    2 1   
     2    1    6 ar  
     3    1   12 ar  
     4    2    3 1   
     5    2   28 1   
     6    2   29 1   
     7    3    4 1   
     8    4    5 2   
     9    5   17 1   
    10    5   30 1   
    11    6    7 ar  
    12    6   31 1   
    13    7    8 1   
    14    7    9 ar  
    15    9   10 1   
    16    9   11 ar  
    17   11   12 ar  
    18   11   32 1   
    19   12   33 1   
    20   13   14 1   
    21   13   17 1   
    22   13   25 1   
    23   14   15 2   
    24   14   26 1   
    25   15   16 1   
    26   16   17 2   
    27   16   18 1   
    28   18   19 ar  
    29   18   24 ar  
    30   19   20 ar  
    31   19   34 1   
    32   20   21 ar  
    33   20   35 1   
    34   21   22 1   
    35   21   23 ar  
    36   23   24 ar  
    37   23   36 1   
    38   24   37 1   
    39   25   27 2   
    40   25   38 1   
    41   26   27 1   
    42   27   39 1   
@<TRIPOS>SUBSTRUCTURE
     1 CID         1 TEMP              0 ****  ****    0 ROOT
