@<TRIPOS>MOLECULE
CID
   39    42     1     0     0
SMALL
bcc


@<TRIPOS>ATOM
      1 C20         0.6580    0.6180   -3.5760 ca        1 CID     -0.089300
      2 C18         1.5800    0.6650   -2.4050 c3        1 CID      0.191700
      3 O16         0.7690    0.3710   -1.2280 os        1 CID     -0.189300
      4 N11         1.4710    0.3460   -0.1050 n2        1 CID     -0.457200
      5 C10         0.7520    0.1310    0.9660 ce        1 CID      0.444800
      6 C21        -0.3820   -0.3120   -3.6360 ca        1 CID     -0.092000
      7 C23        -1.2140   -0.3640   -4.7600 ca        1 CID      0.015400
      8 CL26       -2.4700   -1.5020   -4.7990 cl        1 CID     -0.064400
      9 C25        -1.0000    0.5170   -5.8310 ca        1 CID      0.021400
     10 CL27       -1.9840    0.4780   -7.2100 cl        1 CID     -0.065400
     11 C24         0.0440    1.4480   -5.7650 ca        1 CID     -0.118000
     12 C22         0.8640    1.5010   -4.6430 ca        1 CID     -0.114000
     13 N5          2.6940    0.0670    2.5980 na        1 CID     -0.116900
     14 C9          2.7950   -0.0850    4.0230 cc        1 CID      0.395900
     15 N4          1.5720   -0.1850    4.5970 nd        1 CID     -0.625000
     16 C1          0.6600   -0.0950    3.5420 cd        1 CID      0.412800
     17 C2          1.3350    0.0540    2.2870 cc        1 CID     -0.245500
     18 C3         -0.7790   -0.1500    3.7390 ca        1 CID     -0.120500
     19 C8         -1.6240    0.7460    3.0690 ca        1 CID     -0.100500
     20 C13        -3.0030    0.6880    3.2550 ca        1 CID     -0.128500
     21 C17        -3.5430   -0.2680    4.1210 ca        1 CID      0.023400
     22 CL19       -5.2260   -0.3440    4.3470 cl        1 CID     -0.092400
     23 C12        -2.7100   -1.1580    4.8050 ca        1 CID     -0.128500
     24 C7         -1.3310   -1.0950    4.6160 ca        1 CID     -0.100500
     25 C11         3.9410    0.1690    1.9900 cc        1 CID     -0.065300
     26 S14         4.4170   -0.0860    4.5150 ss        1 CID     -0.010300
     27 C15         4.9560    0.1010    2.9130 cd        1 CID     -0.176100
     28 H181        2.0440    1.6790   -2.2910 h1        1 CID      0.059200
     29 H182        2.3820   -0.1130   -2.5090 h1        1 CID      0.059200
     30 H10        -0.3500   -0.0170    0.9470 h4        1 CID      0.028800
     31 H21        -0.5500   -0.9970   -2.7890 ha        1 CID      0.165000
     32 H24         0.2120    2.1420   -6.6040 ha        1 CID      0.153000
     33 H22         1.6770    2.2410   -4.5970 ha        1 CID      0.142000
     34 H8         -1.1960    1.5110    2.4030 ha        1 CID      0.148000
     35 H13        -3.6600    1.3940    2.7250 ha        1 CID      0.149500
     36 H12        -3.1370   -1.9030    5.4930 ha        1 CID      0.149500
     37 H7         -0.6720   -1.7890    5.1610 ha        1 CID      0.148000
     38 H11         4.0120    0.2890    0.9020 h4        1 CID      0.204000
     39 H15         6.0160    0.1600    2.6700 h4        1 CID      0.189000
@<TRIPOS>BOND
     1    1    2 1   
     2    1    6 ar  
     3    1   12 ar  
     4    2    3 1   
     5    2   28 1   
     6    2   29 1   
     7    3    4 1   
     8    4    5 2   
     9    5   17 1   
    10    5   30 1   
    11    6    7 ar  
    12    6   31 1   
    13    7    8 1   
    14    7    9 ar  
    15    9   10 1   
    16    9   11 ar  
    17   11   12 ar  
    18   11   32 1   
    19   12   33 1   
    20   13   14 1   
    21   13   17 1   
    22   13   25 1   
    23   14   15 2   
    24   14   26 1   
    25   15   16 1   
    26   16   17 2   
    27   16   18 1   
    28   18   19 ar  
    29   18   24 ar  
    30   19   20 ar  
    31   19   34 1   
    32   20   21 ar  
    33   20   35 1   
    34   21   22 1   
    35   21   23 ar  
    36   23   24 ar  
    37   23   36 1   
    38   24   37 1   
    39   25   27 2   
    40   25   38 1   
    41   26   27 1   
    42   27   39 1   
@<TRIPOS>SUBSTRUCTURE
     1 CID         1 TEMP              0 ****  ****    0 ROOT
