@<TRIPOS>MOLECULE
CID
   39    42     1     0     0
SMALL
bcc


@<TRIPOS>ATOM
      1 C20        -0.1560    0.0250    0.0820 ca        1 CID     -0.089300
      2 C18        -1.0340   -0.2540   -1.0920 c3        1 CID      0.191700
      3 O16        -1.1660    1.0040   -1.8180 os        1 CID     -0.189300
      4 N11        -1.8930    0.8940   -2.9210 n2        1 CID     -0.457200
      5 C10        -2.0640    2.0240   -3.5580 ce        1 CID      0.444800
      6 C21         0.9180    0.9110   -0.0200 ca        1 CID     -0.092000
      7 C23         1.7520    1.1330    1.0820 ca        1 CID      0.015400
      8 CL26        3.0460    2.2170    0.9270 cl        1 CID     -0.064400
      9 C25         1.5100    0.4600    2.2890 ca        1 CID      0.021400
     10 CL27        2.5030    0.6990    3.6420 cl        1 CID     -0.065400
     11 C24         0.4300   -0.4260    2.3850 ca        1 CID     -0.118000
     12 C22        -0.4000   -0.6380    1.2900 ca        1 CID     -0.114000
     13 N5         -3.3350    1.0450   -5.5240 na        1 CID     -0.116900
     14 C9         -3.9520    1.6080   -6.6940 cc        1 CID      0.395900
     15 N4         -3.8390    2.9580   -6.7100 nd        1 CID     -0.625000
     16 C1         -3.1470    3.2850   -5.5400 cd        1 CID      0.412800
     17 C2         -2.8160    2.1110   -4.7900 cc        1 CID     -0.245500
     18 C3         -2.8250    4.6550   -5.1740 ca        1 CID     -0.120500
     19 C8         -3.0080    5.1000   -3.8570 ca        1 CID     -0.100500
     20 C13        -2.6950    6.4100   -3.5060 ca        1 CID     -0.128500
     21 C17        -2.2010    7.2870   -4.4770 ca        1 CID      0.023400
     22 CL19       -1.8140    8.8860   -4.0510 cl        1 CID     -0.092400
     23 C12        -2.0280    6.8580   -5.7970 ca        1 CID     -0.128500
     24 C7         -2.3430    5.5460   -6.1430 ca        1 CID     -0.100500
     25 C11        -3.4390   -0.3410   -5.4900 cc        1 CID     -0.065300
     26 S14        -4.6190    0.3920   -7.6670 ss        1 CID     -0.010300
     27 C15        -4.1100   -0.8210   -6.5890 cd        1 CID     -0.176100
     28 H181       -0.5600   -1.0230   -1.7580 h1        1 CID      0.059200
     29 H182       -2.0490   -0.6030   -0.7690 h1        1 CID      0.059200
     30 H10        -1.6450    2.9940   -3.2120 h4        1 CID      0.028800
     31 H21         1.1000    1.4420   -0.9690 ha        1 CID      0.165000
     32 H24         0.2370   -0.9540    3.3330 ha        1 CID      0.153000
     33 H22        -1.2510   -1.3310    1.3770 ha        1 CID      0.142000
     34 H8         -3.4160    4.4150   -3.0970 ha        1 CID      0.148000
     35 H13        -2.8410    6.7520   -2.4700 ha        1 CID      0.149500
     36 H12        -1.6470    7.5520   -6.5620 ha        1 CID      0.149500
     37 H7         -2.2160    5.2100   -7.1840 ha        1 CID      0.148000
     38 H11        -3.0110   -0.9030   -4.6510 h4        1 CID      0.204000
     39 H15        -4.3130   -1.8740   -6.7770 h4        1 CID      0.189000
@<TRIPOS>BOND
     1    1    2 1   
     2    1    6 ar  
     3    1   12 ar  
     4    2    3 1   
     5    2   28 1   
     6    2   29 1   
     7    3    4 1   
     8    4    5 2   
     9    5   17 1   
    10    5   30 1   
    11    6    7 ar  
    12    6   31 1   
    13    7    8 1   
    14    7    9 ar  
    15    9   10 1   
    16    9   11 ar  
    17   11   12 ar  
    18   11   32 1   
    19   12   33 1   
    20   13   14 1   
    21   13   17 1   
    22   13   25 1   
    23   14   15 2   
    24   14   26 1   
    25   15   16 1   
    26   16   17 2   
    27   16   18 1   
    28   18   19 ar  
    29   18   24 ar  
    30   19   20 ar  
    31   19   34 1   
    32   20   21 ar  
    33   20   35 1   
    34   21   22 1   
    35   21   23 ar  
    36   23   24 ar  
    37   23   36 1   
    38   24   37 1   
    39   25   27 2   
    40   25   38 1   
    41   26   27 1   
    42   27   39 1   
@<TRIPOS>SUBSTRUCTURE
     1 CID         1 TEMP              0 ****  ****    0 ROOT
