@<TRIPOS>MOLECULE
CIE
   42    43     1     0     0
SMALL
bcc


@<TRIPOS>ATOM
      1 C1         -0.2250    0.9060    3.1000 ca        1 CIE     -0.007600
      2 C2         -0.8430   -0.2030    2.4940 ca        1 CIE     -0.331500
      3 C3         -2.2320   -0.1630    2.3140 ca        1 CIE     -0.017000
      4 C4         -2.9900    0.9270    2.7430 ca        1 CIE     -0.128000
      5 C5         -2.3650    2.0020    3.3670 ca        1 CIE     -0.076000
      6 C6         -0.9800    1.9910    3.5480 ca        1 CIE     -0.109000
      7 C7          1.2470    0.9740    3.2510 c         1 CIE      0.647700
      8 O7          2.1070    0.6410    2.4280 o         1 CIE     -0.559000
      9 O8          1.6510    1.5180    4.4320 os        1 CIE     -0.421900
     10 C9          3.0760    1.5740    4.6550 c3        1 CIE      0.138400
     11 C10         3.2570    2.1410    6.0420 c3        1 CIE     -0.102100
     12 S11        -0.0360   -1.6160    2.0060 sy        1 CIE      1.516900
     13 OBA         0.9520   -1.9300    2.9580 o         1 CIE     -0.632300
     14 OBB        -0.9760   -2.6220    1.7490 o         1 CIE     -0.632300
     15 N12         0.7430   -1.1450    0.6320 n         1 CIE     -0.672300
     16 C13         0.1680   -0.9670   -0.6420 c         1 CIE      0.818100
     17 O13        -1.0680   -1.0180   -0.7800 o         1 CIE     -0.561100
     18 N14         1.0560   -0.7530   -1.7240 n         1 CIE     -0.548400
     19 N1'         1.2880   -0.7130   -4.0870 nb        1 CIE     -0.804000
     20 C2'         0.6200   -0.2380   -2.9660 ca        1 CIE      0.818900
     21 N3'        -0.3750    0.7190   -2.9670 nb        1 CIE     -0.710000
     22 C4'        -0.7230    1.2060   -4.1840 ca        1 CIE      0.564300
     23 CL4'       -1.9540    2.3870   -4.2510 cl        1 CIE     -0.126000
     24 C5'        -0.1250    0.8030   -5.3880 ca        1 CIE     -0.399600
     25 C6'         0.9000   -0.1750   -5.2670 ca        1 CIE      0.690600
     26 O7'         1.4800   -0.5490   -6.4550 os        1 CIE     -0.436100
     27 C8'         2.5030   -1.5480   -6.4160 c3        1 CIE      0.122700
     28 H3         -2.7340   -1.0160    1.8170 ha        1 CIE      0.179000
     29 H4         -4.0790    0.9310    2.5840 ha        1 CIE      0.150000
     30 H5         -2.9550    2.8640    3.7170 ha        1 CIE      0.145000
     31 H6         -0.4770    2.8360    4.0450 ha        1 CIE      0.157000
     32 H91         3.5330    2.2280    3.8670 h1        1 CIE      0.058700
     33 H92         3.4930    0.5370    4.5640 h1        1 CIE      0.058700
     34 H101        4.3490    2.1970    6.2690 hc        1 CIE      0.050700
     35 H102        2.8150    3.1630    6.1110 hc        1 CIE      0.050700
     36 H103        2.7590    1.4900    6.7990 hc        1 CIE      0.050700
     37 H12         1.6940   -0.8420    0.7310 hn        1 CIE      0.359500
     38 H14         1.9430   -1.2080   -1.7140 hn        1 CIE      0.346500
     39 H5'        -0.4120    1.2020   -6.3660 ha        1 CIE      0.183000
     40 H8'1        2.7800   -1.6590   -7.4950 h1        1 CIE      0.056033
     41 H8'2        3.3730   -1.1940   -5.8140 h1        1 CIE      0.056033
     42 H8'3        2.1010   -2.5050   -6.0050 h1        1 CIE      0.056033
@<TRIPOS>BOND
     1    1    2 ar  
     2    1    6 ar  
     3    1    7 1   
     4    2    3 ar  
     5    2   12 1   
     6    3    4 ar  
     7    3   28 1   
     8    4    5 ar  
     9    4   29 1   
    10    5    6 ar  
    11    5   30 1   
    12    6   31 1   
    13    7    8 2   
    14    7    9 1   
    15    9   10 1   
    16   10   11 1   
    17   10   32 1   
    18   10   33 1   
    19   11   34 1   
    20   11   35 1   
    21   11   36 1   
    22   12   13 2   
    23   12   14 2   
    24   12   15 1   
    25   15   16 1   
    26   15   37 1   
    27   16   17 2   
    28   16   18 1   
    29   18   20 1   
    30   18   38 1   
    31   19   20 ar  
    32   19   25 ar  
    33   20   21 ar  
    34   21   22 ar  
    35   22   23 1   
    36   22   24 ar  
    37   24   25 ar  
    38   24   39 1   
    39   25   26 1   
    40   26   27 1   
    41   27   40 1   
    42   27   41 1   
    43   27   42 1   
@<TRIPOS>SUBSTRUCTURE
     1 CIE         1 TEMP              0 ****  ****    0 ROOT
