@<TRIPOS>MOLECULE
CIE
   43    43     1     0     0
SMALL
bcc


@<TRIPOS>ATOM
      1 C1          0.1220   -0.5740   -0.2480 ca        1 CIE      0.028400
      2 C2          1.4330   -0.0230   -0.2050 ca        1 CIE     -0.530500
      3 C3          2.1690   -0.2220    0.9890 ca        1 CIE      0.034000
      4 C4          1.6200   -0.8690    2.0910 ca        1 CIE     -0.126000
      5 C5          0.3120   -1.3450    2.0370 ca        1 CIE      0.013000
      6 C6         -0.4360   -1.1950    0.8590 ca        1 CIE     -0.100000
      7 C7         -0.6520   -0.5700   -1.5180 c         1 CIE      0.637700
      8 O7         -0.1840   -0.8170   -2.6400 o         1 CIE     -0.586000
      9 O8         -1.9660   -0.3160   -1.3700 os        1 CIE     -0.397900
     10 C9         -2.7710   -0.3020   -2.5820 c3        1 CIE      0.142400
     11 C10        -4.1650    0.0540   -2.1360 c3        1 CIE     -0.109100
     12 S11         2.1020    0.8370   -1.3590 s4        1 CIE      1.647300
     13 OBA         1.2790    1.4790   -2.2290 o         1 CIE     -0.425900
     14 OBB         3.3790    1.2550   -1.1470 o         1 CIE     -0.425900
     15 N12         2.6630   -0.7950   -2.8400 n         1 CIE     -0.709000
     16 C13         2.8090   -2.1340   -2.2620 c         1 CIE      0.730100
     17 O13         3.8430   -2.3510   -1.6100 o         1 CIE     -0.522100
     18 N14         1.7710   -3.0370   -2.4370 n         1 CIE     -0.537400
     19 N1'         1.5910   -5.4120   -2.5770 nb        1 CIE     -0.771000
     20 C2'         1.7920   -4.3060   -1.7750 ca        1 CIE      0.786900
     21 N3'         1.9740   -4.3010   -0.4150 nb        1 CIE     -0.725000
     22 C4'         1.9830   -5.5260    0.1800 ca        1 CIE      0.548300
     23 CL4'        2.2190   -5.5900    1.8670 cl        1 CIE     -0.108000
     24 C5'         1.8020   -6.7250   -0.5190 ca        1 CIE     -0.357600
     25 C6'         1.5980   -6.6050   -1.9260 ca        1 CIE      0.693600
     26 O7'         1.4090   -7.7890   -2.5820 os        1 CIE     -0.419100
     27 C8'         1.2390   -7.7590   -4.0040 c3        1 CIE      0.118700
     28 H3          3.2110    0.1540    1.0500 ha        1 CIE      0.185000
     29 H4          2.2270   -1.0070    3.0030 ha        1 CIE      0.184000
     30 H5         -0.1370   -1.8490    2.9120 ha        1 CIE      0.178000
     31 H6         -1.4710   -1.5800    0.8080 ha        1 CIE      0.186000
     32 H91        -2.3360    0.4580   -3.2810 h1        1 CIE      0.066700
     33 H92        -2.7140   -1.3210   -3.0460 h1        1 CIE      0.066700
     34 H101       -4.5590   -0.7050   -1.4170 hc        1 CIE      0.064033
     35 H102       -4.1790    1.0530   -1.6380 hc        1 CIE      0.064033
     36 H103       -4.8290    0.0840   -3.0340 hc        1 CIE      0.064033
     37 H12         3.5580   -0.5130   -3.2190 hn        1 CIE      0.326000
     38 H14         1.0680   -2.8950   -3.1320 hn        1 CIE      0.366500
     39 H5'         1.8140   -7.7120   -0.0390 ha        1 CIE      0.199000
     40 H8'1        0.3200   -7.1860   -4.2740 h1        1 CIE      0.064700
     41 H8'2        1.1250   -8.8460   -4.2550 h1        1 CIE      0.064700
     42 H8'3        2.1410   -7.3250   -4.4970 h1        1 CIE      0.064700
     43 H122        1.9480   -0.7370   -3.5530 hn        1 CIE      0.326000
@<TRIPOS>BOND
     1    1    2 ar  
     2    1    6 ar  
     3    1    7 1   
     4    2    3 ar  
     5    2   12 1   
     6    3    4 ar  
     7    3   28 1   
     8    4    5 ar  
     9    4   29 1   
    10    5    6 ar  
    11    5   30 1   
    12    6   31 1   
    13    7    8 2   
    14    7    9 1   
    15    9   10 1   
    16   10   11 1   
    17   10   32 1   
    18   10   33 1   
    19   11   34 1   
    20   11   35 1   
    21   11   36 1   
    22   12   13 1   
    23   12   14 1   
    24   15   16 1   
    25   15   37 1   
    26   15   43 1   
    27   16   17 2   
    28   16   18 1   
    29   18   20 1   
    30   18   38 1   
    31   19   20 ar  
    32   19   25 ar  
    33   20   21 ar  
    34   21   22 ar  
    35   22   23 1   
    36   22   24 ar  
    37   24   25 ar  
    38   24   39 1   
    39   25   26 1   
    40   26   27 1   
    41   27   40 1   
    42   27   41 1   
    43   27   42 1   
@<TRIPOS>SUBSTRUCTURE
     1 CIE         1 TEMP              0 ****  ****    0 ROOT
