@<TRIPOS>MOLECULE
CIE
   44    45     1     0     0
SMALL
bcc


@<TRIPOS>ATOM
      1 C1       -191.8030  278.3630  215.9960 ca        1 CIE     -0.095000
      2 C2       -191.1490  279.0020  217.0990 ca        1 CIE     -0.864000
      3 C3       -189.9180  279.5890  216.8660 ca        1 CIE      0.046000
      4 C4       -189.3430  279.5480  215.5760 ca        1 CIE     -0.084000
      5 C5       -189.9960  278.9240  214.5280 ca        1 CIE     -0.060000
      6 C6       -191.2550  278.3150  214.7320 ca        1 CIE     -0.008000
      7 C7       -193.0860  277.8040  216.4340 c2        1 CIE      0.518200
      8 O7       -193.3550  277.9980  217.6960 os        1 CIE     -0.385800
      9 O8       -193.9350  277.1720  215.6720 os        1 CIE     -0.253900
     10 C9       -195.1960  276.6610  216.2470 c3        1 CIE      0.147400
     11 C10      -194.9430  275.3710  216.9710 c3        1 CIE     -0.145100
     12 S11      -192.0000  278.9340  218.5260 s6        1 CIE      2.055700
     13 OBA      -191.5560  278.0060  219.4060 o         1 CIE     -0.503700
     14 OBB      -192.6460  280.0780  218.8550 o         1 CIE     -0.547300
     15 N12       209.9690 -307.5870 -237.8230 n         1 CIE     -0.594000
     16 C13       211.0150 -307.2140 -238.5990 c         1 CIE      0.660100
     17 O13       211.9090 -306.4010 -238.3520 o         1 CIE     -0.479100
     18 N14       211.1100 -307.7840 -240.0340 n4        1 CIE     -0.655500
     19 N1'       212.6390 -309.5370 -240.7120 nb        1 CIE     -0.750000
     20 C2'       211.4880 -309.2280 -240.0360 ca        1 CIE      0.763900
     21 N3'       210.6470 -310.0680 -239.3720 nb        1 CIE     -0.731000
     22 C4'       211.0060 -311.3890 -239.3910 ca        1 CIE      0.550300
     23 CL4'      210.0050 -312.4940 -238.5880 cl        1 CIE     -0.043000
     24 C5'       212.1580 -311.8460 -240.0440 ca        1 CIE     -0.318600
     25 C6'       212.9620 -310.8640 -240.7030 ca        1 CIE      0.711600
     26 O7'       214.0710 -311.3430 -241.3220 os        1 CIE     -0.400100
     27 C8'       214.9430 -310.4220 -241.9990 c3        1 CIE      0.114700
     28 H3       -189.3650  280.0980  217.6770 ha        1 CIE      0.173000
     29 H4       -188.3590  280.0250  215.4150 ha        1 CIE      0.185000
     30 H5       -189.5430  278.8950  213.5200 ha        1 CIE      0.185000
     31 H6       -191.7790  277.8170  213.8980 ha        1 CIE      0.187000
     32 H91      -195.7990  276.5270  215.3060 h1        1 CIE      0.106200
     33 H92      -195.6300  277.4540  216.9070 h1        1 CIE      0.106200
     34 H101     -194.3150  275.5400  217.8800 hc        1 CIE      0.079367
     35 H102     -194.4330  274.6280  216.3100 hc        1 CIE      0.079367
     36 H103     -195.9270  274.9430  217.2920 hc        1 CIE      0.079367
     37 H12       209.3500 -308.3300 -238.0540 hn        1 CIE      0.373500
     38 H14       210.2200 -307.6760 -240.5340 hn        1 CIE      0.487300
     39 H5'       212.4540 -312.9070 -240.0630 ha        1 CIE      0.218000
     40 H8'1      215.3580 -309.6810 -241.2760 h1        1 CIE      0.076033
     41 H8'2      215.7440 -311.1030 -242.3890 h1        1 CIE      0.076033
     42 H8'3      214.4000 -309.9180 -242.8330 h1        1 CIE      0.076033
     43 H122      209.9590 -307.2280 -236.8880 hn        1 CIE      0.373500
     44 H142      211.8430 -307.2340 -240.5180 hn        1 CIE      0.487300
@<TRIPOS>BOND
     1    1    2 ar  
     2    1    6 ar  
     3    1    7 2   
     4    2    3 ar  
     5    2   12 2   
     6    3    4 ar  
     7    3   28 1   
     8    4    5 ar  
     9    4   29 1   
    10    5    6 ar  
    11    5   30 1   
    12    6   31 1   
    13    7    8 1   
    14    7    9 1   
    15    8   12 1   
    16    9   10 1   
    17   10   11 1   
    18   10   32 1   
    19   10   33 1   
    20   11   34 1   
    21   11   35 1   
    22   11   36 1   
    23   12   13 1   
    24   12   14 2   
    25   15   16 1   
    26   15   37 1   
    27   15   43 1   
    28   16   17 2   
    29   16   18 1   
    30   18   20 1   
    31   18   38 1   
    32   18   44 1   
    33   19   20 ar  
    34   19   25 ar  
    35   20   21 ar  
    36   21   22 ar  
    37   22   23 1   
    38   22   24 ar  
    39   24   25 ar  
    40   24   39 1   
    41   25   26 1   
    42   26   27 1   
    43   27   40 1   
    44   27   41 1   
    45   27   42 1   
@<TRIPOS>SUBSTRUCTURE
     1 CIE         1 TEMP              0 ****  ****    0 ROOT
