@<TRIPOS>MOLECULE
CIE
   43    43     1     0     0
SMALL
bcc


@<TRIPOS>ATOM
      1 C1          0.1090   -0.5870   -0.2370 ca        1 CIE      0.028400
      2 C2          1.4200   -0.0390   -0.1700 ca        1 CIE     -0.530500
      3 C3          2.1380   -0.2510    1.0320 ca        1 CIE      0.034000
      4 C4          1.5730   -0.9070    2.1200 ca        1 CIE     -0.126000
      5 C5          0.2650   -1.3810    2.0430 ca        1 CIE      0.013000
      6 C6         -0.4660   -1.2180    0.8560 ca        1 CIE     -0.100000
      7 C7         -0.6470   -0.5690   -1.5180 c         1 CIE      0.637700
      8 O7         -0.1640   -0.8060   -2.6360 o         1 CIE     -0.586000
      9 O8         -1.9630   -0.3140   -1.3870 os        1 CIE     -0.397900
     10 C9         -2.7500   -0.2870   -2.6090 c3        1 CIE      0.142400
     11 C10        -4.1510    0.0650   -2.1790 c3        1 CIE     -0.109100
     12 S11         2.1060    0.8320   -1.3060 s4        1 CIE      1.647300
     13 OBA         1.2970    1.4840   -2.1810 o         1 CIE     -0.425900
     14 OBB         3.3810    1.2460   -1.0710 o         1 CIE     -0.425900
     15 N12         2.6860   -0.7860   -2.7950 nt        1 CIE     -0.709000
     16 C13         2.8220   -2.1310   -2.2280 c         1 CIE      0.730100
     17 O13         3.8480   -2.3560   -1.5650 o         1 CIE     -0.522100
     18 N14         1.7860   -3.0300   -2.4260 ns        1 CIE     -0.537400
     19 N1'         1.6040   -5.4040   -2.5910 nb        1 CIE     -0.772000
     20 C2'         1.7960   -4.3060   -1.7760 ca        1 CIE      0.786900
     21 N3'         1.9600   -4.3140   -0.4130 nb        1 CIE     -0.725000
     22 C4'         1.9600   -5.5450    0.1700 ca        1 CIE      0.548300
     23 Cl4'        2.1740   -5.6270    1.8590 cl        1 CIE     -0.108000
     24 C5'         1.7860   -6.7370   -0.5440 ca        1 CIE     -0.357600
     25 C6'         1.6010   -6.6030   -1.9520 ca        1 CIE      0.693600
     26 O7'         1.4190   -7.7800   -2.6210 os        1 CIE     -0.419100
     27 C8'         1.2660   -7.7370   -4.0450 c3        1 CIE      0.118700
     28 H3          3.1800    0.1230    1.1110 ha        1 CIE      0.185000
     29 H4          2.1670   -1.0550    3.0390 ha        1 CIE      0.184000
     30 H5         -0.1970   -1.8930    2.9050 ha        1 CIE      0.178000
     31 H6         -1.5010   -1.6010    0.7860 ha        1 CIE      0.186000
     32 H91        -2.6870   -1.3000   -3.0830 h1        1 CIE      0.066700
     33 H92        -2.3050    0.4800   -3.2940 h1        1 CIE      0.066700
     34 H101       -4.8010    0.1070   -3.0870 hc        1 CIE      0.064033
     35 H102       -4.1710    1.0590   -1.6710 hc        1 CIE      0.064033
     36 H103       -4.5550   -0.7010   -1.4760 hc        1 CIE      0.064033
     37 H12         3.5870   -0.5020   -3.1590 hn        1 CIE      0.326000
     38 H14         1.0920   -2.8810   -3.1290 hn        1 CIE      0.366500
     39 H5'         1.7900   -7.7290   -0.0720 ha        1 CIE      0.199000
     40 H8'1        1.1550   -8.8210   -4.3090 h1        1 CIE      0.064700
     41 H8'2        2.1760   -7.2990   -4.5220 h1        1 CIE      0.064700
     42 H8'3        0.3520   -7.1600   -4.3220 h1        1 CIE      0.064700
     43 H122        1.9810   -0.7210   -3.5180 hn        1 CIE      0.326000
@<TRIPOS>BOND
     1    1    2 ar  
     2    1    6 ar  
     3    1    7 1   
     4    2    3 ar  
     5    2   12 1   
     6    3    4 ar  
     7    3   28 1   
     8    4    5 ar  
     9    4   29 1   
    10    5    6 ar  
    11    5   30 1   
    12    6   31 1   
    13    7    8 2   
    14    7    9 1   
    15    9   10 1   
    16   10   11 1   
    17   10   32 1   
    18   10   33 1   
    19   11   34 1   
    20   11   35 1   
    21   11   36 1   
    22   12   13 1   
    23   12   14 1   
    24   15   16 1   
    25   15   37 1   
    26   15   43 1   
    27   16   17 2   
    28   16   18 1   
    29   18   20 1   
    30   18   38 1   
    31   19   20 ar  
    32   19   25 ar  
    33   20   21 ar  
    34   21   22 ar  
    35   22   23 1   
    36   22   24 ar  
    37   24   25 ar  
    38   24   39 1   
    39   25   26 1   
    40   26   27 1   
    41   27   40 1   
    42   27   41 1   
    43   27   42 1   
@<TRIPOS>SUBSTRUCTURE
     1 CIE         1 TEMP              0 ****  ****    0 ROOT
