@<TRIPOS>MOLECULE
CIE
   42    36     1     0     0
SMALL
bcc


@<TRIPOS>ATOM
      1 C1         -2.3850   -0.7960    2.6060 cg        1 CIE      0.039800
      2 C2         -1.0190   -0.4760    2.5190 c1        1 CIE     -0.307400
      3 C3         -0.3280   -0.0190    3.6580 c1        1 CIE      0.023500
      4 C4         -0.9990    0.1180    4.8720 c1        1 CIE     -0.046000
      5 C5         -2.3670   -0.2020    4.9610 c1        1 CIE     -0.046000
      6 C6         -3.0570   -0.6590    3.8240 c1        1 CIE     -0.053500
      7 C7         -3.1410   -1.3330    1.3570 c         1 CIE      0.592300
      8 O7         -3.2360   -0.6460    0.3650 o         1 CIE     -0.562000
      9 O8         -3.7480   -2.6400    1.3900 os        1 CIE     -0.413900
     10 C9         -5.1010   -2.6630    0.9340 c3        1 CIE      0.138400
     11 C10        -5.7170   -4.0260    1.2400 c3        1 CIE     -0.102100
     12 S11        -0.1770   -0.6060    0.9640 s4        1 CIE      1.618200
     13 OBA         0.6750   -1.7740    0.9310 o         1 CIE     -0.514900
     14 OBB        -1.0850   -0.8920   -0.0930 o         1 CIE     -0.514900
     15 N12         0.6800    0.7650    0.6560 n2        1 CIE     -1.099400
     16 C13         1.7360    0.7400   -0.2910 c2        1 CIE      0.772300
     17 O13         2.1450   -0.3130   -0.7080 o         1 CIE     -0.576300
     18 N14         2.3100    1.9960   -0.7810 n         1 CIE     -0.472700
     19 N1'         3.2120    2.6130   -2.9600 n1        1 CIE     -0.604800
     20 C2'         3.3800    1.9740   -1.7790 c1        1 CIE      0.541000
     21 N3'         4.5430    1.3120   -1.5190 n1        1 CIE     -0.505800
     22 C4'         5.5200    1.2950   -2.4320 c1        1 CIE      0.159900
     23 CL4'        7.0610    0.5390   -2.0540 cl        1 CIE     -0.046900
     24 C5'         5.3510    1.9400   -3.6250 c1        1 CIE     -0.212500
     25 C6'         4.1930    2.5970   -3.8800 c1        1 CIE      0.544400
     26 O7'         4.0300    3.3060   -5.1080 os        1 CIE     -0.294400
     27 C8'         3.5860    2.4860   -6.1950 c3        1 CIE      0.122700
     28 H3          0.6320    0.2060    3.5960 ha        1 CIE      0.119500
     29 H4         -0.5140    0.4380    5.6700 ha        1 CIE      0.090500
     30 H5         -2.8330   -0.1070    5.8040 ha        1 CIE      0.090500
     31 H6         -4.0160   -0.8820    3.8860 ha        1 CIE      0.098500
     32 H91        -5.6040   -1.9770    1.3850 h1        1 CIE      0.059200
     33 H92        -5.1240   -2.5030   -0.0330 h1        1 CIE      0.059200
     34 H101       -5.3820   -4.6920    0.5910 hc        1 CIE      0.051700
     35 H102       -5.4670   -4.3040    2.1570 hc        1 CIE      0.051700
     36 H103       -6.7080   -3.9640    1.1710 hc        1 CIE      0.051700
     37 H12         0.4480    1.5270    1.0400 hn        1 CIE      0.510400
     38 H14         1.9890    2.8030   -0.4680 hn        1 CIE      0.345500
     39 H5'         6.0700    1.9280   -4.3000 ha        1 CIE      0.124500
     40 H8'1        3.0000    1.7570   -5.8430 h1        1 CIE      0.055033
     41 H8'2        4.3820    2.0830   -6.6580 h1        1 CIE      0.055033
     42 H8'3        3.0650    3.0490   -6.8500 h1        1 CIE      0.055033
@<TRIPOS>BOND
     1    1    6 3   
     2    1    7 1   
     3    2    3 3   
     4    2   12 1   
     5    3   28 1   
     6    4    5 3   
     7    4   29 1   
     8    5   30 1   
     9    6   31 1   
    10    7    8 2   
    11    7    9 1   
    12    9   10 1   
    13   10   11 1   
    14   10   32 1   
    15   10   33 1   
    16   11   34 1   
    17   11   35 1   
    18   11   36 1   
    19   12   13 1   
    20   12   14 1   
    21   15   16 2   
    22   15   37 1   
    23   16   17 1   
    24   16   18 1   
    25   18   20 1   
    26   18   38 1   
    27   19   25 3   
    28   20   21 3   
    29   22   23 1   
    30   22   24 3   
    31   24   39 1   
    32   25   26 1   
    33   26   27 1   
    34   27   40 1   
    35   27   41 1   
    36   27   42 1   
@<TRIPOS>SUBSTRUCTURE
     1 CIE         1 TEMP              0 ****  ****    0 ROOT
