@<TRIPOS>MOLECULE
CIG
   12    12     1     0     0
SMALL
bcc


@<TRIPOS>ATOM
      1 N01        -0.0340   -0.1450    0.0380 nh        1 CIG     -0.925500
      2 C02         1.3530   -0.0330   -0.0140 ca        1 CIG      0.541900
      3 C03         2.1070    0.1360    1.2080 ca        1 CIG      0.226900
      4 N04         3.4450    0.1510    1.2240 nb        1 CIG     -0.591000
      5 C05         4.0820    0.0050    0.0460 ca        1 CIG      0.238900
      6 C06         3.3550   -0.1490   -1.1660 ca        1 CIG      0.419000
      7 CL1         4.2280   -0.3160   -2.6230 cl        1 CIG     -0.135000
      8 N08         2.0050   -0.1600   -1.2170 nb        1 CIG     -0.694000
      9 H011       -0.5240   -0.1040   -0.8280 hn        1 CIG      0.417300
     10 H012       -0.4620    0.3420    0.7910 hn        1 CIG      0.417300
     11 H03         1.5990    0.2510    2.1800 h4        1 CIG      0.036100
     12 H05         5.1840    0.0120    0.0650 h4        1 CIG      0.047100
@<TRIPOS>BOND
     1    1    2 1   
     2    1    9 1   
     3    1   10 1   
     4    2    3 ar  
     5    2    8 ar  
     6    3    4 ar  
     7    3   11 1   
     8    4    5 ar  
     9    5    6 ar  
    10    5   12 1   
    11    6    7 1   
    12    6    8 ar  
@<TRIPOS>SUBSTRUCTURE
     1 CIG         1 TEMP              0 ****  ****    0 ROOT
