@<TRIPOS>MOLECULE
CIG
   12    12     1     0     0
SMALL
bcc


@<TRIPOS>ATOM
      1 N01         2.5440   -1.4460   -0.1600 nh        1 CIG     -0.925500
      2 C02         1.5160   -0.5140   -0.0370 ca        1 CIG      0.541900
      3 C03         1.8250    0.8990   -0.0250 ca        1 CIG      0.226900
      4 N04         0.8710    1.8370   -0.0060 nb        1 CIG     -0.591000
      5 C05        -0.4100    1.4190    0.0060 ca        1 CIG      0.238900
      6 C06        -0.7290    0.0340    0.0070 ca        1 CIG      0.419000
      7 CL1        -2.3740   -0.4220    0.0360 cl        1 CIG     -0.135000
      8 N08         0.2100   -0.9360   -0.0030 nb        1 CIG     -0.694000
      9 H011        3.4150   -1.1570    0.2220 hn        1 CIG      0.417300
     10 H012        2.3090   -2.4010   -0.0090 hn        1 CIG      0.417300
     11 H03         2.8690    1.2550   -0.0400 h4        1 CIG      0.036100
     12 H05        -1.1920    2.1950    0.0160 h4        1 CIG      0.047100
@<TRIPOS>BOND
     1    1    2 1   
     2    1    9 1   
     3    1   10 1   
     4    2    3 ar  
     5    2    8 ar  
     6    3    4 ar  
     7    3   11 1   
     8    4    5 ar  
     9    5    6 ar  
    10    5   12 1   
    11    6    7 1   
    12    6    8 ar  
@<TRIPOS>SUBSTRUCTURE
     1 CIG         1 TEMP              0 ****  ****    0 ROOT
