@<TRIPOS>MOLECULE
CIG
   12    10     1     0     0
SMALL
bcc


@<TRIPOS>ATOM
      1 N01        -2.2280   -0.0010    0.0410 nh        1 CIG     -0.884800
      2 C02        -0.8100   -0.0010    0.0410 ce        1 CIG      0.612500
      3 C03        -0.1170   -0.0010    1.2420 ce        1 CIG     -0.259600
      4 N04         1.2250   -0.0010    1.2420 n1        1 CIG     -0.065000
      5 C05         1.8950   -0.0010    0.0800 c1        1 CIG     -0.103500
      6 C06         1.2020   -0.0010   -1.1200 ch        1 CIG      0.042000
      7 CL1         2.0740    0.0070   -2.6300 cl        1 CIG      0.031000
      8 N08        -0.1390   -0.0010   -1.1200 nf        1 CIG     -0.507700
      9 H011       -2.6840   -0.7900    0.0290 hn        1 CIG      0.417300
     10 H012       -2.6840    0.7890    0.0290 hn        1 CIG      0.417300
     11 H03        -0.6050   -0.0010    2.0870 h4        1 CIG      0.173000
     12 H05         2.8710   -0.0010    0.0800 ha        1 CIG      0.126500
@<TRIPOS>BOND
     1    1    2 1   
     2    1    9 1   
     3    1   10 1   
     4    2    3 1   
     5    2    8 2   
     6    3    4 2   
     7    3   11 1   
     8    5    6 3   
     9    5   12 1   
    10    6    8 1   
@<TRIPOS>SUBSTRUCTURE
     1 CIG         1 TEMP              0 ****  ****    0 ROOT
