@<TRIPOS>MOLECULE
CIG
   12    12     1     0     0
SMALL
bcc


@<TRIPOS>ATOM
      1 N01        -0.0330   -0.1480    0.0420 nv        1 CIG     -0.925500
      2 C02         1.3530   -0.0350   -0.0130 ca        1 CIG      0.541900
      3 C03         2.1070    0.1670    1.2040 ca        1 CIG      0.226900
      4 N04         3.4450    0.1850    1.2200 nb        1 CIG     -0.591000
      5 C05         4.0820    0.0110    0.0450 ca        1 CIG      0.238900
      6 C06         3.3550   -0.1760   -1.1620 ca        1 CIG      0.419000
      7 Cl1         4.2280   -0.3770   -2.6150 cl        1 CIG     -0.135000
      8 N08         2.0060   -0.1910   -1.2120 nb        1 CIG     -0.694000
      9 H011       -0.4630    0.3560    0.7830 hn        1 CIG      0.417300
     10 H012       -0.5240   -0.1300   -0.8250 hn        1 CIG      0.417300
     11 H03         1.5990    0.3050    2.1730 h4        1 CIG      0.036100
     12 H05         5.1840    0.0210    0.0640 h4        1 CIG      0.047100
@<TRIPOS>BOND
     1    1    2 1   
     2    1    9 1   
     3    1   10 1   
     4    2    3 ar  
     5    2    8 ar  
     6    3    4 ar  
     7    3   11 1   
     8    4    5 ar  
     9    5    6 ar  
    10    5   12 1   
    11    6    7 1   
    12    6    8 ar  
@<TRIPOS>SUBSTRUCTURE
     1 CIG         1 TEMP              0 ****  ****    0 ROOT
