@<TRIPOS>MOLECULE
CIG
   13    13     1     0     0
SMALL
bcc


@<TRIPOS>ATOM
      1 N01        -0.0650    0.1600    0.0460 n4        1 CIG     -0.808300
      2 C02         1.4080    0.1020    0.0430 ca        1 CIG      0.318900
      3 C03         2.1350    0.1750    1.2590 ca        1 CIG      0.347900
      4 N04         3.4880    0.1210    1.2480 nb        1 CIG     -0.578000
      5 C05         4.1010   -0.0010    0.0680 ca        1 CIG      0.368900
      6 C06         3.3580   -0.0760   -1.1700 ca        1 CIG      0.403000
      7 CL1         4.1990   -0.2300   -2.6240 cl        1 CIG     -0.025000
      8 N08         2.0130   -0.0240   -1.1790 nb        1 CIG     -0.618000
      9 H011       -0.3960    0.2580    1.0110 hn        1 CIG      0.477133
     10 H012       -0.4500   -0.7010   -0.3660 hn        1 CIG      0.477133
     11 H03         1.6630    0.2770    2.2540 h4        1 CIG      0.067100
     12 H05         5.2100   -0.0450    0.0700 h4        1 CIG      0.093100
     13 H013       -0.3850    0.9640   -0.5120 hn        1 CIG      0.477133
@<TRIPOS>BOND
     1    1    2 1   
     2    1    9 1   
     3    1   10 1   
     4    1   13 1   
     5    2    3 ar  
     6    2    8 ar  
     7    3    4 ar  
     8    3   11 1   
     9    4    5 ar  
    10    5    6 ar  
    11    5   12 1   
    12    6    7 1   
    13    6    8 ar  
@<TRIPOS>SUBSTRUCTURE
     1 CIG         1 TEMP              0 ****  ****    0 ROOT
