@<TRIPOS>MOLECULE
CIH
   36    37     1     0     0
SMALL
bcc


@<TRIPOS>ATOM
      1 CLAE       -0.3310   -1.1500   -1.0530 cl        1 CIH     -0.085400
      2 CAS         1.1330   -0.4670   -0.5210 ca        1 CIH      0.041400
      3 CAJ         1.3740   -0.3670    0.8530 ca        1 CIH     -0.118000
      4 CAH         2.5680    0.1900    1.3080 ca        1 CIH     -0.094000
      5 CAI         3.5210    0.6470    0.3970 ca        1 CIH     -0.121000
      6 CAL         3.2830    0.5480   -0.9720 ca        1 CIH     -0.094000
      7 CAV         2.0870   -0.0090   -1.4440 cp        1 CIH     -0.090000
      8 CAW         1.8580   -0.1130   -2.8890 cp        1 CIH      0.040000
      9 CAT         1.2810    0.9430   -3.6200 ca        1 CIH      0.040400
     10 CAN         1.0700    0.8210   -4.9990 ca        1 CIH     -0.109000
     11 CLAF        0.8210    2.3820   -2.8660 cl        1 CIH     -0.011400
     12 CAM         2.2250   -1.2870   -3.5610 ca        1 CIH     -0.085000
     13 CAK         2.0240   -1.4270   -4.9300 ca        1 CIH     -0.104000
     14 CAU         1.4430   -0.3660   -5.6470 ca        1 CIH     -0.049400
     15 NAO         1.2430   -0.4990   -7.0930 n4        1 CIH     -0.539200
     16 CAQ         0.2460   -1.6080   -7.4260 c         1 CIH      0.593300
     17 OAC         0.7600   -2.7090   -7.5840 o         1 CIH     -0.434100
     18 CAR        -1.1470   -1.2260   -7.5320 ce        1 CIH     -0.217900
     19 CAG        -1.5120    0.1340   -7.4080 cg        1 CIH      0.163500
     20 NAA        -1.8150    1.2540   -7.3090 n1        1 CIH     -0.300800
     21 CAP        -2.1180   -2.1900   -7.7570 c2        1 CIH      0.311900
     22 CAB        -3.5610   -1.8890   -7.8950 c3        1 CIH     -0.146900
     23 OAD        -1.6980   -3.4680   -7.8630 oh        1 CIH     -0.439100
     24 HAJ         0.6210   -0.7260    1.5730 ha        1 CIH      0.162000
     25 HAH         2.7560    0.2690    2.3900 ha        1 CIH      0.155000
     26 HAI         4.4630    1.0870    0.7580 ha        1 CIH      0.153000
     27 HAL         4.0350    0.9130   -1.6880 ha        1 CIH      0.144000
     28 HAN         0.6120    1.6610   -5.5490 ha        1 CIH      0.170000
     29 HAM         2.6780   -2.1170   -2.9910 ha        1 CIH      0.179000
     30 HAK         2.3120   -2.3660   -5.4340 ha        1 CIH      0.169000
     31 HNAO        0.9240    0.3950   -7.4810 hn        1 CIH      0.463800
     32 HAB        -4.1810   -2.6800   -7.3990 hc        1 CIH      0.105367
     33 HABA       -3.8220   -0.8990   -7.4410 hc        1 CIH      0.105367
     34 HABB       -3.8320   -1.8570   -8.9850 hc        1 CIH      0.105367
     35 HOAD       -2.4570   -4.0600   -8.0280 ho        1 CIH      0.472000
     36 HAO2        2.1490   -0.7460   -7.5180 hn        1 CIH      0.463800
@<TRIPOS>BOND
     1    1    2 1   
     2    2    3 ar  
     3    2    7 ar  
     4    3    4 ar  
     5    3   24 1   
     6    4    5 ar  
     7    4   25 1   
     8    5    6 ar  
     9    5   26 1   
    10    6    7 ar  
    11    6   27 1   
    12    7    8 1   
    13    8    9 ar  
    14    8   12 ar  
    15    9   10 ar  
    16    9   11 1   
    17   10   14 ar  
    18   10   28 1   
    19   12   13 ar  
    20   12   29 1   
    21   13   14 ar  
    22   13   30 1   
    23   14   15 1   
    24   15   16 1   
    25   15   31 1   
    26   15   36 1   
    27   16   17 2   
    28   16   18 1   
    29   18   19 1   
    30   18   21 2   
    31   19   20 3   
    32   21   22 1   
    33   21   23 1   
    34   22   32 1   
    35   22   33 1   
    36   22   34 1   
    37   23   35 1   
@<TRIPOS>SUBSTRUCTURE
     1 CIH         1 TEMP              0 ****  ****    0 ROOT
