@<TRIPOS>MOLECULE
CIH
   35    36     1     0     0
SMALL
bcc


@<TRIPOS>ATOM
      1 CLAE        3.3000   -0.9040    2.1550 cl        1 CIH     -0.087400
      2 CAS         4.0270   -0.7680    0.6230 ca        1 CIH      0.035400
      3 CAJ         5.4080   -0.9680    0.5170 ca        1 CIH     -0.130000
      4 CAH         6.0310   -0.8640   -0.7240 ca        1 CIH     -0.118000
      5 CAI         5.2790   -0.5610   -1.8600 ca        1 CIH     -0.133000
      6 CAL         3.9050   -0.3620   -1.7550 ca        1 CIH     -0.102000
      7 CAV         3.2610   -0.4630   -0.5130 cp        1 CIH     -0.030000
      8 CAW         1.8120   -0.2610   -0.4370 cp        1 CIH     -0.068000
      9 CAT         1.2470    1.0090   -0.2440 ca        1 CIH      0.065400
     10 CAN        -0.1350    1.1810   -0.1880 ca        1 CIH     -0.189000
     11 CLAF        2.2340    2.3850   -0.0730 cl        1 CIH     -0.085400
     12 CAM         0.9500   -1.3550   -0.5720 ca        1 CIH     -0.077000
     13 CAK        -0.4300   -1.2090   -0.5180 ca        1 CIH     -0.160000
     14 CAU        -1.0000    0.0680   -0.3240 ca        1 CIH      0.089600
     15 NAO        -2.3820    0.2930   -0.2480 n         1 CIH     -0.466100
     16 CAQ        -3.3980   -0.6280   -0.4720 c         1 CIH      0.706300
     17 OAC        -3.1980   -1.8190   -0.7620 o         1 CIH     -0.563100
     18 CAR        -4.7860   -0.0830   -0.3380 ce        1 CIH     -0.166900
     19 CAG        -5.0710    1.1190   -1.0280 cg        1 CIH      0.201500
     20 NAA        -5.2850    2.1080   -1.6030 n1        1 CIH     -0.363800
     21 CAP        -5.7400   -0.7380    0.3810 c2        1 CIH      0.202900
     22 CAB        -7.1580   -0.3130    0.4870 c3        1 CIH     -0.119900
     23 OAD        -5.3580   -1.8550    1.0720 oh        1 CIH     -0.463100
     24 HAJ         6.0000   -1.2050    1.4140 ha        1 CIH      0.147000
     25 HAH         7.1160   -1.0200   -0.8050 ha        1 CIH      0.137000
     26 HAI         5.7720   -0.4780   -2.8400 ha        1 CIH      0.137000
     27 HAL         3.3120   -0.1210   -2.6500 ha        1 CIH      0.143000
     28 HAN        -0.5440    2.1930   -0.0360 ha        1 CIH      0.146000
     29 HAM         1.3770   -2.3600   -0.7210 ha        1 CIH      0.146000
     30 HAK        -1.0700   -2.1010   -0.6280 ha        1 CIH      0.178000
     31 HNAO       -2.6560    1.2310   -0.0470 hn        1 CIH      0.324500
     32 HAB        -7.8200   -1.0950    0.0340 hc        1 CIH      0.076367
     33 HABA       -7.4410   -0.1860    1.5630 hc        1 CIH      0.076367
     34 HABB       -7.3370    0.6530   -0.0450 hc        1 CIH      0.076367
     35 HOAD       -6.1490   -2.2670    1.4540 ho        1 CIH      0.433000
@<TRIPOS>BOND
     1    1    2 1   
     2    2    3 ar  
     3    2    7 ar  
     4    3    4 ar  
     5    3   24 1   
     6    4    5 ar  
     7    4   25 1   
     8    5    6 ar  
     9    5   26 1   
    10    6    7 ar  
    11    6   27 1   
    12    7    8 1   
    13    8    9 ar  
    14    8   12 ar  
    15    9   10 ar  
    16    9   11 1   
    17   10   14 ar  
    18   10   28 1   
    19   12   13 ar  
    20   12   29 1   
    21   13   14 ar  
    22   13   30 1   
    23   14   15 1   
    24   15   16 1   
    25   15   31 1   
    26   16   17 2   
    27   16   18 1   
    28   18   19 1   
    29   18   21 2   
    30   19   20 3   
    31   21   22 1   
    32   21   23 1   
    33   22   32 1   
    34   22   33 1   
    35   22   34 1   
    36   23   35 1   
@<TRIPOS>SUBSTRUCTURE
     1 CIH         1 TEMP              0 ****  ****    0 ROOT
