@<TRIPOS>MOLECULE
CIH
   35    36     1     0     0
SMALL
bcc


@<TRIPOS>ATOM
      1 CLAE        0.1840   -0.8040    0.2390 cl        1 CIH     -0.087400
      2 CAS         1.7990   -0.2790    0.1510 ca        1 CIH      0.035400
      3 CAJ         2.5330   -0.1670    1.3380 ca        1 CIH     -0.130000
      4 CAH         3.8580    0.2600    1.2960 ca        1 CIH     -0.118000
      5 CAI         4.4520    0.5760    0.0750 ca        1 CIH     -0.133000
      6 CAL         3.7220    0.4660   -1.1060 ca        1 CIH     -0.102000
      7 CAV         2.3870    0.0380   -1.0840 cp        1 CIH     -0.030000
      8 CAW         1.6490   -0.0810   -2.3440 cp        1 CIH     -0.068000
      9 CAT         0.9360    0.9950   -2.8930 ca        1 CIH      0.065400
     10 CAN         0.2520    0.8650   -4.1000 ca        1 CIH     -0.189000
     11 CLAF        0.8850    2.5000   -2.1000 cl        1 CIH     -0.085400
     12 CAM         1.6560   -1.2950   -3.0410 ca        1 CIH     -0.077000
     13 CAK         0.9800   -1.4490   -4.2450 ca        1 CIH     -0.160000
     14 CAU         0.2630   -0.3660   -4.7990 ca        1 CIH      0.089600
     15 NAO        -0.4520   -0.4490   -6.0020 n         1 CIH     -0.466100
     16 CAQ        -0.4730   -1.5130   -6.8970 c         1 CIH      0.706300
     17 OAC         0.1510   -2.5720   -6.7240 o         1 CIH     -0.563100
     18 CAR        -1.3160   -1.2960   -8.1150 ce        1 CIH     -0.166900
     19 CAG        -1.1290   -0.0830   -8.8170 cg        1 CIH      0.201500
     20 NAA        -0.9580    0.9210   -9.3810 n1        1 CIH     -0.363800
     21 CAP        -2.1930   -2.2450   -8.5480 c2        1 CIH      0.202900
     22 CAB        -2.9970   -2.1480   -9.7920 c3        1 CIH     -0.120900
     23 OAD        -2.3610   -3.3570   -7.7690 oh        1 CIH     -0.463100
     24 HAJ         2.0620   -0.4160    2.3010 ha        1 CIH      0.147000
     25 HAH         4.4330    0.3480    2.2300 ha        1 CIH      0.137000
     26 HAI         5.4980    0.9140    0.0420 ha        1 CIH      0.137000
     27 HAL         4.1900    0.7180   -2.0700 ha        1 CIH      0.143000
     28 HAN        -0.2970    1.7320   -4.5020 ha        1 CIH      0.146000
     29 HAM         2.2090   -2.1510   -2.6230 ha        1 CIH      0.146000
     30 HAK         1.0140   -2.4250   -4.7580 ha        1 CIH      0.178000
     31 HNAO       -0.9690    0.3660   -6.2530 hn        1 CIH      0.324500
     32 HAB        -2.6960   -2.9630  -10.4990 hc        1 CIH      0.076367
     33 HABA       -4.0850   -2.2620   -9.5560 hc        1 CIH      0.076367
     34 HABB       -2.8440   -1.1650  -10.3020 hc        1 CIH      0.076367
     35 HOAD       -2.9330   -3.9820   -8.2420 ho        1 CIH      0.433000
@<TRIPOS>BOND
     1    1    2 1   
     2    2    3 ar  
     3    2    7 ar  
     4    3    4 ar  
     5    3   24 1   
     6    4    5 ar  
     7    4   25 1   
     8    5    6 ar  
     9    5   26 1   
    10    6    7 ar  
    11    6   27 1   
    12    7    8 1   
    13    8    9 ar  
    14    8   12 ar  
    15    9   10 ar  
    16    9   11 1   
    17   10   14 ar  
    18   10   28 1   
    19   12   13 ar  
    20   12   29 1   
    21   13   14 ar  
    22   13   30 1   
    23   14   15 1   
    24   15   16 1   
    25   15   31 1   
    26   16   17 2   
    27   16   18 1   
    28   18   19 1   
    29   18   21 2   
    30   19   20 3   
    31   21   22 1   
    32   21   23 1   
    33   22   32 1   
    34   22   33 1   
    35   22   34 1   
    36   23   35 1   
@<TRIPOS>SUBSTRUCTURE
     1 CIH         1 TEMP              0 ****  ****    0 ROOT
