@<TRIPOS>MOLECULE
CIH
   35    36     1     0     0
SMALL
bcc


@<TRIPOS>ATOM
      1 ClAE        0.0850    0.0400    0.2550 cl        1 CIH     -0.085400
      2 CAS         1.7800    0.0790    0.1300 ca        1 CIH      0.036400
      3 CAJ         2.5380    0.1590    1.3040 ca        1 CIH     -0.129000
      4 CAH         3.9280    0.1920    1.2310 ca        1 CIH     -0.117000
      5 CAI         4.5650    0.1460   -0.0090 ca        1 CIH     -0.132000
      6 CAL         3.8120    0.0670   -1.1770 ca        1 CIH     -0.102000
      7 CAV         2.4110    0.0330   -1.1240 cp        1 CIH     -0.033000
      8 CAW         1.6460   -0.0630   -2.3700 cp        1 CIH     -0.061000
      9 CAT         1.2560    1.0750   -3.0930 ca        1 CIH      0.062400
     10 CAN         0.5400    0.9610   -4.2830 ca        1 CIH     -0.182000
     11 ClAF        1.6470    2.6350   -2.5380 cl        1 CIH     -0.081400
     12 CAM         1.2950   -1.3200   -2.8740 ca        1 CIH     -0.080000
     13 CAK         0.5790   -1.4580   -4.0580 ca        1 CIH     -0.153000
     14 CAU         0.1890   -0.3160   -4.7860 ca        1 CIH      0.082600
     15 NAO        -0.5480   -0.3690   -5.9810 ns        1 CIH     -0.452100
     16 CAQ        -0.8080   -1.4900   -6.7520 c         1 CIH      0.714300
     17 OAC        -0.4020   -2.6310   -6.4250 o         1 CIH     -0.646100
     18 CAR        -1.5940   -1.3060   -7.9940 ce        1 CIH     -0.257900
     19 CAG        -2.0430   -0.0070   -8.3370 cg        1 CIH      0.204500
     20 NAA        -2.4140    1.0590   -8.6230 n1        1 CIH     -0.374800
     21 CAP        -1.9090   -2.3490   -8.8310 c2        1 CIH      0.271900
     22 CAB        -2.7030   -2.1540  -10.0780 c3        1 CIH     -0.092900
     23 OAD        -1.5670   -3.6420   -8.6620 oh        1 CIH     -0.483100
     24 HAJ         2.0340    0.1970    2.2820 ha        1 CIH      0.148000
     25 HAH         4.5220    0.2560    2.1550 ha        1 CIH      0.137000
     26 HAI         5.6630    0.1730   -0.0660 ha        1 CIH      0.137000
     27 HAL         4.3140    0.0330   -2.1560 ha        1 CIH      0.143000
     28 HAN         0.2490    1.8760   -4.8240 ha        1 CIH      0.149000
     29 HAM         1.5900   -2.2240   -2.3170 ha        1 CIH      0.147000
     30 HAK         0.3250   -2.4700   -4.4140 ha        1 CIH      0.176000
     31 HNAO       -0.8690    0.5130   -6.3190 hn        1 CIH      0.330500
     32 HAB        -2.8420   -3.1240  -10.6160 hc        1 CIH      0.080367
     33 HABA       -3.7060   -1.7310   -9.8200 hc        1 CIH      0.080367
     34 HABB       -2.1720   -1.4350  -10.7500 hc        1 CIH      0.080367
     35 HOAD       -1.0460   -3.7840   -7.8470 ho        1 CIH      0.482000
@<TRIPOS>BOND
     1    1    2 1   
     2    2    3 ar  
     3    2    7 ar  
     4    3    4 ar  
     5    3   24 1   
     6    4    5 ar  
     7    4   25 1   
     8    5    6 ar  
     9    5   26 1   
    10    6    7 ar  
    11    6   27 1   
    12    7    8 1   
    13    8    9 ar  
    14    8   12 ar  
    15    9   10 ar  
    16    9   11 1   
    17   10   14 ar  
    18   10   28 1   
    19   12   13 ar  
    20   12   29 1   
    21   13   14 ar  
    22   13   30 1   
    23   14   15 1   
    24   15   16 1   
    25   15   31 1   
    26   16   17 2   
    27   16   18 1   
    28   18   19 1   
    29   18   21 2   
    30   19   20 3   
    31   21   22 1   
    32   21   23 1   
    33   22   32 1   
    34   22   33 1   
    35   22   34 1   
    36   23   35 1   
@<TRIPOS>SUBSTRUCTURE
     1 CIH         1 TEMP              0 ****  ****    0 ROOT
