@<TRIPOS>MOLECULE
CIH
   35    29     1     0     0
SMALL
bcc


@<TRIPOS>ATOM
      1 CLAE        3.9800    0.5740    1.5990 cl        1 CIH     -0.008000
      2 CAS         3.0970    0.2470    3.0670 c2        1 CIH     -0.043000
      3 CAJ         3.7660    0.1830    4.2790 c2        1 CIH     -0.129000
      4 CAH         3.0670   -0.0980    5.4430 c1        1 CIH     -0.117000
      5 CAI         1.6990   -0.3150    5.3940 c1        1 CIH     -0.117500
      6 CAL         1.0290   -0.2500    4.1820 c1        1 CIH     -0.117500
      7 CAV         1.7280    0.0310    3.0180 c1        1 CIH     -0.031000
      8 CAW         1.0730    0.0080    1.7940 c1        1 CIH     -0.066000
      9 CAT         0.9140    1.1830    1.0740 c1        1 CIH     -0.014000
     10 CAN         0.3730    1.1460   -0.2020 c1        1 CIH     -0.186000
     11 CLAF        1.3580    2.7110    1.7900 cl        1 CIH     -0.005000
     12 CAM         0.6900   -1.2020    1.2370 c1        1 CIH     -0.078000
     13 CAK         0.1480   -1.2390   -0.0390 c1        1 CIH     -0.159000
     14 CAU        -0.0100   -0.0650   -0.7590 c1        1 CIH      0.096000
     15 NAO        -0.4320   -0.1180   -2.1140 n         1 CIH     -0.313000
     16 CAQ        -1.7570   -0.5160   -2.4300 c2        1 CIH      0.382000
     17 OAC        -2.5290   -0.8110   -1.5410 o         1 CIH     -0.378000
     18 CAR        -2.1600   -0.7130   -3.8770 c2        1 CIH     -0.191000
     19 CAG        -1.6100   -1.8810   -4.6630 c1        1 CIH     -0.086000
     20 NAA        -1.1960   -2.7620   -5.2560 n1        1 CIH     -0.040000
     21 CAP        -3.0100    0.1530   -4.4630 c1        1 CIH      0.186000
     22 CAB        -3.5600    1.3230   -3.6760 c2        1 CIH     -0.235000
     23 OAD        -3.3850   -0.0300   -5.8070 oh        1 CIH     -0.234000
     24 HAJ         4.7300    0.3350    4.3130 ha        1 CIH      0.147000
     25 HAH         3.5390   -0.1440    6.2970 ha        1 CIH      0.137000
     26 HAI         1.2070   -0.5130    6.2140 ha        1 CIH      0.140000
     27 HAL         0.0660   -0.4030    4.1490 ha        1 CIH      0.140000
     28 HAN         0.2610    1.9730   -0.7080 ha        1 CIH      0.149000
     29 HAM         0.8010   -2.0290    1.7440 ha        1 CIH      0.146000
     30 HAK        -0.1220   -2.0920   -0.4300 ha        1 CIH      0.176000
     31 HNAO        0.1420    0.1260   -2.7800 hn        1 CIH      0.243000
     32 HAB        -4.0370    1.9290   -4.2820 ha        1 CIH      0.123000
     33 HABA       -4.1780    0.9930   -2.9900 ha        1 CIH      0.123000
     34 HABB       -2.8220    1.8050   -3.2470 ha        1 CIH      0.123000
     35 HOAD       -2.8610    0.4610   -6.3300 ho        1 CIH      0.236000
@<TRIPOS>BOND
     1    1    2 1   
     2    2    3 1   
     3    2    7 1   
     4    3    4 1   
     5    3   24 1   
     6    4   25 1   
     7    5    6 1   
     8    5   26 1   
     9    6   27 1   
    10    8   12 1   
    11    9   10 1   
    12    9   11 1   
    13   10   28 1   
    14   12   29 1   
    15   13   14 1   
    16   13   30 1   
    17   14   15 1   
    18   15   16 1   
    19   15   31 1   
    20   16   17 1   
    21   16   18 1   
    22   18   19 1   
    23   18   21 1   
    24   19   20 1   
    25   21   23 1   
    26   22   32 1   
    27   22   33 1   
    28   22   34 1   
    29   23   35 1   
@<TRIPOS>SUBSTRUCTURE
     1 CIH         1 TEMP              0 ****  ****    0 ROOT
