@<TRIPOS>MOLECULE
CII
   48    49     1     0     0
SMALL
bcc


@<TRIPOS>ATOM
      1 O1         -0.0380    1.2030   -0.1510 o         1 CII     -0.394100
      2 C8          1.0490    0.7090    0.0830 c         1 CII      0.552100
      3 C9          1.6370    0.3530    1.4260 c3        1 CII     -0.137700
      4 C10         3.0360    0.9190    1.6170 c3        1 CII     -0.082400
      5 C11         3.4520    0.7770    3.0720 c3        1 CII     -0.078400
      6 C12         2.8780   -0.4710    3.7150 c3        1 CII     -0.089400
      7 C13         2.6270   -1.5670    2.7020 c3        1 CII     -0.078400
      8 C14         1.6070   -1.1560    1.6540 c3        1 CII     -0.082400
      9 N3          1.9450    0.4440   -1.1250 ny        1 CII     -0.678800
     10 C7          1.2110   -0.0370   -2.3390 c3        1 CII      0.025500
     11 C15         1.8560    0.4110   -3.6610 c3        1 CII     -0.090700
     12 C16         3.2930   -0.0180   -3.8560 c3        1 CII     -0.118600
     13 C17         1.7270    1.9150   -3.8200 c3        1 CII     -0.118600
     14 C6          0.9450   -1.5660   -2.3030 c         1 CII      0.635100
     15 O2         -0.2370   -1.9280   -2.3550 o         1 CII     -0.504100
     16 N2          2.0380   -2.3970   -2.1340 ns        1 CII     -0.461100
     17 C5          1.9680   -3.8110   -2.0970 ca        1 CII      0.052600
     18 C1          0.7990   -4.5130   -1.7440 ca        1 CII     -0.272300
     19 C2          0.8610   -5.9180   -1.6780 ca        1 CII      0.427200
     20 N1          1.9680   -6.6370   -1.9310 nb        1 CII     -0.647000
     21 C3          3.0790   -5.9550   -2.2720 ca        1 CII      0.427200
     22 C4          3.1380   -4.5570   -2.3740 ca        1 CII     -0.272300
     23 H9          0.9530    0.8420    2.1870 hc        1 CII      0.133700
     24 H3          2.4090    1.3300   -1.3670 hn        1 CII      0.459300
     25 H101        3.7690    0.3630    0.9750 hc        1 CII      0.052450
     26 H102        3.0640    2.0000    1.3220 hc        1 CII      0.052450
     27 H141        1.8160   -1.7130    0.7030 hc        1 CII      0.052450
     28 H142        0.5760   -1.4480    1.9890 hc        1 CII      0.052450
     29 H111        3.1160    1.6790    3.6500 hc        1 CII      0.064700
     30 H112        4.5730    0.7540    3.1200 hc        1 CII      0.064700
     31 H121        3.5870   -0.8460    4.5000 hc        1 CII      0.064700
     32 H122        1.9150   -0.2210    4.2350 hc        1 CII      0.064700
     33 H131        3.5940   -1.8370    2.2010 hc        1 CII      0.064700
     34 H132        2.2570   -2.4880    3.2270 hc        1 CII      0.064700
     35 H7          0.1740    0.4420   -2.3020 hx        1 CII      0.157700
     36 H15         1.2270   -0.0780   -4.4660 hc        1 CII      0.114700
     37 H161        3.3580   -1.0750   -4.2110 hc        1 CII      0.057367
     38 H162        3.9040    0.0950   -2.9290 hc        1 CII      0.057367
     39 H163        3.7660    0.6180   -4.6500 hc        1 CII      0.057367
     40 H171        1.9450    2.1960   -4.8810 hc        1 CII      0.057367
     41 H172        2.4530    2.4610   -3.1710 hc        1 CII      0.057367
     42 H173        0.6910    2.2590   -3.5800 hc        1 CII      0.057367
     43 H1         -0.1520   -4.0020   -1.5360 ha        1 CII      0.158500
     44 H4          4.0810   -4.0750   -2.6640 ha        1 CII      0.158500
     45 H2         -0.0420   -6.4990   -1.4070 h4        1 CII      0.042600
     46 HA          2.9240   -2.0420   -2.4330 hn        1 CII      0.314500
     47 HB          3.9750   -6.5700   -2.4810 h4        1 CII      0.042600
     48 H32         2.6690   -0.2270   -0.8480 hn        1 CII      0.459300
@<TRIPOS>BOND
     1    1    2 2   
     2    2    3 1   
     3    2    9 1   
     4    3    4 1   
     5    3    8 1   
     6    3   23 1   
     7    4    5 1   
     8    4   25 1   
     9    4   26 1   
    10    5    6 1   
    11    5   29 1   
    12    5   30 1   
    13    6    7 1   
    14    6   31 1   
    15    6   32 1   
    16    7    8 1   
    17    7   33 1   
    18    7   34 1   
    19    8   27 1   
    20    8   28 1   
    21    9   10 1   
    22    9   24 1   
    23    9   48 1   
    24   10   11 1   
    25   10   14 1   
    26   10   35 1   
    27   11   12 1   
    28   11   13 1   
    29   11   36 1   
    30   12   37 1   
    31   12   38 1   
    32   12   39 1   
    33   13   40 1   
    34   13   41 1   
    35   13   42 1   
    36   14   15 2   
    37   14   16 1   
    38   16   17 1   
    39   16   46 1   
    40   17   18 ar  
    41   17   22 ar  
    42   18   19 ar  
    43   18   43 1   
    44   19   20 ar  
    45   19   45 1   
    46   20   21 ar  
    47   21   22 ar  
    48   21   47 1   
    49   22   44 1   
@<TRIPOS>SUBSTRUCTURE
     1 CII         1 TEMP              0 ****  ****    0 ROOT
