@<TRIPOS>MOLECULE
CII
   49    50     1     0     0
SMALL
bcc


@<TRIPOS>ATOM
      1 O1          1.1400   -2.1500   -0.0190 o         1 CII     -0.420100
      2 C8          1.7810   -1.1770    0.3290 c         1 CII      0.573100
      3 C9          1.9700   -0.5810    1.7000 c3        1 CII     -0.134700
      4 C10         1.8520    0.9350    1.7210 c3        1 CII     -0.082400
      5 C11         1.7620    1.4150    3.1620 c3        1 CII     -0.080900
      6 C12         2.5660    0.5440    4.1090 c3        1 CII     -0.093400
      7 C13         3.7380   -0.1170    3.4180 c3        1 CII     -0.080900
      8 C14         3.2970   -1.0470    2.3000 c3        1 CII     -0.082400
      9 N3          2.5270   -0.4530   -0.8100 n4        1 CII     -0.697800
     10 C7          2.2690   -0.9780   -2.1880 c3        1 CII      0.056500
     11 C15         2.5740    0.0880   -3.2750 c3        1 CII     -0.077700
     12 C16         3.9950    0.5980   -3.1890 c3        1 CII     -0.132600
     13 C17         1.5770    1.2250   -3.1950 c3        1 CII     -0.132600
     14 C6          3.1080   -2.2300   -2.4580 c         1 CII      0.528100
     15 O2          4.1250   -2.5450   -1.8570 o         1 CII     -0.388100
     16 N2          2.6610   -3.1380   -3.5660 n4        1 CII     -0.529200
     17 C5          1.4550   -3.9050   -3.2120 ca        1 CII     -0.032400
     18 C1          0.1960   -3.4870   -3.6790 ca        1 CII     -0.233300
     19 C2         -0.9150   -4.2900   -3.3490 ca        1 CII      0.454200
     20 N1         -0.8290   -5.4170   -2.6170 nb        1 CII     -0.579000
     21 C3          0.3850   -5.8010   -2.1880 ca        1 CII      0.454200
     22 C4          1.5730   -5.0820   -2.4550 ca        1 CII     -0.233300
     23 H9          1.1230   -1.0110    2.3240 hc        1 CII      0.149700
     24 H3          3.5370   -0.4890   -0.6050 hn        1 CII      0.482800
     25 H101        2.7560    1.3980    1.2430 hc        1 CII      0.050450
     26 H102        0.9410    1.2690    1.1600 hc        1 CII      0.050450
     27 H141        3.1670   -2.0880    2.7000 hc        1 CII      0.050450
     28 H142        4.0980   -1.0850    1.5170 hc        1 CII      0.050450
     29 H111        2.1320    2.4740    3.2050 hc        1 CII      0.075200
     30 H112        0.6890    1.4280    3.4900 hc        1 CII      0.075200
     31 H121        2.9430    1.1710    4.9600 hc        1 CII      0.074700
     32 H122        1.9030   -0.2450    4.5560 hc        1 CII      0.074700
     33 H131        4.4180    0.6740    3.0030 hc        1 CII      0.075200
     34 H132        4.3330   -0.7070    4.1660 hc        1 CII      0.075200
     35 H7          1.1670   -1.2580   -2.2400 hx        1 CII      0.156700
     36 H15         2.4280   -0.4250   -4.2690 hc        1 CII      0.077700
     37 H161        4.7260   -0.2410   -3.0950 hc        1 CII      0.076033
     38 H162        4.2410    1.1720   -4.1210 hc        1 CII      0.076033
     39 H163        4.1330    1.2980   -2.3290 hc        1 CII      0.076033
     40 H171        1.7750    1.8970   -2.3250 hc        1 CII      0.076033
     41 H172        0.5280    0.8460   -3.1360 hc        1 CII      0.076033
     42 H173        1.6650    1.8540   -4.1200 hc        1 CII      0.076033
     43 H1          0.0530   -2.5940   -4.3040 ha        1 CII      0.174000
     44 H4          2.5360   -5.4650   -2.0810 ha        1 CII      0.174000
     45 H2         -1.9330   -4.0160   -3.7010 h4        1 CII      0.081600
     46 HA          3.4250   -3.8100   -3.7690 hn        1 CII      0.487800
     47 HB          0.4220   -6.7430   -1.5990 h4        1 CII      0.081600
     48 H32         2.2380    0.5390   -0.7920 hn        1 CII      0.482800
     49 H22         2.4720   -2.5870   -4.4160 hn        1 CII      0.487800
@<TRIPOS>BOND
     1    1    2 2   
     2    2    3 1   
     3    2    9 1   
     4    3    4 1   
     5    3    8 1   
     6    3   23 1   
     7    4    5 1   
     8    4   25 1   
     9    4   26 1   
    10    5    6 1   
    11    5   29 1   
    12    5   30 1   
    13    6    7 1   
    14    6   31 1   
    15    6   32 1   
    16    7    8 1   
    17    7   33 1   
    18    7   34 1   
    19    8   27 1   
    20    8   28 1   
    21    9   10 1   
    22    9   24 1   
    23    9   48 1   
    24   10   11 1   
    25   10   14 1   
    26   10   35 1   
    27   11   12 1   
    28   11   13 1   
    29   11   36 1   
    30   12   37 1   
    31   12   38 1   
    32   12   39 1   
    33   13   40 1   
    34   13   41 1   
    35   13   42 1   
    36   14   15 2   
    37   14   16 1   
    38   16   17 1   
    39   16   46 1   
    40   16   49 1   
    41   17   18 ar  
    42   17   22 ar  
    43   18   19 ar  
    44   18   43 1   
    45   19   20 ar  
    46   19   45 1   
    47   20   21 ar  
    48   21   22 ar  
    49   21   47 1   
    50   22   44 1   
@<TRIPOS>SUBSTRUCTURE
     1 CII         1 TEMP              0 ****  ****    0 ROOT
