@<TRIPOS>MOLECULE
CII
   47    48     1     0     0
SMALL
bcc


@<TRIPOS>ATOM
      1 O1        -18.1560   -0.3610   68.7540 o         1 CII     -0.632100
      2 C8        -17.8350   -0.7840   69.8860 c         1 CII      0.666100
      3 C9        -18.8950   -1.1450   70.9170 c3        1 CII     -0.131700
      4 C10       -18.6690   -0.4330   72.2410 c3        1 CII     -0.072900
      5 C11       -19.8700   -0.6130   73.1530 c3        1 CII     -0.076900
      6 C12       -20.5630   -1.9440   72.9340 c3        1 CII     -0.079400
      7 C13       -19.6010   -3.0090   72.4520 c3        1 CII     -0.076900
      8 C14       -18.9810   -2.6530   71.1120 c3        1 CII     -0.072900
      9 N3        -16.5070   -0.9360   70.2260 n         1 CII     -0.564900
     10 C7        -15.4340   -0.5570   69.3470 c3        1 CII      0.040700
     11 C15       -14.1620   -0.0830   70.0840 c3        1 CII     -0.065700
     12 C16       -13.7170   -1.0210   71.1850 c3        1 CII     -0.097100
     13 C17       -14.3680    1.3160   70.6250 c3        1 CII     -0.097100
     14 C6        -15.0620   -1.7130   68.3690 c         1 CII      0.645100
     15 O2        -13.9690   -2.2970   68.4430 o         1 CII     -0.588100
     16 N2        -16.0310   -2.0120   67.4240 n         1 CII     -0.468100
     17 C5        -15.9670   -2.9920   66.4280 ca        1 CII      0.104600
     18 C1        -14.8650   -3.8550   66.2410 ca        1 CII     -0.290300
     19 C2        -14.9210   -4.8020   65.2060 ca        1 CII      0.412200
     20 N1        -15.9630   -4.9500   64.3660 nb        1 CII     -0.686000
     21 C3        -17.0100   -4.1220   64.5500 ca        1 CII      0.412200
     22 C4        -17.0700   -3.1400   65.5460 ca        1 CII     -0.290300
     23 H9        -19.8750   -0.7830   70.4880 hc        1 CII      0.091700
     24 H3        -16.2660   -1.3220   71.1080 hn        1 CII      0.325500
     25 H101      -17.7580   -0.8500   72.7460 hc        1 CII      0.047200
     26 H102      -18.4880    0.6580   72.0620 hc        1 CII      0.047200
     27 H141      -19.5960   -3.0870   70.2800 hc        1 CII      0.047200
     28 H142      -17.9650   -3.1220   71.0470 hc        1 CII      0.047200
     29 H111      -19.5290   -0.5310   74.2180 hc        1 CII      0.044450
     30 H112      -20.6040    0.2160   72.9770 hc        1 CII      0.044450
     31 H121      -21.0430   -2.2790   73.8910 hc        1 CII      0.044700
     32 H122      -21.3830   -1.8210   72.1780 hc        1 CII      0.044700
     33 H131      -18.7900   -3.1410   73.2160 hc        1 CII      0.044450
     34 H132      -20.1370   -3.9890   72.3630 hc        1 CII      0.044450
     35 H7        -15.7960    0.3090   68.7070 h1        1 CII      0.091700
     36 H15       -13.3470   -0.0540   69.3030 hc        1 CII      0.079700
     37 H161      -13.7210   -2.0770   70.8200 hc        1 CII      0.041533
     38 H162      -12.6770   -0.7610   71.4990 hc        1 CII      0.041533
     39 H163      -14.3730   -0.9390   72.0850 hc        1 CII      0.041533
     40 H171      -15.1900    1.3350   71.3800 hc        1 CII      0.041533
     41 H172      -13.4300    1.6720   71.1170 hc        1 CII      0.041533
     42 H173      -14.6260    2.0240   69.8010 hc        1 CII      0.041533
     43 H1        -13.9730   -3.8000   66.8820 ha        1 CII      0.162500
     44 H4        -17.9600   -2.5020   65.6320 ha        1 CII      0.162500
     45 H2        -14.0710   -5.4880   65.0400 h4        1 CII      0.021100
     46 HA        -16.8720   -1.4650   67.4400 hn        1 CII      0.348500
     47 HB        -17.8560   -4.2570   63.8510 h4        1 CII      0.021100
@<TRIPOS>BOND
     1    1    2 2   
     2    2    3 1   
     3    2    9 1   
     4    3    4 1   
     5    3    8 1   
     6    3   23 1   
     7    4    5 1   
     8    4   25 1   
     9    4   26 1   
    10    5    6 1   
    11    5   29 1   
    12    5   30 1   
    13    6    7 1   
    14    6   31 1   
    15    6   32 1   
    16    7    8 1   
    17    7   33 1   
    18    7   34 1   
    19    8   27 1   
    20    8   28 1   
    21    9   10 1   
    22    9   24 1   
    23   10   11 1   
    24   10   14 1   
    25   10   35 1   
    26   11   12 1   
    27   11   13 1   
    28   11   36 1   
    29   12   37 1   
    30   12   38 1   
    31   12   39 1   
    32   13   40 1   
    33   13   41 1   
    34   13   42 1   
    35   14   15 2   
    36   14   16 1   
    37   16   17 1   
    38   16   46 1   
    39   17   18 ar  
    40   17   22 ar  
    41   18   19 ar  
    42   18   43 1   
    43   19   20 ar  
    44   19   45 1   
    45   20   21 ar  
    46   21   22 ar  
    47   21   47 1   
    48   22   44 1   
@<TRIPOS>SUBSTRUCTURE
     1 CII         1 TEMP              0 ****  ****    0 ROOT
