@<TRIPOS>MOLECULE
CII
   47    45     1     0     0
SMALL
bcc


@<TRIPOS>ATOM
      1 O1         -1.9310    0.4350    1.1250 o         1 CII     -0.390000
      2 C8         -0.8330    0.9440    1.0070 c1        1 CII      0.311000
      3 C9         -0.5520    2.3050    1.6540 c2        1 CII     -0.116000
      4 C10        -1.5350    2.5790    2.8290 c3        1 CII     -0.150000
      5 C11        -1.3740    3.9500    3.4270 c3        1 CII     -0.156000
      6 C12        -1.4340    5.0260    2.4240 c3        1 CII     -0.158000
      7 C13        -0.5000    4.8130    1.2730 c3        1 CII     -0.156000
      8 C14        -0.6540    3.4480    0.6390 c3        1 CII     -0.150000
      9 N3          0.1740    0.3370    0.0800 n3        1 CII     -0.380000
     10 C7         -0.1870   -0.7770   -0.7300 c3        1 CII      0.015000
     11 C15        -0.4770   -0.2970   -2.1580 c3        1 CII     -0.110000
     12 C16        -1.7850    0.4690   -2.1780 c3        1 CII     -0.212500
     13 C17        -0.5760   -1.4790   -3.0750 c3        1 CII     -0.212500
     14 C6          0.9640   -1.7920   -0.7460 c2        1 CII      0.291000
     15 O2          2.1250   -1.4120   -0.9750 o         1 CII     -0.349000
     16 N2          0.6880   -3.1880   -0.5580 n         1 CII     -0.320000
     17 C5          1.7250   -4.1270   -0.6320 c2        1 CII      0.112000
     18 C1          1.6240   -5.3190    0.0620 c2        1 CII     -0.236000
     19 C2          2.6100   -6.3030   -0.0880 c1        1 CII     -0.052000
     20 N1          3.6860   -6.0810   -0.9300 n1        1 CII     -0.160000
     21 C3          3.7870   -4.8910   -1.6220 c1        1 CII     -0.053000
     22 C4          2.8020   -3.9070   -1.4740 c1        1 CII     -0.214000
     23 H9          0.4050    2.1830    1.9830 ha        1 CII      0.108000
     24 H3          1.0610    0.6180    0.1090 hn        1 CII      0.236000
     25 H101       -2.4510    2.4810    2.5020 hc        1 CII      0.092500
     26 H102       -1.3840    1.9370    3.5060 hc        1 CII      0.092500
     27 H141        0.0750    3.3280   -0.0700 hc        1 CII      0.092500
     28 H142       -1.5540    3.4020    0.1910 hc        1 CII      0.092500
     29 H111       -0.5060    3.9950    3.8990 hc        1 CII      0.082750
     30 H112       -2.0730    4.0880    4.0590 hc        1 CII      0.082750
     31 H121       -2.3950    5.0800    2.0610 hc        1 CII      0.083500
     32 H122       -1.2110    5.8860    2.8630 hc        1 CII      0.083500
     33 H131       -0.6660    5.4650    0.6300 hc        1 CII      0.082750
     34 H132        0.3980    4.9080    1.5830 hc        1 CII      0.082750
     35 H7         -0.9830   -1.1990   -0.3650 h1        1 CII      0.129000
     36 H15         0.2360    0.2800   -2.4550 hc        1 CII      0.117000
     37 H161       -1.8450    1.0210   -1.3880 hc        1 CII      0.080667
     38 H162       -1.8180    1.0340   -2.9760 hc        1 CII      0.080667
     39 H163       -2.5270   -0.1540   -2.1920 hc        1 CII      0.080667
     40 H171        0.2420   -1.9610   -3.0590 hc        1 CII      0.080667
     41 H172       -1.3220   -2.0750   -2.7720 hc        1 CII      0.080667
     42 H173       -0.7590   -1.1620   -4.0110 hc        1 CII      0.080667
     43 H1          0.8630   -5.4760    0.6560 ha        1 CII      0.146000
     44 H4          2.8740   -3.0650   -1.9670 ha        1 CII      0.178000
     45 H2          2.5350   -7.1750    0.4200 ha        1 CII      0.157000
     46 HA         -0.1140   -3.4440   -0.3270 hn        1 CII      0.262000
     47 HB          4.5720   -4.7300   -2.2360 ha        1 CII      0.159000
@<TRIPOS>BOND
     1    1    2 1   
     2    2    9 1   
     3    3    4 1   
     4    3    8 1   
     5    3   23 1   
     6    4    5 1   
     7    4   25 1   
     8    4   26 1   
     9    5    6 1   
    10    5   29 1   
    11    5   30 1   
    12    6    7 1   
    13    6   31 1   
    14    6   32 1   
    15    7    8 1   
    16    7   33 1   
    17    7   34 1   
    18    8   27 1   
    19    8   28 1   
    20    9   10 1   
    21    9   24 1   
    22   10   11 1   
    23   10   14 1   
    24   10   35 1   
    25   11   12 1   
    26   11   13 1   
    27   11   36 1   
    28   12   37 1   
    29   12   38 1   
    30   12   39 1   
    31   13   40 1   
    32   13   41 1   
    33   13   42 1   
    34   14   15 1   
    35   14   16 1   
    36   16   17 1   
    37   16   46 1   
    38   17   18 1   
    39   17   22 1   
    40   18   19 1   
    41   18   43 1   
    42   19   45 1   
    43   20   21 1   
    44   21   47 1   
    45   22   44 1   
@<TRIPOS>SUBSTRUCTURE
     1 CII         1 TEMP              0 ****  ****    0 ROOT
