@<TRIPOS>MOLECULE
CII
   48    49     1     0     0
SMALL
bcc


@<TRIPOS>ATOM
      1 O1         -0.0530    1.2050   -0.2250 o         1 CII     -0.394100
      2 C8          1.0310    0.7160    0.0380 c         1 CII      0.552100
      3 C9          1.5920    0.3790    1.3960 c3        1 CII     -0.137700
      4 C10         2.9860    0.9510    1.6090 c3        1 CII     -0.082400
      5 C11         3.3730    0.8290    3.0730 c3        1 CII     -0.078400
      6 C12         2.7890   -0.4130    3.7200 c3        1 CII     -0.089400
      7 C13         2.5610   -1.5220    2.7170 c3        1 CII     -0.078400
      8 C14         1.5620   -1.1270    1.6430 c3        1 CII     -0.082400
      9 N3          1.9520    0.4370   -1.1480 n4        1 CII     -0.678800
     10 C7          1.2440   -0.0580   -2.3720 c3        1 CII      0.025500
     11 C15         1.9170    0.3730   -3.6850 c3        1 CII     -0.090700
     12 C16         3.3580   -0.0570   -3.8450 c3        1 CII     -0.118600
     13 C17         1.7900    1.8750   -3.8660 c3        1 CII     -0.118600
     14 C6          0.9770   -1.5870   -2.3220 c         1 CII      0.635100
     15 O2         -0.2030   -1.9510   -2.3960 o         1 CII     -0.503100
     16 N2          2.0670   -2.4150   -2.1200 n         1 CII     -0.461100
     17 C5          1.9960   -3.8290   -2.0660 ca        1 CII      0.052600
     18 C1          0.8200   -4.5270   -1.7300 ca        1 CII     -0.272300
     19 C2          0.8800   -5.9310   -1.6450 ca        1 CII      0.427200
     20 N1          1.9930   -6.6530   -1.8640 nb        1 CII     -0.647000
     21 C3          3.1110   -5.9750   -2.1890 ca        1 CII      0.427200
     22 C4          3.1720   -4.5780   -2.3070 ca        1 CII     -0.272300
     23 H9          0.8920    0.8760    2.1380 hc        1 CII      0.133700
     24 H3          2.4200    1.3210   -1.3910 hn        1 CII      0.459300
     25 H101        3.0170    2.0280    1.3000 hc        1 CII      0.052450
     26 H102        3.7330    0.3890    0.9880 hc        1 CII      0.052450
     27 H141        0.5250   -1.4180    1.9620 hc        1 CII      0.052450
     28 H142        1.7900   -1.6950    0.7040 hc        1 CII      0.052450
     29 H111        3.0230    1.7370    3.6320 hc        1 CII      0.064700
     30 H112        4.4920    0.8100    3.1440 hc        1 CII      0.064700
     31 H121        3.4830   -0.7750    4.5240 hc        1 CII      0.064700
     32 H122        1.8150   -0.1580    4.2180 hc        1 CII      0.064700
     33 H131        3.5380   -1.7960    2.2390 hc        1 CII      0.064700
     34 H132        2.1830   -2.4370    3.2460 hc        1 CII      0.064700
     35 H7          0.2060    0.4200   -2.3620 hx        1 CII      0.157700
     36 H15         1.3050   -0.1260   -4.4980 hc        1 CII      0.114700
     37 H161        3.9490    0.0670   -2.9070 hc        1 CII      0.057200
     38 H162        3.8470    0.5680   -4.6360 hc        1 CII      0.057200
     39 H163        3.4300   -1.1200   -4.1840 hc        1 CII      0.057200
     40 H171        2.5030    2.4290   -3.2080 hc        1 CII      0.057200
     41 H172        2.0310    2.1430   -4.9250 hc        1 CII      0.057200
     42 H173        0.7500    2.2220   -3.6520 hc        1 CII      0.057200
     43 H1         -0.1360   -4.0140   -1.5500 ha        1 CII      0.158500
     44 H4          4.1210   -4.0990   -2.5830 ha        1 CII      0.158500
     45 H2         -0.0280   -6.5090   -1.3870 h4        1 CII      0.042600
     46 HA          2.9580   -2.0640   -2.4040 hn        1 CII      0.314500
     47 HB          4.0120   -6.5910   -2.3700 h4        1 CII      0.042600
     48 H32         2.6710   -0.2300   -0.8490 hn        1 CII      0.459300
@<TRIPOS>BOND
     1    1    2 2   
     2    2    3 1   
     3    2    9 1   
     4    3    4 1   
     5    3    8 1   
     6    3   23 1   
     7    4    5 1   
     8    4   25 1   
     9    4   26 1   
    10    5    6 1   
    11    5   29 1   
    12    5   30 1   
    13    6    7 1   
    14    6   31 1   
    15    6   32 1   
    16    7    8 1   
    17    7   33 1   
    18    7   34 1   
    19    8   27 1   
    20    8   28 1   
    21    9   10 1   
    22    9   24 1   
    23    9   48 1   
    24   10   11 1   
    25   10   14 1   
    26   10   35 1   
    27   11   12 1   
    28   11   13 1   
    29   11   36 1   
    30   12   37 1   
    31   12   38 1   
    32   12   39 1   
    33   13   40 1   
    34   13   41 1   
    35   13   42 1   
    36   14   15 2   
    37   14   16 1   
    38   16   17 1   
    39   16   46 1   
    40   17   18 ar  
    41   17   22 ar  
    42   18   19 ar  
    43   18   43 1   
    44   19   20 ar  
    45   19   45 1   
    46   20   21 ar  
    47   21   22 ar  
    48   21   47 1   
    49   22   44 1   
@<TRIPOS>SUBSTRUCTURE
     1 CII         1 TEMP              0 ****  ****    0 ROOT
