@<TRIPOS>MOLECULE
CIJ
   31    33     1     0     0
SMALL
bcc


@<TRIPOS>ATOM
      1 CL          0.1820   -0.4580   -0.3470 cl        1 CIJ     -0.065400
      2 OAB         5.8850    1.7770    3.7570 o         1 CIJ     -0.607500
      3 OAC         5.4960    6.8800    5.8930 oh        1 CIJ     -0.484100
      4 OAD         6.6670    4.6520    4.7270 oh        1 CIJ     -0.506100
      5 CAG         3.4000    5.7890    5.9600 ca        1 CIJ     -0.136000
      6 CAH         4.1310    0.1940   -0.0670 ca        1 CIJ     -0.163000
      7 CAI         4.3010    0.2620    1.3090 ca        1 CIJ     -0.088000
      8 CAJ         2.5700    4.6770    5.7170 ca        1 CIJ     -0.049000
      9 CAK         1.9330   -0.1120    1.6390 ca        1 CIJ     -0.082000
     10 CAM         4.7530    5.7600    5.6250 ca        1 CIJ      0.129100
     11 CAN         2.8500   -0.0340   -0.6090 ca        1 CIJ      0.142900
     12 CAO         5.3310    4.5970    5.0240 ca        1 CIJ      0.130100
     13 CAP         1.7440   -0.1870    0.2560 ca        1 CIJ     -0.029600
     14 CAQ         3.2060    0.1040    2.1660 ca        1 CIJ     -0.130300
     15 CAR         2.5260    2.2420    4.7590 c         1 CIJ      0.731100
     16 CAS         4.7970    2.1820    4.1860 c         1 CIJ      0.737100
     17 CAT         3.1260    3.5600    5.1380 ca        1 CIJ     -0.142600
     18 CAU         4.5080    3.5160    4.7900 ca        1 CIJ     -0.209600
     19 NAV         3.5850    1.4510    4.2110 n         1 CIJ     -0.516400
     20 HOAC        6.4100    6.7180    5.6070 ho        1 CIJ      0.446000
     21 HOAD        6.9230    3.8020    4.3250 ho        1 CIJ      0.465000
     22 HAG         1.5040    4.7130    5.9870 ha        1 CIJ      0.164000
     23 HAH         4.9860    0.3150   -0.7480 ha        1 CIJ      0.156000
     24 HAI         5.3020    0.4480    1.7350 ha        1 CIJ      0.161000
     25 HAJ         2.9840    6.6980    6.4210 ha        1 CIJ      0.166000
     26 HAK         1.0680   -0.2220    2.3140 ha        1 CIJ      0.160000
     27 HAL         4.3350   -0.4640    3.9030 h1        1 CIJ      0.078700
     28 HALA        2.5200   -0.3300    4.1690 h1        1 CIJ      0.078700
     29 FAE         2.7080   -0.1010   -1.9520 f         1 CIJ     -0.124900
     30 CAL         3.4110    0.1380    3.6550 c3        1 CIJ      0.152300
     31 OAA         1.3650    1.8550    4.8880 o         1 CIJ     -0.563500
@<TRIPOS>BOND
     1    1   13 1   
     2    2   16 2   
     3    3   10 1   
     4    3   20 1   
     5    4   12 1   
     6    4   21 1   
     7    5    8 ar  
     8    5   10 ar  
     9    5   25 1   
    10    6    7 ar  
    11    6   11 ar  
    12    6   23 1   
    13    7   14 ar  
    14    7   24 1   
    15    8   17 ar  
    16    8   22 1   
    17    9   13 ar  
    18    9   14 ar  
    19    9   26 1   
    20   10   12 ar  
    21   11   13 ar  
    22   11   29 1   
    23   12   18 ar  
    24   14   30 1   
    25   15   17 1   
    26   15   19 1   
    27   15   31 2   
    28   16   18 1   
    29   16   19 1   
    30   17   18 ar  
    31   19   30 1   
    32   27   30 1   
    33   28   30 1   
@<TRIPOS>SUBSTRUCTURE
     1 CIJ         1 TEMP              0 ****  ****    0 ROOT
