@<TRIPOS>MOLECULE
CIJ
   31    33     1     0     0
SMALL
bcc


@<TRIPOS>ATOM
      1 CL         -4.3230    1.7160   -0.9190 cl        1 CIJ     -0.064400
      2 OAB         1.5850   -2.2240    0.9870 o         1 CIJ     -0.601500
      3 OAC         5.8700    0.2810   -1.4880 oh        1 CIJ     -0.484100
      4 OAD         4.3150   -1.7880   -0.4890 oh        1 CIJ     -0.506100
      5 CAG         4.2710    1.8730   -0.7840 ca        1 CIJ     -0.136000
      6 CAH        -3.2940   -2.1030   -0.2490 ca        1 CIJ     -0.165000
      7 CAI        -2.2080   -1.9510    0.6050 ca        1 CIJ     -0.085000
      8 CAJ         3.0500    2.2200   -0.1710 ca        1 CIJ     -0.049000
      9 CAK        -2.4490    0.4560    0.5060 ca        1 CIJ     -0.086000
     10 CAM         4.6700    0.5400   -0.8790 ca        1 CIJ      0.130100
     11 CAN        -3.9730   -0.9690   -0.7370 ca        1 CIJ      0.141900
     12 CAO         3.8470   -0.5080   -0.3550 ca        1 CIJ      0.129100
     13 CAP        -3.5420    0.3210   -0.3540 ca        1 CIJ     -0.027600
     14 CAQ        -1.7870   -0.6740    0.9910 ca        1 CIJ     -0.130300
     15 CAR         0.9340    1.2500    1.0230 c         1 CIJ      0.732100
     16 CAS         1.5950   -0.9930    0.8720 c         1 CIJ      0.736100
     17 CAT         2.2600    1.2130    0.3310 ca        1 CIJ     -0.143600
     18 CAU         2.6560   -0.1540    0.2410 ca        1 CIJ     -0.209600
     19 NAV         0.5980   -0.1020    1.3430 n         1 CIJ     -0.516400
     20 HOAC        6.0140   -0.6800   -1.4840 ho        1 CIJ      0.446000
     21 HOAD        3.6590   -2.3930   -0.0960 ho        1 CIJ      0.465000
     22 HAG         4.9250    2.6560   -1.1960 ha        1 CIJ      0.166000
     23 HAH        -3.6340   -3.1030   -0.5550 ha        1 CIJ      0.155000
     24 HAI        -1.6770   -2.8420    0.9760 ha        1 CIJ      0.150000
     25 HAJ         2.7470    3.2760   -0.1030 ha        1 CIJ      0.164000
     26 HAK        -2.1000    1.4600    0.8050 ha        1 CIJ      0.171000
     27 HAL        -0.9180    0.2710    2.7130 h1        1 CIJ      0.078700
     28 HALA       -0.4510   -1.4920    2.4760 h1        1 CIJ      0.078700
     29 FAE        -5.0280   -1.1420   -1.5660 f         1 CIJ     -0.124900
     30 CAL        -0.6390   -0.5120    1.9480 c3        1 CIJ      0.152300
     31 OAA         0.2320    2.2250    1.3000 o         1 CIJ     -0.569500
@<TRIPOS>BOND
     1    1   13 1   
     2    2   16 2   
     3    3   10 1   
     4    3   20 1   
     5    4   12 1   
     6    4   21 1   
     7    5    8 ar  
     8    5   10 ar  
     9    5   22 1   
    10    6    7 ar  
    11    6   11 ar  
    12    6   23 1   
    13    7   14 ar  
    14    7   24 1   
    15    8   17 ar  
    16    8   25 1   
    17    9   13 ar  
    18    9   14 ar  
    19    9   26 1   
    20   10   12 ar  
    21   11   13 ar  
    22   11   29 1   
    23   12   18 ar  
    24   14   30 1   
    25   15   17 1   
    26   15   19 1   
    27   15   31 2   
    28   16   18 1   
    29   16   19 1   
    30   17   18 ar  
    31   19   30 1   
    32   27   30 1   
    33   28   30 1   
@<TRIPOS>SUBSTRUCTURE
     1 CIJ         1 TEMP              0 ****  ****    0 ROOT
