@<TRIPOS>MOLECULE
CIJ
   31    33     1     0     0
SMALL
bcc


@<TRIPOS>ATOM
      1 Cl          0.1000   -0.5150   -0.2180 cl        1 CIJ     -0.065400
      2 OAB         5.9130    1.8310    3.6630 o         1 CIJ     -0.607500
      3 OAC         5.4790    6.9010    5.8680 oh        1 CIJ     -0.484100
      4 OAD         6.6590    4.7170    4.6300 oh        1 CIJ     -0.506100
      5 CAG         3.4180    5.7520    6.0130 ca        1 CIJ     -0.136000
      6 CAH         4.0400    0.2370   -0.1000 ca        1 CIJ     -0.163000
      7 CAI         4.2670    0.2970    1.2690 ca        1 CIJ     -0.088000
      8 CAJ         2.6090    4.6200    5.7930 ca        1 CIJ     -0.049000
      9 CAK         1.9260   -0.1430    1.6960 ca        1 CIJ     -0.082000
     10 CAM         4.7560    5.7630    5.6200 ca        1 CIJ      0.129100
     11 CAN         2.7430   -0.0190   -0.5890 ca        1 CIJ      0.142900
     12 CAO         5.3390    4.6220    4.9820 ca        1 CIJ      0.130100
     13 CAP         1.6800   -0.2090    0.3200 ca        1 CIJ     -0.029600
     14 CAQ         3.2150    0.1010    2.1700 ca        1 CIJ     -0.130300
     15 CAR         2.5900    2.1950    4.8120 c         1 CIJ      0.731100
     16 CAS         4.8350    2.2020    4.1430 c         1 CIJ      0.737100
     17 CAT         3.1690    3.5240    5.1800 ca        1 CIJ     -0.142600
     18 CAU         4.5360    3.5220    4.7720 ca        1 CIJ     -0.209600
     19 NAV         3.6440    1.4380    4.2110 n         1 CIJ     -0.516400
     20 HOAC        6.3840    6.7660    5.5420 ho        1 CIJ      0.446000
     21 HOAD        6.9200    3.8780    4.2080 ho        1 CIJ      0.465000
     22 HAG         1.5540    4.6240    6.1090 ha        1 CIJ      0.164000
     23 HAH         4.8610    0.3880   -0.8160 ha        1 CIJ      0.156000
     24 HAI         5.2810    0.5050    1.6530 ha        1 CIJ      0.161000
     25 HAJ         2.9980    6.6460    6.5010 ha        1 CIJ      0.166000
     26 HAK         1.0940   -0.2830    2.4060 ha        1 CIJ      0.160000
     27 HAL         4.4320   -0.4520    3.8500 h1        1 CIJ      0.078700
     28 HALA        2.6270   -0.3710    4.1950 h1        1 CIJ      0.078700
     29 FAE         2.5450   -0.0760   -1.9260 f         1 CIJ     -0.124900
     30 CAL         3.4820    0.1260    3.6490 c3        1 CIJ      0.152300
     31 OAA         1.4450    1.7740    4.9870 o         1 CIJ     -0.563500
@<TRIPOS>BOND
     1    1   13 1   
     2    2   16 2   
     3    3   10 1   
     4    3   20 1   
     5    4   12 1   
     6    4   21 1   
     7    5    8 ar  
     8    5   10 ar  
     9    5   25 1   
    10    6    7 ar  
    11    6   11 ar  
    12    6   23 1   
    13    7   14 ar  
    14    7   24 1   
    15    8   17 ar  
    16    8   22 1   
    17    9   13 ar  
    18    9   14 ar  
    19    9   26 1   
    20   10   12 ar  
    21   11   13 ar  
    22   11   29 1   
    23   12   18 ar  
    24   14   30 1   
    25   15   17 1   
    26   15   19 1   
    27   15   31 2   
    28   16   18 1   
    29   16   19 1   
    30   17   18 ar  
    31   19   30 1   
    32   27   30 1   
    33   28   30 1   
@<TRIPOS>SUBSTRUCTURE
     1 CIJ         1 TEMP              0 ****  ****    0 ROOT
