@<TRIPOS>MOLECULE
CIJ
   31    33     1     0     0
SMALL
bcc


@<TRIPOS>ATOM
      1 CL          0.1050   -0.5370   -0.2070 cl        1 CIJ     -0.065400
      2 OAB         5.9190    1.8510    3.6480 o         1 CIJ     -0.607500
      3 OAC         5.4520    6.9080    5.8740 oh        1 CIJ     -0.484100
      4 OAD         6.6430    4.7400    4.6200 oh        1 CIJ     -0.506100
      5 CAG         3.4020    5.7410    6.0270 ca        1 CIJ     -0.136000
      6 CAH         4.0370    0.2520   -0.1090 ca        1 CIJ     -0.163000
      7 CAI         4.2720    0.3090    1.2580 ca        1 CIJ     -0.088000
      8 CAJ         2.6020    4.6020    5.8080 ca        1 CIJ     -0.049000
      9 CAK         1.9380   -0.1540    1.6970 ca        1 CIJ     -0.082000
     10 CAM         4.7380    5.7650    5.6260 ca        1 CIJ      0.129100
     11 CAN         2.7400   -0.0150   -0.5920 ca        1 CIJ      0.142900
     12 CAO         5.3270    4.6320    4.9810 ca        1 CIJ      0.130100
     13 CAP         1.6840   -0.2180    0.3240 ca        1 CIJ     -0.029600
     14 CAQ         3.2270    0.1010    2.1650 ca        1 CIJ     -0.130300
     15 CAR         2.5990    2.1800    4.8180 c         1 CIJ      0.731100
     16 CAS         4.8400    2.2110    4.1350 c         1 CIJ      0.737100
     17 CAT         3.1680    3.5140    5.1870 ca        1 CIJ     -0.142600
     18 CAU         4.5330    3.5250    4.7710 ca        1 CIJ     -0.209600
     19 NAV         3.6570    1.4350    4.2090 n         1 CIJ     -0.516400
     20 HOAC        6.3560    6.7830    5.5420 ho        1 CIJ      0.446000
     21 HOAD        6.9100    3.9050    4.1940 ho        1 CIJ      0.465000
     22 HAG         1.5500    4.5960    6.1300 ha        1 CIJ      0.164000
     23 HAH         4.8540    0.4130   -0.8290 ha        1 CIJ      0.156000
     24 HAI         5.2860    0.5260    1.6380 ha        1 CIJ      0.161000
     25 HAJ         2.9770    6.6280    6.5210 ha        1 CIJ      0.166000
     26 HAK         1.1110   -0.3040    2.4120 ha        1 CIJ      0.160000
     27 HAL         4.4590   -0.4470    3.8370 h1        1 CIJ      0.078700
     28 HALA        2.6560   -0.3830    4.1920 h1        1 CIJ      0.078700
     29 FAE         2.5350   -0.0690   -1.9270 f         1 CIJ     -0.124900
     30 CAL         3.5030    0.1230    3.6430 c3        1 CIJ      0.152300
     31 OAA         1.4590    1.7490    4.9980 o         1 CIJ     -0.563500
@<TRIPOS>BOND
     1    1   13 1   
     2    2   16 2   
     3    3   10 1   
     4    3   20 1   
     5    4   12 1   
     6    4   21 1   
     7    5    8 ar  
     8    5   10 ar  
     9    5   25 1   
    10    6    7 ar  
    11    6   11 ar  
    12    6   23 1   
    13    7   14 ar  
    14    7   24 1   
    15    8   17 ar  
    16    8   22 1   
    17    9   13 ar  
    18    9   14 ar  
    19    9   26 1   
    20   10   12 ar  
    21   11   13 ar  
    22   11   29 1   
    23   12   18 ar  
    24   14   30 1   
    25   15   17 1   
    26   15   19 1   
    27   15   31 2   
    28   16   18 1   
    29   16   19 1   
    30   17   18 ar  
    31   19   30 1   
    32   27   30 1   
    33   28   30 1   
@<TRIPOS>SUBSTRUCTURE
     1 CIJ         1 TEMP              0 ****  ****    0 ROOT
