@<TRIPOS>MOLECULE
CIJ
   31    28     1     0     0
SMALL
bcc


@<TRIPOS>ATOM
      1 CL         -3.7700   -1.7480   -4.0070 cl        1 CIJ      0.010000
      2 OAA        -2.2080   -0.6340    1.2770 o         1 CIJ     -0.291500
      3 OAB         2.3030   -0.5150    0.2690 o         1 CIJ     -0.291500
      4 OAC         1.8080    4.1310    3.3620 oh        1 CIJ     -0.265000
      5 OAD         3.0500    2.1180    1.7500 oh        1 CIJ     -0.213000
      6 FAE        -1.4860   -1.6600   -5.6970 f         1 CIJ     -0.091000
      7 CAG        -0.1980    2.9150    3.2650 c1        1 CIJ     -0.168000
      8 CAH         0.2370   -1.7480   -4.0070 c1        1 CIJ     -0.163000
      9 CAI         0.5380   -1.7480   -2.6550 c1        1 CIJ     -0.087000
     10 CAJ        -0.9980    1.9080    2.7470 c1        1 CIJ     -0.060000
     11 CAK        -1.8050   -1.7480   -2.1320 c1        1 CIJ     -0.083000
     12 CAL        -0.1500   -2.1190   -0.2880 c3        1 CIJ      0.030000
     13 CAM         1.1550    2.9480    2.9660 c2        1 CIJ      0.017000
     14 CAN        -1.0860   -1.7480   -4.4230 c2        1 CIJ      0.105000
     15 CAO         1.7090    1.9750    2.1500 c2        1 CIJ      0.143000
     16 CAP        -2.1070   -1.7480   -3.4850 c2        1 CIJ     -0.108000
     17 CAQ        -0.4830   -1.7480   -1.7170 c1        1 CIJ     -0.121000
     18 CAR        -1.0460   -0.2830    1.2170 c1        1 CIJ      0.370000
     19 CAS         1.2120   -0.2270    0.7190 c1        1 CIJ      0.370000
     20 CAT        -0.4390    0.9240    1.9220 c1        1 CIJ     -0.114000
     21 CAU         0.9010    0.9570    1.6260 c1        1 CIJ     -0.142000
     22 NAV        -0.0040   -0.9470    0.5010 n3        1 CIJ     -0.354000
     23 HOAC        2.1100    4.0390    4.1910 ho        1 CIJ      0.239000
     24 HOAD        3.5810    1.7460    2.3570 ho        1 CIJ      0.245000
     25 HAG        -0.5900    3.6080    3.8300 ha        1 CIJ      0.148000
     26 HAH         0.9550   -1.7480   -4.6680 ha        1 CIJ      0.156000
     27 HAI         1.4700   -1.7480   -2.3620 ha        1 CIJ      0.164000
     28 HAJ        -1.9510    1.8850    2.9580 ha        1 CIJ      0.164000
     29 HAK        -2.5240   -1.7480   -1.4720 ha        1 CIJ      0.160000
     30 HAL        -0.8680   -2.6680    0.0790 h1        1 CIJ      0.116500
     31 HALA        0.6840   -2.6250   -0.2720 h1        1 CIJ      0.116500
@<TRIPOS>BOND
     1    1   16 1   
     2    2   18 1   
     3    3   19 1   
     4    4   13 1   
     5    4   23 1   
     6    5   15 1   
     7    5   24 1   
     8    6   14 1   
     9    7   13 1   
    10    7   25 1   
    11    8   14 1   
    12    8   26 1   
    13    9   17 1   
    14    9   27 1   
    15   10   20 1   
    16   10   28 1   
    17   11   16 1   
    18   11   29 1   
    19   12   17 1   
    20   12   22 1   
    21   12   30 1   
    22   12   31 1   
    23   13   15 1   
    24   14   16 1   
    25   15   21 1   
    26   18   22 1   
    27   19   22 1   
    28   20   21 1   
@<TRIPOS>SUBSTRUCTURE
     1 CIJ         1 TEMP              0 ****  ****    0 ROOT
