@<TRIPOS>MOLECULE
CIL
   50    50     1     0     0
SMALL
bcc


@<TRIPOS>ATOM
      1 C1         -0.1500   -0.9760   -0.5930 cx        1 CIL     -0.110400
      2 C2          0.7030    0.2240   -0.2880 cx        1 CIL     -0.266700
      3 C3          0.2820   -0.7370    0.8250 cx        1 CIL     -0.034000
      4 C4          1.2900   -1.6550    1.4370 c3        1 CIL     -0.086600
      5 C5         -0.7120   -0.2060    1.8090 c3        1 CIL     -0.086600
      6 C6          2.1090    0.4010   -0.6930 c         1 CIL      0.604100
      7 N7          2.6460   -0.4510   -1.8080 n4        1 CIL     -0.548600
      8 C8          3.3770   -1.6350   -1.3510 ce        1 CIL     -0.185200
      9 C9          4.6130   -1.6170   -0.8310 c2        1 CIL     -0.096200
     10 O10         2.8780    1.2540   -0.2560 o         1 CIL     -0.478100
     11 C11         2.6240   -2.9770   -1.6380 c         1 CIL      0.931800
     12 O12         3.0780   -3.9890   -1.0770 o         1 CIL     -0.763800
     13 O13         1.6320   -2.8660   -2.4120 o         1 CIL     -0.763800
     14 C14         5.4680   -0.4320   -0.6070 c3        1 CIL     -0.076200
     15 C15         6.8270   -0.8160   -0.0540 c3        1 CIL     -0.076400
     16 C16         7.7110    0.4050    0.0970 c3        1 CIL     -0.073400
     17 C17         9.0240    0.0380    0.7400 c3        1 CIL      0.012700
     18 C18        11.2860    1.1210    1.9380 c3        1 CIL     -0.002300
     19 C19        12.5910    1.7840    1.5720 c3        1 CIL     -0.076500
     20 C20        13.7150    1.2500    2.6100 c         1 CIL      0.941600
     21 O22        13.5850    1.6710    3.7680 o         1 CIL     -0.748800
     22 O23        14.5650    0.4830    2.0940 o         1 CIL     -0.748800
     23 N21        13.0280    1.4770    0.1780 n4        1 CIL     -0.836600
     24 S          10.0670    1.4760    0.6880 ss        1 CIL     -0.391200
     25 H11         0.2680   -1.8500   -1.1400 hc        1 CIL      0.118700
     26 H12A       -1.2040   -0.7860   -0.8730 hc        1 CIL      0.118700
     27 H2          0.2110    1.2250   -0.2850 hc        1 CIL      0.124700
     28 H41         0.7620   -2.4790    1.9790 hc        1 CIL      0.055533
     29 H42         1.9460   -2.1230    0.6580 hc        1 CIL      0.055533
     30 H43         1.9280   -1.1020    2.1680 hc        1 CIL      0.055533
     31 H51        -1.4530    0.4690    1.3150 hc        1 CIL      0.055533
     32 H52        -1.2660   -1.0570    2.2770 hc        1 CIL      0.055533
     33 H53        -0.1900    0.3650    2.6160 hc        1 CIL      0.055533
     34 H7          3.2550    0.1180   -2.4030 hn        1 CIL      0.465300
     35 H9          5.0290   -2.6080   -0.5480 ha        1 CIL      0.194000
     36 H141        4.9620    0.2760    0.1080 hc        1 CIL      0.059700
     37 H142        5.6030    0.1250   -1.5750 hc        1 CIL      0.059700
     38 H151        6.6980   -1.3160    0.9410 hc        1 CIL      0.053700
     39 H152        7.3180   -1.5570   -0.7390 hc        1 CIL      0.053700
     40 H161        7.8950    0.8630   -0.9120 hc        1 CIL      0.057700
     41 H162        7.1870    1.1770    0.7220 hc        1 CIL      0.057700
     42 H171        8.8710   -0.2840    1.7980 h1        1 CIL      0.069200
     43 H172        9.5140   -0.8020    0.1910 h1        1 CIL      0.069200
     44 H181       10.9700    1.5300    2.9310 h1        1 CIL      0.104200
     45 H182       11.4090    0.0160    2.0500 h1        1 CIL      0.104200
     46 H19        12.5170    2.8990    1.6860 hx        1 CIL      0.100700
     47 H211       12.2260    1.1960   -0.3970 hn        1 CIL      0.449467
     48 H122       13.4870    2.2880   -0.2280 hn        1 CIL      0.449467
     49 H72         1.8500   -0.8350   -2.3730 hn        1 CIL      0.465300
     50 H213       13.7240    0.7040    0.2540 hn        1 CIL      0.449467
@<TRIPOS>BOND
     1    1    2 1   
     2    1    3 1   
     3    1   25 1   
     4    1   26 1   
     5    2    3 1   
     6    2    6 1   
     7    2   27 1   
     8    3    4 1   
     9    3    5 1   
    10    4   28 1   
    11    4   29 1   
    12    4   30 1   
    13    5   31 1   
    14    5   32 1   
    15    5   33 1   
    16    6    7 1   
    17    6   10 2   
    18    7    8 1   
    19    7   34 1   
    20    7   49 1   
    21    8    9 2   
    22    8   11 1   
    23    9   14 1   
    24    9   35 1   
    25   11   12 1   
    26   11   13 1   
    27   14   15 1   
    28   14   36 1   
    29   14   37 1   
    30   15   16 1   
    31   15   38 1   
    32   15   39 1   
    33   16   17 1   
    34   16   40 1   
    35   16   41 1   
    36   17   24 1   
    37   17   42 1   
    38   17   43 1   
    39   18   19 1   
    40   18   24 1   
    41   18   44 1   
    42   18   45 1   
    43   19   20 1   
    44   19   23 1   
    45   19   46 1   
    46   20   21 1   
    47   20   22 1   
    48   23   47 1   
    49   23   48 1   
    50   23   50 1   
@<TRIPOS>SUBSTRUCTURE
     1 CIL         1 TEMP              0 ****  ****    0 ROOT
