@<TRIPOS>MOLECULE
CIL
   50    50     1     0     0
SMALL
bcc


@<TRIPOS>ATOM
      1 C1         -0.1460   -0.9670   -0.6340 cx        1 CIL     -0.110400
      2 C2          0.7120    0.2360   -0.3550 cx        1 CIL     -0.266700
      3 C3          0.2720   -0.6880    0.7820 cx        1 CIL     -0.034000
      4 C4          1.2650   -1.5940    1.4320 c3        1 CIL     -0.086600
      5 C5         -0.7310   -0.1210    1.7370 c3        1 CIL     -0.086600
      6 C6          2.1240    0.3920   -0.7480 c         1 CIL      0.604100
      7 N7          2.6680   -0.4960   -1.8300 ny        1 CIL     -0.548600
      8 C8          3.3860   -1.6710   -1.3300 ce        1 CIL     -0.185200
      9 C9          4.6160   -1.6450   -0.7950 c2        1 CIL     -0.096200
     10 O10         2.8930    1.2530   -0.3280 o         1 CIL     -0.478100
     11 C11         2.6270   -3.0160   -1.5840 c         1 CIL      0.931800
     12 O12         3.0690   -4.0140   -0.9890 o         1 CIL     -0.763800
     13 O13         1.6460   -2.9230   -2.3730 o         1 CIL     -0.763800
     14 C14         5.4760   -0.4590   -0.5970 c3        1 CIL     -0.076200
     15 C15         6.8270   -0.8340   -0.0200 c3        1 CIL     -0.076400
     16 C16         7.7170    0.3860    0.1060 c3        1 CIL     -0.073400
     17 C17         9.0210    0.0300    0.7710 c3        1 CIL      0.012700
     18 C18        11.2810    1.1310    1.9560 c3        1 CIL     -0.002300
     19 C19        12.5920    1.7780    1.5830 c3        1 CIL     -0.076500
     20 C20        13.7070    1.2660    2.6420 c         1 CIL      0.941600
     21 O22        13.5700    1.7160    3.7870 o         1 CIL     -0.748800
     22 O23        14.5560    0.4810    2.1500 o         1 CIL     -0.748800
     23 N21        13.0370    1.4330    0.2000 nz        1 CIL     -0.836600
     24 S          10.0730    1.4600    0.6890 ss        1 CIL     -0.391200
     25 H11        -1.1950   -0.7790   -0.9320 hc        1 CIL      0.118700
     26 H12A        0.2730   -1.8600   -1.1500 hc        1 CIL      0.118700
     27 H2          0.2270    1.2400   -0.3880 hc        1 CIL      0.124700
     28 H41         0.7260   -2.3980    1.9930 hc        1 CIL      0.055367
     29 H42         1.8980   -1.0240    2.1550 hc        1 CIL      0.055367
     30 H43         1.9280   -2.0890    0.6760 hc        1 CIL      0.055367
     31 H51        -0.2140    0.4700    2.5330 hc        1 CIL      0.055367
     32 H52        -1.4600    0.5430    1.2140 hc        1 CIL      0.055367
     33 H53        -1.2960   -0.9540    2.2240 hc        1 CIL      0.055367
     34 H7          1.8760   -0.8920   -2.3930 hn        1 CIL      0.465300
     35 H9          5.0220   -2.6290   -0.4780 ha        1 CIL      0.194000
     36 H141        5.6240    0.0700   -1.5790 hc        1 CIL      0.060200
     37 H142        4.9670    0.2730    0.0920 hc        1 CIL      0.060200
     38 H151        7.3210   -1.5970   -0.6780 hc        1 CIL      0.053700
     39 H152        6.6850   -1.3060    0.9880 hc        1 CIL      0.053700
     40 H161        7.1910    1.1780    0.7040 hc        1 CIL      0.057700
     41 H162        7.9130    0.8140   -0.9140 hc        1 CIL      0.057700
     42 H171        9.5120   -0.8280    0.2510 h1        1 CIL      0.069200
     43 H172        8.8560   -0.2620    1.8360 h1        1 CIL      0.069200
     44 H181       10.9600    1.5670    2.9370 h1        1 CIL      0.104200
     45 H182       11.3980    0.0290    2.0970 h1        1 CIL      0.104200
     46 H19        12.5230    2.8960    1.6670 hx        1 CIL      0.100700
     47 H211       13.5030    2.2310   -0.2240 hn        1 CIL      0.449467
     48 H122       13.7280    0.6580    0.3000 hn        1 CIL      0.449467
     49 H72         3.2880    0.0500   -2.4350 hn        1 CIL      0.465300
     50 H213       12.2380    1.1410   -0.3730 hn        1 CIL      0.449467
@<TRIPOS>BOND
     1    1    2 1   
     2    1    3 1   
     3    1   25 1   
     4    1   26 1   
     5    2    3 1   
     6    2    6 1   
     7    2   27 1   
     8    3    4 1   
     9    3    5 1   
    10    4   28 1   
    11    4   29 1   
    12    4   30 1   
    13    5   31 1   
    14    5   32 1   
    15    5   33 1   
    16    6    7 1   
    17    6   10 2   
    18    7    8 1   
    19    7   34 1   
    20    7   49 1   
    21    8    9 2   
    22    8   11 1   
    23    9   14 1   
    24    9   35 1   
    25   11   12 1   
    26   11   13 1   
    27   14   15 1   
    28   14   36 1   
    29   14   37 1   
    30   15   16 1   
    31   15   38 1   
    32   15   39 1   
    33   16   17 1   
    34   16   40 1   
    35   16   41 1   
    36   17   24 1   
    37   17   42 1   
    38   17   43 1   
    39   18   19 1   
    40   18   24 1   
    41   18   44 1   
    42   18   45 1   
    43   19   20 1   
    44   19   23 1   
    45   19   46 1   
    46   20   21 1   
    47   20   22 1   
    48   23   47 1   
    49   23   48 1   
    50   23   50 1   
@<TRIPOS>SUBSTRUCTURE
     1 CIL         1 TEMP              0 ****  ****    0 ROOT
