@<TRIPOS>MOLECULE
CIL
   50    50     1     0     0
SMALL
bcc


@<TRIPOS>ATOM
      1 C1          0.1850   -0.5960    0.0620 cx        1 CIL     -0.111400
      2 C2          1.2390    0.4490    0.3040 cx        1 CIL     -0.264700
      3 C3          0.9240   -0.6020    1.3700 cx        1 CIL     -0.034000
      4 C4          1.8990   -1.7000    1.6430 c3        1 CIL     -0.086600
      5 C5          0.2300   -0.1030    2.5980 c3        1 CIL     -0.086600
      6 C6          2.5460    0.5210   -0.3730 c         1 CIL      0.602100
      7 N7          2.7230   -0.2230   -1.6670 n4        1 CIL     -0.548600
      8 C8          3.3690   -1.5290   -1.5160 ce        1 CIL     -0.184200
      9 C9          4.6770   -1.7120   -1.2790 c2        1 CIL     -0.096200
     10 O10         3.4990    1.2110   -0.0200 o         1 CIL     -0.474100
     11 C11         2.4040   -2.7320   -1.7760 c         1 CIL      0.931800
     12 O12         2.8290   -3.8540   -1.4500 o         1 CIL     -0.765300
     13 O13         1.2950   -2.4150   -2.2900 o         1 CIL     -0.765300
     14 C14         5.7060   -0.6650   -1.1090 c3        1 CIL     -0.077200
     15 C15         7.0910   -1.2590   -0.9510 c3        1 CIL     -0.076400
     16 C16         8.1330   -0.1680   -0.8120 c3        1 CIL     -0.084400
     17 C17         9.5020   -0.7570   -0.5890 c3        1 CIL      0.009700
     18 C18        10.3860    1.3650    0.9960 c3        1 CIL     -0.004300
     19 C19        11.6520    1.9270    1.5940 c3        1 CIL     -0.074500
     20 C20        11.2740    2.5340    3.0470 c         1 CIL      0.941600
     21 O22        10.5720    3.5550    3.0100 o         1 CIL     -0.749800
     22 O23        11.7450    1.8830    4.0130 o         1 CIL     -0.749800
     23 N21        12.7250    0.9010    1.7560 n4        1 CIL     -0.835600
     24 S          10.7770    0.4710   -0.4930 ss        1 CIL     -0.383200
     25 H11         0.3620   -1.4290   -0.6560 hc        1 CIL      0.118200
     26 H12A       -0.8670   -0.2550    0.0390 hc        1 CIL      0.118200
     27 H2          0.9000    1.4890    0.5230 hc        1 CIL      0.125700
     28 H41         2.3160   -2.1250    0.6930 hc        1 CIL      0.055367
     29 H42         2.7390   -1.3270    2.2770 hc        1 CIL      0.055367
     30 H43         1.3840   -2.5290    2.1900 hc        1 CIL      0.055367
     31 H51         0.9770    0.2930    3.3290 hc        1 CIL      0.055367
     32 H52        -0.4970    0.7090    2.3540 hc        1 CIL      0.055367
     33 H53        -0.3270   -0.9440    3.0810 hc        1 CIL      0.055367
     34 H7          1.7840   -0.4390   -2.0800 hn        1 CIL      0.465300
     35 H9          5.0080   -2.7690   -1.2080 ha        1 CIL      0.193000
     36 H141        5.4650   -0.0360   -0.2050 hc        1 CIL      0.061200
     37 H142        5.6960    0.0270   -1.9960 hc        1 CIL      0.061200
     38 H151        7.1120   -1.9220   -0.0450 hc        1 CIL      0.052200
     39 H152        7.3310   -1.9000   -1.8390 hc        1 CIL      0.052200
     40 H161        8.1400    0.4670   -1.7380 hc        1 CIL      0.057700
     41 H162        7.8660    0.5020    0.0490 hc        1 CIL      0.057700
     42 H171        9.8000   -1.4000   -1.4560 h1        1 CIL      0.076200
     43 H172        9.5050   -1.3860    0.3340 h1        1 CIL      0.076200
     44 H181        9.8590    0.6950    1.7180 h1        1 CIL      0.102700
     45 H182        9.7080    2.2300    0.7800 h1        1 CIL      0.102700
     46 H19        12.0530    2.7660    0.9630 hx        1 CIL      0.100700
     47 H211       12.5630    0.1090    1.1250 hn        1 CIL      0.449467
     48 H122       12.6920    0.5980    2.7530 hn        1 CIL      0.449467
     49 H72         3.2660    0.3540   -2.3150 hn        1 CIL      0.465300
     50 H213       13.6340    1.3170    1.5720 hn        1 CIL      0.449467
@<TRIPOS>BOND
     1    1    2 1   
     2    1    3 1   
     3    1   25 1   
     4    1   26 1   
     5    2    3 1   
     6    2    6 1   
     7    2   27 1   
     8    3    4 1   
     9    3    5 1   
    10    4   28 1   
    11    4   29 1   
    12    4   30 1   
    13    5   31 1   
    14    5   32 1   
    15    5   33 1   
    16    6    7 1   
    17    6   10 2   
    18    7    8 1   
    19    7   34 1   
    20    7   49 1   
    21    8    9 2   
    22    8   11 1   
    23    9   14 1   
    24    9   35 1   
    25   11   12 1   
    26   11   13 1   
    27   14   15 1   
    28   14   36 1   
    29   14   37 1   
    30   15   16 1   
    31   15   38 1   
    32   15   39 1   
    33   16   17 1   
    34   16   40 1   
    35   16   41 1   
    36   17   24 1   
    37   17   42 1   
    38   17   43 1   
    39   18   19 1   
    40   18   24 1   
    41   18   44 1   
    42   18   45 1   
    43   19   20 1   
    44   19   23 1   
    45   19   46 1   
    46   20   21 1   
    47   20   22 1   
    48   23   47 1   
    49   23   48 1   
    50   23   50 1   
@<TRIPOS>SUBSTRUCTURE
     1 CIL         1 TEMP              0 ****  ****    0 ROOT
