@<TRIPOS>MOLECULE
CIL
   48    48     1     0     0
SMALL
bcc


@<TRIPOS>ATOM
      1 C1          5.6000   -1.7900   -1.9200 cx        1 CIL     -0.126400
      2 C2          4.4260   -2.3470   -1.1670 cx        1 CIL     -0.196700
      3 C3          5.8390   -2.6140   -0.6810 cx        1 CIL     -0.088000
      4 C4          6.3540   -1.9410    0.5510 c3        1 CIL     -0.075100
      5 C5          6.3580   -4.0080   -0.8480 c3        1 CIL     -0.075100
      6 C6          3.4580   -1.5380   -0.3430 c         1 CIL      0.671100
      7 N7          3.5860   -0.1590   -0.3610 n         1 CIL     -0.425100
      8 C8          3.1040    0.6890    0.6710 ce        1 CIL     -0.109600
      9 C9          1.8030    0.8920    0.9600 c2        1 CIL     -0.161200
     10 O10         2.5340   -2.1480    0.2380 o         1 CIL     -0.623100
     11 C11         4.1980    1.4770    1.4220 c         1 CIL      0.904800
     12 O12         3.8430    2.2680    2.3340 o         1 CIL     -0.836800
     13 O13         5.4040    1.2860    1.0740 o         1 CIL     -0.836800
     14 C14         0.6520    0.2350    0.3040 c3        1 CIL     -0.050200
     15 C15        -0.6720    0.8560    0.7080 c3        1 CIL     -0.073400
     16 C16        -1.8290    0.2130   -0.0320 c3        1 CIL     -0.067400
     17 C17        -3.1460    0.8380    0.3510 c3        1 CIL     -0.008300
     18 C18        -5.8380    1.0650   -0.1380 c3        1 CIL      0.025700
     19 C19        -7.1220    0.4560   -0.6790 c3        1 CIL      0.030500
     20 C20        -8.3270    1.1580    0.0450 c         1 CIL      0.890600
     21 O22        -8.2940    1.2280    1.3040 o         1 CIL     -0.842800
     22 O23        -9.2760    1.5930   -0.6680 o         1 CIL     -0.842800
     23 N21        -7.2150    0.4620   -2.1330 n3        1 CIL     -0.885800
     24 S          -4.4250    0.1000   -0.6320 ss        1 CIL     -0.352200
     25 H11         5.8320   -2.2320   -2.9070 hc        1 CIL      0.069700
     26 H12A        5.8330   -0.7110   -1.8950 hc        1 CIL      0.069700
     27 H2          3.8870   -3.2010   -1.6300 hc        1 CIL      0.088700
     28 H41         6.0560   -0.8590    0.6040 hc        1 CIL      0.042700
     29 H42         5.9560   -2.4550    1.4600 hc        1 CIL      0.042700
     30 H43         7.4700   -1.9960    0.5730 hc        1 CIL      0.042700
     31 H51         7.4740   -3.9990   -0.9000 hc        1 CIL      0.042700
     32 H52         6.0480   -4.6360    0.0230 hc        1 CIL      0.042700
     33 H53         5.9640   -4.4780   -1.7810 hc        1 CIL      0.042700
     34 H7          4.4900    0.1640   -0.6660 hn        1 CIL      0.310500
     35 H9          1.5780    1.6130    1.7660 ha        1 CIL      0.148000
     36 H141        0.7640    0.2980   -0.8130 hc        1 CIL      0.053200
     37 H142        0.6510   -0.8610    0.5640 hc        1 CIL      0.053200
     38 H151       -0.8210    0.7400    1.8130 hc        1 CIL      0.033700
     39 H152       -0.6530    1.9560    0.4910 hc        1 CIL      0.033700
     40 H161       -1.6690    0.3200   -1.1380 hc        1 CIL      0.047200
     41 H162       -1.8510   -0.8860    0.1940 hc        1 CIL      0.047200
     42 H171       -3.3550    0.6760    1.4360 h1        1 CIL      0.048700
     43 H172       -3.1210    1.9410    0.1760 h1        1 CIL      0.048700
     44 H181       -5.7090    2.1140   -0.4960 h1        1 CIL      0.063700
     45 H182       -5.9140    1.0850    0.9780 h1        1 CIL      0.063700
     46 H19        -7.1610   -0.6290   -0.3670 h1        1 CIL      0.057700
     47 H211       -8.1950    0.4280   -2.3690 hn        1 CIL      0.331300
     48 H122       -6.8680    1.3380   -2.4810 hn        1 CIL      0.331300
@<TRIPOS>BOND
     1    1    2 1   
     2    1    3 1   
     3    1   25 1   
     4    1   26 1   
     5    2    3 1   
     6    2    6 1   
     7    2   27 1   
     8    3    4 1   
     9    3    5 1   
    10    4   28 1   
    11    4   29 1   
    12    4   30 1   
    13    5   31 1   
    14    5   32 1   
    15    5   33 1   
    16    6    7 1   
    17    6   10 2   
    18    7    8 1   
    19    7   34 1   
    20    8    9 2   
    21    8   11 1   
    22    9   14 1   
    23    9   35 1   
    24   11   12 1   
    25   11   13 1   
    26   14   15 1   
    27   14   36 1   
    28   14   37 1   
    29   15   16 1   
    30   15   38 1   
    31   15   39 1   
    32   16   17 1   
    33   16   40 1   
    34   16   41 1   
    35   17   24 1   
    36   17   42 1   
    37   17   43 1   
    38   18   19 1   
    39   18   24 1   
    40   18   44 1   
    41   18   45 1   
    42   19   20 1   
    43   19   23 1   
    44   19   46 1   
    45   20   21 1   
    46   20   22 1   
    47   23   47 1   
    48   23   48 1   
@<TRIPOS>SUBSTRUCTURE
     1 CIL         1 TEMP              0 ****  ****    0 ROOT
