@<TRIPOS>MOLECULE
CIN
   20    20     1     0     0
SMALL
bcc


@<TRIPOS>ATOM
      1 C1         -0.3490    0.0010    0.4030 ca        1 CIN     -0.048800
      2 C2         -1.4650   -0.0000   -0.4530 ca        1 CIN     -0.162000
      3 C3         -1.3070   -0.0000   -1.8360 ca        1 CIN     -0.116500
      4 C4         -0.0310    0.0000   -2.4110 ca        1 CIN     -0.137600
      5 C5          1.0810    0.0010   -1.5640 ca        1 CIN     -0.116500
      6 C6          0.9270    0.0010   -0.1790 ca        1 CIN     -0.162000
      7 C1'        -0.5600    0.0010    1.8420 ce        1 CIN     -0.140200
      8 C2'         0.3850    0.0000    2.7910 cf        1 CIN     -0.201200
      9 C3'         0.0790    0.0000    4.2680 c         1 CIN      0.890800
     10 C4'         0.1370    0.0000   -3.9160 c         1 CIN      0.906200
     11 O1'        -1.1250    0.0010    4.6660 o         1 CIN     -0.857800
     12 O2'         1.0630    0.0000    5.0690 o         1 CIN     -0.857800
     13 O3'        -0.9010   -0.0000   -4.6430 o         1 CIN     -0.853300
     14 O4'         1.3090    0.0010   -4.3980 o         1 CIN     -0.853300
     15 H2         -2.4740   -0.0010   -0.0180 ha        1 CIN      0.109000
     16 H3         -2.1800   -0.0010   -2.5060 ha        1 CIN      0.134500
     17 H5          2.0840    0.0020   -2.0200 ha        1 CIN      0.134500
     18 H6          1.8170    0.0020    0.4670 ha        1 CIN      0.109000
     19 H1'        -1.6190    0.0010    2.1630 ha        1 CIN      0.127000
     20 H2'         1.4590   -0.0010    2.5540 ha        1 CIN      0.098000
@<TRIPOS>BOND
     1    1    2 ar  
     2    1    6 ar  
     3    1    7 1   
     4    2    3 ar  
     5    2   15 1   
     6    3    4 ar  
     7    3   16 1   
     8    4    5 ar  
     9    4   10 1   
    10    5    6 ar  
    11    5   17 1   
    12    6   18 1   
    13    7    8 2   
    14    7   19 1   
    15    8    9 1   
    16    8   20 1   
    17    9   11 1   
    18    9   12 1   
    19   10   13 1   
    20   10   14 1   
@<TRIPOS>SUBSTRUCTURE
     1 CIN         1 TEMP              0 ****  ****    0 ROOT
