@<TRIPOS>MOLECULE
CIN
   20    16     1     0     0
SMALL
bcc


@<TRIPOS>ATOM
      1 C1         -0.3980    0.4850   -0.6240 c1        1 CIN     -0.037000
      2 C2          0.9870    0.4410   -0.6410 c1        1 CIN     -0.126000
      3 C3          1.6940    0.4060    0.5510 c1        1 CIN     -0.126000
      4 C4          1.0160    0.4150    1.7590 c1        1 CIN     -0.116000
      5 C5         -0.3690    0.4580    1.7760 c1        1 CIN     -0.128000
      6 C6         -1.0760    0.4930    0.5850 c1        1 CIN     -0.175000
      7 C1'        -1.1670    0.5850   -1.9220 c2        1 CIN     -0.154000
      8 C2'        -1.5000   -0.5340   -2.5960 c1        1 CIN     -0.164000
      9 C3'        -1.1050   -1.8900   -2.0530 c1        1 CIN      0.353000
     10 C4'         1.7890    0.4190    3.0600 c2        1 CIN      0.354000
     11 O1'        -1.6800   -2.3510   -1.0330 o         1 CIN     -0.584000
     12 O2'        -0.2180   -2.5660   -2.6360 o         1 CIN     -0.584000
     13 O3'         2.0150   -0.6640    3.6610 o         1 CIN     -0.592000
     14 O4'         2.1950    1.5060    3.5470 o         1 CIN     -0.592000
     15 H2          1.4640    0.4240   -1.4920 ha        1 CIN      0.156500
     16 H3          2.6690    0.3940    0.5390 ha        1 CIN      0.156500
     17 H5         -0.8460    0.4640    2.6270 ha        1 CIN      0.129000
     18 H6         -2.0510    0.5240    0.5970 ha        1 CIN      0.088000
     19 H1'        -1.4220    1.4600   -2.2710 ha        1 CIN      0.064000
     20 H2'        -1.9960   -0.4690   -3.4340 ha        1 CIN      0.076000
@<TRIPOS>BOND
     1    1    6 1   
     2    1    7 1   
     3    2    3 1   
     4    2   15 1   
     5    3   16 1   
     6    4    5 1   
     7    4   10 1   
     8    5   17 1   
     9    6   18 1   
    10    7    8 1   
    11    7   19 1   
    12    8   20 1   
    13    9   11 1   
    14    9   12 1   
    15   10   13 1   
    16   10   14 1   
@<TRIPOS>SUBSTRUCTURE
     1 CIN         1 TEMP              0 ****  ****    0 ROOT
