@<TRIPOS>MOLECULE
CIN
   20    20     1     0     0
SMALL
bcc


@<TRIPOS>ATOM
      1 C1         -0.0830   -0.0540    0.0560 ca        1 CIN     -0.048800
      2 C2          1.3140   -0.2220    0.0540 ca        1 CIN     -0.162000
      3 C3          2.0430   -0.1730    1.2380 ca        1 CIN     -0.116500
      4 C4          1.4030    0.0440    2.4640 ca        1 CIN     -0.137600
      5 C5          0.0160    0.2120    2.4710 ca        1 CIN     -0.116500
      6 C6         -0.7180    0.1640    1.2880 ca        1 CIN     -0.162000
      7 C1'        -0.8050   -0.1130   -1.2060 ce        1 CIN     -0.140200
      8 C2'        -2.1210    0.0560   -1.3840 cf        1 CIN     -0.201200
      9 C3'        -2.7940   -0.0220   -2.7310 c         1 CIN      0.890800
     10 C4'         2.2000    0.0970    3.7510 c         1 CIN      0.906200
     11 O1'        -2.1060   -0.2540   -3.7700 o         1 CIN     -0.857800
     12 O2'        -4.0500    0.1530   -2.7700 o         1 CIN     -0.857800
     13 O3'         3.4570   -0.0600    3.6950 o         1 CIN     -0.853300
     14 O4'         1.5840    0.2950    4.8410 o         1 CIN     -0.853300
     15 H2          1.8310   -0.3930   -0.9010 ha        1 CIN      0.109000
     16 H3          3.1360   -0.3040    1.2370 ha        1 CIN      0.134500
     17 H5         -0.4840    0.3820    3.4380 ha        1 CIN      0.134500
     18 H6         -1.8090    0.2970    1.3180 ha        1 CIN      0.109000
     19 H1'        -0.1820   -0.3190   -2.0960 ha        1 CIN      0.127000
     20 H2'        -2.8080    0.2660   -0.5500 ha        1 CIN      0.098000
@<TRIPOS>BOND
     1    1    2 ar  
     2    1    6 ar  
     3    1    7 1   
     4    2    3 ar  
     5    2   15 1   
     6    3    4 ar  
     7    3   16 1   
     8    4    5 ar  
     9    4   10 1   
    10    5    6 ar  
    11    5   17 1   
    12    6   18 1   
    13    7    8 2   
    14    7   19 1   
    15    8    9 1   
    16    8   20 1   
    17    9   11 1   
    18    9   12 1   
    19   10   13 1   
    20   10   14 1   
@<TRIPOS>SUBSTRUCTURE
     1 CIN         1 TEMP              0 ****  ****    0 ROOT
