@<TRIPOS>MOLECULE
CIN
   20    20     1     0     0
SMALL
bcc


@<TRIPOS>ATOM
      1 C1         -0.0840   -0.0610    0.0560 ca        1 CIN     -0.048800
      2 C2          1.3160   -0.2020    0.0510 ca        1 CIN     -0.162000
      3 C3          2.0460   -0.1460    1.2340 ca        1 CIN     -0.116500
      4 C4          1.4050    0.0510    2.4620 ca        1 CIN     -0.137600
      5 C5          0.0140    0.1910    2.4740 ca        1 CIN     -0.116500
      6 C6         -0.7210    0.1360    1.2910 ca        1 CIN     -0.162000
      7 C1'        -0.8080   -0.1280   -1.2040 ce        1 CIN     -0.140200
      8 C2'        -2.1210    0.0610   -1.3840 cf        1 CIN     -0.201200
      9 C3'        -2.7960   -0.0260   -2.7290 c         1 CIN      0.890800
     10 C4'         2.2030    0.1100    3.7480 c         1 CIN      0.906200
     11 O1'        -2.1130   -0.2840   -3.7650 o         1 CIN     -0.857800
     12 O2'        -4.0500    0.1660   -2.7690 o         1 CIN     -0.857800
     13 O3'         3.4620   -0.0210    3.6890 o         1 CIN     -0.853300
     14 O4'         1.5850    0.2880    4.8400 o         1 CIN     -0.853300
     15 H2          1.8350   -0.3580   -0.9060 ha        1 CIN      0.109000
     16 H3          3.1410   -0.2560    1.2300 ha        1 CIN      0.134500
     17 H5         -0.4870    0.3460    3.4420 ha        1 CIN      0.134500
     18 H6         -1.8140    0.2470    1.3240 ha        1 CIN      0.109000
     19 H1'        -0.1880   -0.3580   -2.0910 ha        1 CIN      0.127000
     20 H2'        -2.8030    0.2970   -0.5520 ha        1 CIN      0.098000
@<TRIPOS>BOND
     1    1    2 ar  
     2    1    6 ar  
     3    1    7 1   
     4    2    3 ar  
     5    2   15 1   
     6    3    4 ar  
     7    3   16 1   
     8    4    5 ar  
     9    4   10 1   
    10    5    6 ar  
    11    5   17 1   
    12    6   18 1   
    13    7    8 2   
    14    7   19 1   
    15    8    9 1   
    16    8   20 1   
    17    9   11 1   
    18    9   12 1   
    19   10   13 1   
    20   10   14 1   
@<TRIPOS>SUBSTRUCTURE
     1 CIN         1 TEMP              0 ****  ****    0 ROOT
