@<TRIPOS>MOLECULE
CIO
   49    51     1     0     0
SMALL
bcc


@<TRIPOS>ATOM
      1 O25         0.1040    0.3010   -0.2340 o         1 CIO     -0.842300
      2 C23         1.2160   -0.2980   -0.1920 c         1 CIO      0.917600
      3 O24         1.6710   -1.0190   -1.1240 o         1 CIO     -0.842300
      4 C4          2.0590   -0.1790    1.1010 c3        1 CIO     -0.187700
      5 C5          3.5430   -0.1800    0.7900 c3        1 CIO     -0.065400
      6 C6          4.3640   -0.1140    2.0620 c3        1 CIO     -0.064400
      7 C3          1.7010    1.0640    1.8890 c3        1 CIO     -0.065400
      8 C2          2.5130    1.1670    3.1640 c3        1 CIO     -0.064400
      9 C1          4.0310    1.1320    2.8990 c3        1 CIO      0.061400
     10 C21         4.4320    2.3290    2.1570 c1        1 CIO      0.247700
     11 N22         4.7610    3.2810    1.5760 n1        1 CIO     -0.410800
     12 C7          4.7570    1.1510    4.2270 ca        1 CIO     -0.064300
     13 C8          5.5370    0.0860    4.6760 ca        1 CIO     -0.115000
     14 C9          6.1700    0.1360    5.9200 ca        1 CIO     -0.185000
     15 C10         6.0270    1.2570    6.7360 ca        1 CIO      0.091100
     16 O11         6.5880    1.3960    7.9930 os        1 CIO     -0.309900
     17 C12         7.5240    0.3920    8.3620 c3        1 CIO      0.113700
     18 C13         5.2500    2.3530    6.2830 ca        1 CIO      0.096100
     19 C20         4.6270    2.2900    5.0370 ca        1 CIO     -0.162000
     20 O14         5.2110    3.4570    7.1140 os        1 CIO     -0.317900
     21 C15         4.0350    4.2770    7.0090 c3        1 CIO      0.138100
     22 C16         4.2420    5.4030    5.9890 c3        1 CIO     -0.096400
     23 C17         4.1410    6.7240    6.7380 c3        1 CIO     -0.076900
     24 C18         3.6450    6.4180    8.1450 c3        1 CIO     -0.076900
     25 C19         3.8510    4.9310    8.3840 c3        1 CIO     -0.096400
     26 H4          1.8150   -1.0870    1.7180 hc        1 CIO      0.028700
     27 H51         3.7860    0.6920    0.1290 hc        1 CIO      0.056200
     28 H52         3.7950   -1.1110    0.2190 hc        1 CIO      0.056200
     29 H61         4.1380   -1.0210    2.6820 hc        1 CIO      0.033950
     30 H62         5.4570   -0.1160    1.8190 hc        1 CIO      0.033950
     31 H31         1.8720    1.9690    1.2500 hc        1 CIO      0.056200
     32 H32         0.6070    1.0380    2.1350 hc        1 CIO      0.056200
     33 H21         2.2660    0.3050    3.8370 hc        1 CIO      0.033950
     34 H22         2.2560    2.1120    3.7070 hc        1 CIO      0.033950
     35 H8          5.6730   -0.8150    4.0580 ha        1 CIO      0.144000
     36 H9          6.7750   -0.7210    6.2480 ha        1 CIO      0.132000
     37 H121        7.0170   -0.5970    8.4760 h1        1 CIO      0.038033
     38 H122        8.3520    0.3210    7.6150 h1        1 CIO      0.038033
     39 H123        7.9140    0.7480    9.3490 h1        1 CIO      0.038033
     40 H20         4.0360    3.1470    4.6770 ha        1 CIO      0.150000
     41 H15         3.1490    3.6440    6.7390 h1        1 CIO      0.057700
     42 H161        3.4620    5.3430    5.1900 hc        1 CIO      0.058450
     43 H162        5.2420    5.2980    5.4980 hc        1 CIO      0.058450
     44 H171        5.1430    7.2190    6.7820 hc        1 CIO      0.038950
     45 H172        3.4450    7.4260    6.2150 hc        1 CIO      0.038950
     46 H181        2.5600    6.6770    8.2370 hc        1 CIO      0.038950
     47 H182        4.1990    7.0230    8.9040 hc        1 CIO      0.038950
     48 H191        4.7620    4.7490    9.0090 hc        1 CIO      0.058450
     49 H192        2.9780    4.4790    8.9130 hc        1 CIO      0.058450
@<TRIPOS>BOND
     1    1    2 1   
     2    2    3 1   
     3    2    4 1   
     4    4    5 1   
     5    4    7 1   
     6    4   26 1   
     7    5    6 1   
     8    5   27 1   
     9    5   28 1   
    10    6    9 1   
    11    6   29 1   
    12    6   30 1   
    13    7    8 1   
    14    7   31 1   
    15    7   32 1   
    16    8    9 1   
    17    8   33 1   
    18    8   34 1   
    19    9   10 1   
    20    9   12 1   
    21   10   11 3   
    22   12   13 ar  
    23   12   19 ar  
    24   13   14 ar  
    25   13   35 1   
    26   14   15 ar  
    27   14   36 1   
    28   15   16 1   
    29   15   18 ar  
    30   16   17 1   
    31   17   37 1   
    32   17   38 1   
    33   17   39 1   
    34   18   19 ar  
    35   18   20 1   
    36   19   40 1   
    37   20   21 1   
    38   21   22 1   
    39   21   25 1   
    40   21   41 1   
    41   22   23 1   
    42   22   42 1   
    43   22   43 1   
    44   23   24 1   
    45   23   44 1   
    46   23   45 1   
    47   24   25 1   
    48   24   46 1   
    49   24   47 1   
    50   25   48 1   
    51   25   49 1   
@<TRIPOS>SUBSTRUCTURE
     1 CIO         1 TEMP              0 ****  ****    0 ROOT
