@<TRIPOS>MOLECULE
CIO
   49    49     1     0     0
SMALL
bcc


@<TRIPOS>ATOM
      1 O25        -3.1760   -3.6110   -5.8770 o         1 CIO     -0.574500
      2 C23        -2.7890   -2.5140   -5.4230 c2        1 CIO      0.335000
      3 O24        -3.0550   -1.4750   -6.0210 o         1 CIO     -0.574500
      4 C4         -2.0010   -2.4600   -4.0720 c3        1 CIO     -0.179000
      5 C5         -0.6910   -1.6780   -4.2150 c3        1 CIO     -0.146000
      6 C6          0.0680   -1.5010   -2.8920 c3        1 CIO     -0.142000
      7 C3         -2.8420   -1.8520   -2.9720 c3        1 CIO     -0.146000
      8 C2         -2.0790   -1.6710   -1.6400 c3        1 CIO     -0.142000
      9 C1         -0.7740   -0.8900   -1.7830 c3        1 CIO      0.082000
     10 C21        -1.0050    0.6120   -1.9910 c1        1 CIO     -0.105000
     11 N22        -1.1740    1.7300   -2.1470 n1        1 CIO     -0.084000
     12 C7          0.0060   -0.8850   -0.4510 c2        1 CIO     -0.057000
     13 C8          0.9640   -1.8760   -0.1970 c2        1 CIO     -0.115000
     14 C9          1.6940   -1.8620    1.0070 c1        1 CIO     -0.183000
     15 C10         1.4640   -0.8530    1.9560 c1        1 CIO      0.045000
     16 O11         2.2240   -0.8210    3.1520 os        1 CIO     -0.194000
     17 C12         2.2430   -2.0680    3.8620 c3        1 CIO     -0.076000
     18 C13         0.5050    0.1410    1.7070 c1        1 CIO      0.044000
     19 C20        -0.2280    0.1260    0.4980 c1        1 CIO     -0.157000
     20 O14         0.2000    1.1190    2.7250 os        1 CIO     -0.204000
     21 C15         0.6200    2.3890    2.2960 c3        1 CIO      0.028000
     22 C16         1.9810    2.8520    3.1280 c3        1 CIO     -0.175500
     23 C17         2.0130    4.1850    3.0750 c3        1 CIO     -0.155000
     24 C18         0.4960    4.6280    2.9140 c3        1 CIO     -0.155000
     25 C19        -0.3080    3.2910    2.5730 c3        1 CIO     -0.175500
     26 H4         -1.8340   -3.4150   -3.9110 hc        1 CIO      0.073000
     27 H51        -0.8980   -0.7690   -4.5890 hc        1 CIO      0.093000
     28 H52        -0.1150   -2.1510   -4.8430 hc        1 CIO      0.093000
     29 H61         0.8780   -0.8910   -3.0610 hc        1 CIO      0.074000
     30 H62         0.3970   -2.3910   -2.5910 hc        1 CIO      0.074000
     31 H31        -3.6260   -2.4400   -2.8110 hc        1 CIO      0.093000
     32 H32        -3.1670   -0.9650   -3.2750 hc        1 CIO      0.093000
     33 H21        -2.6430   -1.2070   -1.0280 hc        1 CIO      0.074000
     34 H22        -1.8740   -2.5600   -1.2700 hc        1 CIO      0.074000
     35 H8          1.1150   -2.5860   -0.8500 ha        1 CIO      0.146000
     36 H9          2.2710   -2.6130    1.2310 ha        1 CIO      0.133000
     37 H121        2.5390   -1.9130    4.7980 h1        1 CIO      0.078000
     38 H122        2.8530   -2.6770    3.4280 h1        1 CIO      0.078000
     39 H123        1.3560   -2.4510    3.8660 h1        1 CIO      0.078000
     40 H20        -0.8590    0.8290    0.3090 ha        1 CIO      0.152000
     41 H15         0.7950    2.3770    1.3680 h1        1 CIO      0.098000
     42 H161        2.7840    2.4760    2.6980 hc        1 CIO      0.097750
     43 H162        1.9240    2.5440    4.0850 hc        1 CIO      0.097750
     44 H171        2.3780    4.5410    3.8810 hc        1 CIO      0.077500
     45 H172        2.5420    4.4860    2.2980 hc        1 CIO      0.077500
     46 H181        0.4070    5.2600    2.1960 hc        1 CIO      0.077500
     47 H182        0.1640    5.0150    3.7530 hc        1 CIO      0.077500
     48 H191       -0.8360    3.0070    3.3400 hc        1 CIO      0.097750
     49 H192       -0.9080    3.4370    1.7650 hc        1 CIO      0.097750
@<TRIPOS>BOND
     1    1    2 1   
     2    2    3 1   
     3    2    4 1   
     4    4    5 1   
     5    4    7 1   
     6    4   26 1   
     7    5    6 1   
     8    5   27 1   
     9    5   28 1   
    10    6    9 1   
    11    6   29 1   
    12    6   30 1   
    13    7    8 1   
    14    7   31 1   
    15    7   32 1   
    16    8    9 1   
    17    8   33 1   
    18    8   34 1   
    19    9   10 1   
    20    9   12 1   
    21   10   11 1   
    22   12   13 1   
    23   12   19 1   
    24   13   14 1   
    25   13   35 1   
    26   14   36 1   
    27   15   16 1   
    28   15   18 1   
    29   16   17 1   
    30   17   37 1   
    31   17   38 1   
    32   17   39 1   
    33   18   20 1   
    34   19   40 1   
    35   20   21 1   
    36   21   22 1   
    37   21   25 1   
    38   21   41 1   
    39   22   23 1   
    40   22   42 1   
    41   22   43 1   
    42   23   24 1   
    43   23   44 1   
    44   23   45 1   
    45   24   25 1   
    46   24   46 1   
    47   24   47 1   
    48   25   48 1   
    49   25   49 1   
@<TRIPOS>SUBSTRUCTURE
     1 CIO         1 TEMP              0 ****  ****    0 ROOT
