@<TRIPOS>MOLECULE
CIO
   49    51     1     0     0
SMALL
bcc


@<TRIPOS>ATOM
      1 O25        -1.3730   -1.1150   -6.0030 o         1 CIO     -0.842300
      2 C23        -0.2550   -0.5810   -5.7580 c         1 CIO      0.917600
      3 O24         0.4890   -0.0540   -6.6320 o         1 CIO     -0.842300
      4 C4          0.2630   -0.6120   -4.2980 c3        1 CIO     -0.187700
      5 C5          1.0590    0.6350   -3.9720 c3        1 CIO     -0.065400
      6 C6          1.6060    0.5770   -2.5600 c3        1 CIO     -0.064400
      7 C3         -0.8710   -0.7710   -3.3070 c3        1 CIO     -0.065400
      8 C2         -0.3600   -0.8220   -1.8820 c3        1 CIO     -0.064400
      9 C1          0.4890    0.4120   -1.5170 c3        1 CIO      0.061400
     10 C21        -0.3520    1.6110   -1.5210 c1        1 CIO      0.247700
     11 N22        -1.0140    2.5670   -1.5130 n1        1 CIO     -0.410800
     12 C7          1.0270    0.2340   -0.1140 ca        1 CIO     -0.064300
     13 C8          2.3880    0.1110    0.1630 ca        1 CIO     -0.115000
     14 C9          2.8400   -0.0770    1.4720 ca        1 CIO     -0.185000
     15 C10         1.9290   -0.1460    2.5260 ca        1 CIO      0.091100
     16 O11         2.2680   -0.3550    3.8500 os        1 CIO     -0.309900
     17 C12         3.6580   -0.2950    4.1450 c3        1 CIO      0.113700
     18 C13         0.5430   -0.0040    2.2580 ca        1 CIO      0.096100
     19 C20         0.1090    0.1860    0.9480 ca        1 CIO     -0.162000
     20 O14        -0.2920   -0.0130    3.3590 os        1 CIO     -0.317900
     21 C15        -1.6350   -0.4680    3.1200 c3        1 CIO      0.138100
     22 C16        -2.5600    0.7080    2.7800 c3        1 CIO     -0.096400
     23 C17        -3.6190    0.7880    3.8690 c3        1 CIO     -0.076900
     24 C18        -3.4860   -0.4600    4.7320 c3        1 CIO     -0.076900
     25 C19        -2.1220   -1.0660    4.4450 c3        1 CIO     -0.096400
     26 H4          0.9410   -1.5070   -4.2260 hc        1 CIO      0.028700
     27 H51         0.4070    1.5380   -4.0960 hc        1 CIO      0.056200
     28 H52         1.9020    0.7320   -4.7060 hc        1 CIO      0.056200
     29 H61         2.1930    1.5040   -2.3320 hc        1 CIO      0.033950
     30 H62         2.2930   -0.3060   -2.4780 hc        1 CIO      0.033950
     31 H31        -1.4340   -1.7120   -3.5430 hc        1 CIO      0.056200
     32 H32        -1.5890    0.0810   -3.4280 hc        1 CIO      0.056200
     33 H21         0.2850   -1.7290   -1.7460 hc        1 CIO      0.033950
     34 H22        -1.2200   -0.9010   -1.1680 hc        1 CIO      0.033950
     35 H8          3.1350    0.1610   -0.6430 ha        1 CIO      0.144000
     36 H9          3.9180   -0.1750    1.6580 ha        1 CIO      0.132000
     37 H121        3.6920   -0.3920    5.2600 h1        1 CIO      0.038033
     38 H122        4.1990   -1.1450    3.6620 h1        1 CIO      0.038033
     39 H123        4.0950    0.6800    3.8210 h1        1 CIO      0.038033
     40 H20        -0.9660    0.3120    0.7410 ha        1 CIO      0.150000
     41 H15        -1.6400   -1.2360    2.3020 h1        1 CIO      0.057700
     42 H161       -1.9690    1.6570    2.7250 hc        1 CIO      0.058450
     43 H162       -3.0340    0.5430    1.7800 hc        1 CIO      0.058450
     44 H171       -4.6430    0.8570    3.4250 hc        1 CIO      0.038950
     45 H172       -3.4620    1.7050    4.4910 hc        1 CIO      0.038950
     46 H181       -4.2950   -1.1920    4.4790 hc        1 CIO      0.038950
     47 H182       -3.5900   -0.2090    5.8160 hc        1 CIO      0.038950
     48 H191       -2.1780   -2.1790    4.3700 hc        1 CIO      0.058450
     49 H192       -1.3940   -0.8140    5.2590 hc        1 CIO      0.058450
@<TRIPOS>BOND
     1    1    2 1   
     2    2    3 1   
     3    2    4 1   
     4    4    5 1   
     5    4    7 1   
     6    4   26 1   
     7    5    6 1   
     8    5   27 1   
     9    5   28 1   
    10    6    9 1   
    11    6   29 1   
    12    6   30 1   
    13    7    8 1   
    14    7   31 1   
    15    7   32 1   
    16    8    9 1   
    17    8   33 1   
    18    8   34 1   
    19    9   10 1   
    20    9   12 1   
    21   10   11 3   
    22   12   13 ar  
    23   12   19 ar  
    24   13   14 ar  
    25   13   35 1   
    26   14   15 ar  
    27   14   36 1   
    28   15   16 1   
    29   15   18 ar  
    30   16   17 1   
    31   17   37 1   
    32   17   38 1   
    33   17   39 1   
    34   18   19 ar  
    35   18   20 1   
    36   19   40 1   
    37   20   21 1   
    38   21   22 1   
    39   21   25 1   
    40   21   41 1   
    41   22   23 1   
    42   22   42 1   
    43   22   43 1   
    44   23   24 1   
    45   23   44 1   
    46   23   45 1   
    47   24   25 1   
    48   24   46 1   
    49   24   47 1   
    50   25   48 1   
    51   25   49 1   
@<TRIPOS>SUBSTRUCTURE
     1 CIO         1 TEMP              0 ****  ****    0 ROOT
