@<TRIPOS>MOLECULE
CIO
   49    51     1     0     0
SMALL
bcc


@<TRIPOS>ATOM
      1 O25         0.1060    0.2910   -0.2320 o         1 CIO     -0.842300
      2 C23         1.2200   -0.3030   -0.1920 c         1 CIO      0.917600
      3 O24         1.6780   -1.0210   -1.1250 o         1 CIO     -0.842300
      4 C4          2.0640   -0.1820    1.1010 c3        1 CIO     -0.187700
      5 C5          3.5470   -0.1780    0.7890 c3        1 CIO     -0.065400
      6 C6          4.3700   -0.1110    2.0610 c3        1 CIO     -0.064400
      7 C3          1.7020    1.0590    1.8900 c3        1 CIO     -0.065400
      8 C2          2.5150    1.1630    3.1640 c3        1 CIO     -0.064400
      9 C1          4.0330    1.1330    2.8980 c3        1 CIO      0.061400
     10 C21         4.4300    2.3320    2.1570 c1        1 CIO      0.247700
     11 N22         4.7560    3.2850    1.5760 n1        1 CIO     -0.410800
     12 C7          4.7600    1.1530    4.2260 ca        1 CIO     -0.064300
     13 C8          5.5440    0.0910    4.6730 ca        1 CIO     -0.115000
     14 C9          6.1770    0.1410    5.9170 ca        1 CIO     -0.185000
     15 C10         6.0310    1.2620    6.7350 ca        1 CIO      0.091100
     16 O11         6.5920    1.4010    7.9910 os        1 CIO     -0.309900
     17 C12         7.5330    0.4010    8.3580 c3        1 CIO      0.113700
     18 C13         5.2500    2.3560    6.2820 ca        1 CIO      0.096100
     19 C20         4.6270    2.2920    5.0370 ca        1 CIO     -0.162000
     20 O14         5.2080    3.4580    7.1150 os        1 CIO     -0.317900
     21 C15         4.0290    4.2750    7.0110 c3        1 CIO      0.138100
     22 C16         4.2320    5.4030    5.9920 c3        1 CIO     -0.096400
     23 C17         4.1270    6.7220    6.7420 c3        1 CIO     -0.076900
     24 C18         3.6330    6.4130    8.1490 c3        1 CIO     -0.076900
     25 C19         3.8440    4.9270    8.3870 c3        1 CIO     -0.096400
     26 H4          1.8230   -1.0920    1.7180 hc        1 CIO      0.028700
     27 H51         3.7880    0.6940    0.1280 hc        1 CIO      0.056200
     28 H52         3.8020   -1.1090    0.2170 hc        1 CIO      0.056200
     29 H61         5.4630   -0.1100    1.8170 hc        1 CIO      0.033950
     30 H62         4.1460   -1.0200    2.6800 hc        1 CIO      0.033950
     31 H31         1.8710    1.9650    1.2510 hc        1 CIO      0.056200
     32 H32         0.6090    1.0290    2.1370 hc        1 CIO      0.056200
     33 H21         2.2560    2.1080    3.7080 hc        1 CIO      0.033950
     34 H22         2.2710    0.3000    3.8370 hc        1 CIO      0.033950
     35 H8          5.6820   -0.8090    4.0550 ha        1 CIO      0.144000
     36 H9          6.7860   -0.7130    6.2440 ha        1 CIO      0.132000
     37 H121        7.9220    0.7570    9.3450 h1        1 CIO      0.038033
     38 H122        7.0290   -0.5910    8.4720 h1        1 CIO      0.038033
     39 H123        8.3600    0.3330    7.6100 h1        1 CIO      0.038033
     40 H20         4.0330    3.1470    4.6780 ha        1 CIO      0.150000
     41 H15         3.1450    3.6390    6.7410 h1        1 CIO      0.057700
     42 H161        3.4510    5.3400    5.1930 hc        1 CIO      0.058450
     43 H162        5.2320    5.3000    5.5000 hc        1 CIO      0.058450
     44 H171        3.4280    7.4220    6.2210 hc        1 CIO      0.038950
     45 H172        5.1280    7.2210    6.7850 hc        1 CIO      0.038950
     46 H181        2.5470    6.6690    8.2420 hc        1 CIO      0.038950
     47 H182        4.1860    7.0190    8.9080 hc        1 CIO      0.038950
     48 H191        2.9720    4.4710    8.9160 hc        1 CIO      0.058450
     49 H192        4.7560    4.7470    9.0120 hc        1 CIO      0.058450
@<TRIPOS>BOND
     1    1    2 1   
     2    2    3 1   
     3    2    4 1   
     4    4    5 1   
     5    4    7 1   
     6    4   26 1   
     7    5    6 1   
     8    5   27 1   
     9    5   28 1   
    10    6    9 1   
    11    6   29 1   
    12    6   30 1   
    13    7    8 1   
    14    7   31 1   
    15    7   32 1   
    16    8    9 1   
    17    8   33 1   
    18    8   34 1   
    19    9   10 1   
    20    9   12 1   
    21   10   11 3   
    22   12   13 ar  
    23   12   19 ar  
    24   13   14 ar  
    25   13   35 1   
    26   14   15 ar  
    27   14   36 1   
    28   15   16 1   
    29   15   18 ar  
    30   16   17 1   
    31   17   37 1   
    32   17   38 1   
    33   17   39 1   
    34   18   19 ar  
    35   18   20 1   
    36   19   40 1   
    37   20   21 1   
    38   21   22 1   
    39   21   25 1   
    40   21   41 1   
    41   22   23 1   
    42   22   42 1   
    43   22   43 1   
    44   23   24 1   
    45   23   44 1   
    46   23   45 1   
    47   24   25 1   
    48   24   46 1   
    49   24   47 1   
    50   25   48 1   
    51   25   49 1   
@<TRIPOS>SUBSTRUCTURE
     1 CIO         1 TEMP              0 ****  ****    0 ROOT
