@<TRIPOS>MOLECULE
CIO
   49    51     1     0     0
SMALL
bcc


@<TRIPOS>ATOM
      1 O25         0.0950    0.3090   -0.2330 o         1 CIO     -0.842300
      2 C23         1.2050   -0.2930   -0.1920 c         1 CIO      0.917600
      3 O24         1.6570   -1.0160   -1.1240 o         1 CIO     -0.842300
      4 C4          2.0500   -0.1760    1.1010 c3        1 CIO     -0.187700
      5 C5          3.5330   -0.1800    0.7890 c3        1 CIO     -0.065400
      6 C6          4.3550   -0.1150    2.0600 c3        1 CIO     -0.064400
      7 C3          1.6940    1.0690    1.8890 c3        1 CIO     -0.065400
      8 C2          2.5080    1.1700    3.1620 c3        1 CIO     -0.064400
      9 C1          4.0260    1.1310    2.8960 c3        1 CIO      0.061400
     10 C21         4.4290    2.3270    2.1530 c1        1 CIO      0.247700
     11 N22         4.7600    3.2780    1.5710 n1        1 CIO     -0.410800
     12 C7          4.7530    1.1490    4.2230 ca        1 CIO     -0.064300
     13 C8          5.5310    0.0830    4.6720 ca        1 CIO     -0.115000
     14 C9          6.1650    0.1310    5.9160 ca        1 CIO     -0.185000
     15 C10         6.0250    1.2530    6.7320 ca        1 CIO      0.091100
     16 O11         6.5870    1.3910    7.9890 os        1 CIO     -0.309900
     17 C12         7.5220    0.3860    8.3570 c3        1 CIO      0.113700
     18 C13         5.2490    2.3510    6.2790 ca        1 CIO      0.096100
     19 C20         4.6260    2.2890    5.0340 ca        1 CIO     -0.162000
     20 O14         5.2140    3.4550    7.1100 os        1 CIO     -0.317900
     21 C15         4.0380    4.2770    7.0060 c3        1 CIO      0.138100
     22 C16         4.2450    5.4030    5.9870 c3        1 CIO     -0.096400
     23 C17         4.1450    6.7230    6.7350 c3        1 CIO     -0.076900
     24 C18         3.6520    6.4170    8.1430 c3        1 CIO     -0.076900
     25 C19         3.8560    4.9300    8.3820 c3        1 CIO     -0.096400
     26 H4          1.8030   -1.0830    1.7180 hc        1 CIO      0.028700
     27 H51         3.7820   -1.1130    0.2180 hc        1 CIO      0.056200
     28 H52         3.7780    0.6910    0.1270 hc        1 CIO      0.056200
     29 H61         4.1270   -1.0220    2.6800 hc        1 CIO      0.033950
     30 H62         5.4480   -0.1210    1.8160 hc        1 CIO      0.033950
     31 H31         1.8680    1.9730    1.2480 hc        1 CIO      0.056200
     32 H32         0.6010    1.0450    2.1350 hc        1 CIO      0.056200
     33 H21         2.2530    2.1170    3.7050 hc        1 CIO      0.033950
     34 H22         2.2590    0.3090    3.8370 hc        1 CIO      0.033950
     35 H8          5.6650   -0.8180    4.0550 ha        1 CIO      0.144000
     36 H9          6.7690   -0.7260    6.2440 ha        1 CIO      0.132000
     37 H121        7.9120    0.7410    9.3440 h1        1 CIO      0.038033
     38 H122        8.3480    0.3120    7.6090 h1        1 CIO      0.038033
     39 H123        7.0120   -0.6020    8.4710 h1        1 CIO      0.038033
     40 H20         4.0360    3.1470    4.6740 ha        1 CIO      0.150000
     41 H15         3.1510    3.6440    6.7370 h1        1 CIO      0.057700
     42 H161        5.2450    5.2960    5.4950 hc        1 CIO      0.058450
     43 H162        3.4650    5.3430    5.1880 hc        1 CIO      0.058450
     44 H171        3.4490    7.4250    6.2140 hc        1 CIO      0.038950
     45 H172        5.1480    7.2180    6.7780 hc        1 CIO      0.038950
     46 H181        2.5670    6.6780    8.2370 hc        1 CIO      0.038950
     47 H182        4.2070    7.0220    8.9020 hc        1 CIO      0.038950
     48 H191        2.9830    4.4790    8.9120 hc        1 CIO      0.058450
     49 H192        4.7680    4.7480    9.0060 hc        1 CIO      0.058450
@<TRIPOS>BOND
     1    1    2 1   
     2    2    3 1   
     3    2    4 1   
     4    4    5 1   
     5    4    7 1   
     6    4   26 1   
     7    5    6 1   
     8    5   27 1   
     9    5   28 1   
    10    6    9 1   
    11    6   29 1   
    12    6   30 1   
    13    7    8 1   
    14    7   31 1   
    15    7   32 1   
    16    8    9 1   
    17    8   33 1   
    18    8   34 1   
    19    9   10 1   
    20    9   12 1   
    21   10   11 3   
    22   12   13 ar  
    23   12   19 ar  
    24   13   14 ar  
    25   13   35 1   
    26   14   15 ar  
    27   14   36 1   
    28   15   16 1   
    29   15   18 ar  
    30   16   17 1   
    31   17   37 1   
    32   17   38 1   
    33   17   39 1   
    34   18   19 ar  
    35   18   20 1   
    36   19   40 1   
    37   20   21 1   
    38   21   22 1   
    39   21   25 1   
    40   21   41 1   
    41   22   23 1   
    42   22   42 1   
    43   22   43 1   
    44   23   24 1   
    45   23   44 1   
    46   23   45 1   
    47   24   25 1   
    48   24   46 1   
    49   24   47 1   
    50   25   48 1   
    51   25   49 1   
@<TRIPOS>SUBSTRUCTURE
     1 CIO         1 TEMP              0 ****  ****    0 ROOT
