@<TRIPOS>MOLECULE
CIP
   28    29     1     0     0
SMALL
bcc


@<TRIPOS>ATOM
      1 C1          0.5180   -1.0360   -0.3250 c3        1 CIP      0.179100
      2 C2         -0.9860   -0.7600   -0.0710 c3        1 CIP     -0.082700
      3 C3         -1.3530   -0.4500    1.3770 c3        1 CIP      0.165100
      4 C4         -0.3410    0.5010    2.0300 c3        1 CIP      0.072100
      5 C5          1.0250   -0.1880    2.0440 c3        1 CIP      0.075100
      6 C6          1.5430   -0.3540    0.6090 c3        1 CIP      0.137100
      7 C7         -1.4380    0.3120   -1.0490 c3        1 CIP     -0.406600
      8 O1          0.7900   -0.6310   -1.6530 os        1 CIP     -0.541200
      9 O3         -2.6480    0.1290    1.3710 oh        1 CIP     -0.595800
     10 O4         -0.7960    0.7280    3.3570 oh        1 CIP     -0.607800
     11 O5          1.9780    0.6190    2.7200 oh        1 CIP     -0.602800
     12 O6          2.6700   -1.2170    0.6270 oh        1 CIP     -0.586800
     13 P          -0.3820    0.2930   -2.3080 p5        1 CIP      1.536300
     14 O1P        -0.7810   -0.0600   -3.6590 o         1 CIP     -0.821300
     15 O2P         0.3180    1.7330   -2.3340 oh        1 CIP     -0.782400
     16 H1          0.7140   -2.1490   -0.2760 h1        1 CIP      0.098700
     17 H2         -1.5370   -1.7160   -0.3210 hc        1 CIP      0.081700
     18 H3         -1.3810   -1.4090    1.9720 h1        1 CIP      0.055700
     19 H4         -0.2890    1.4740    1.4690 h1        1 CIP      0.066700
     20 H5          0.9490   -1.1930    2.5460 h1        1 CIP      0.066700
     21 H6          1.8440    0.6530    0.2050 h1        1 CIP      0.071700
     22 H71        -1.4770    1.3040   -0.5240 hc        1 CIP      0.134700
     23 H72        -2.5030    0.1140   -1.3380 hc        1 CIP      0.134700
     24 HO3        -2.8470    0.3600    2.2900 ho        1 CIP      0.425000
     25 HO4        -0.3160    1.4990    3.6840 ho        1 CIP      0.416000
     26 HO5         1.8130    0.5080    3.6650 ho        1 CIP      0.412000
     27 HO6         3.3650   -0.7430    1.1030 ho        1 CIP      0.418000
     28 HOP2        0.6260    2.0330   -3.1860 ho        1 CIP      0.481000
@<TRIPOS>BOND
     1    1    2 1   
     2    1    6 1   
     3    1    8 1   
     4    1   16 1   
     5    2    3 1   
     6    2    7 1   
     7    2   17 1   
     8    3    4 1   
     9    3    9 1   
    10    3   18 1   
    11    4    5 1   
    12    4   10 1   
    13    4   19 1   
    14    5    6 1   
    15    5   11 1   
    16    5   20 1   
    17    6   12 1   
    18    6   21 1   
    19    7   13 1   
    20    7   22 1   
    21    7   23 1   
    22    8   13 1   
    23    9   24 1   
    24   10   25 1   
    25   11   26 1   
    26   12   27 1   
    27   13   14 2   
    28   13   15 1   
    29   15   28 1   
@<TRIPOS>SUBSTRUCTURE
     1 CIP         1 TEMP              0 ****  ****    0 ROOT
