@<TRIPOS>MOLECULE
CIP
   28    29     1     0     0
SMALL
bcc


@<TRIPOS>ATOM
      1 C1         -0.1010   -0.1880   -0.0120 c3        1 CIP      0.137100
      2 C2          1.4300    0.0060   -0.0750 c3        1 CIP     -0.081700
      3 C3          2.1240    0.0310    1.2820 c3        1 CIP      0.165100
      4 C4          1.5830   -1.0230    2.2600 c3        1 CIP      0.110100
      5 C5          0.0750   -0.8150    2.4470 c3        1 CIP      0.116100
      6 C6         -0.6340   -1.0910    1.1170 c3        1 CIP      0.097100
      7 C7          1.9750   -1.0300   -1.0440 c3        1 CIP     -0.407600
      8 O1         -0.4980   -0.7410   -1.2540 os        1 CIP     -0.554200
      9 O3          3.5070   -0.1830    1.0460 oh        1 CIP     -0.597800
     10 O4          2.2820   -0.8200    3.4770 oh        1 CIP     -0.609800
     11 O5         -0.3390   -1.7400    3.4380 oh        1 CIP     -0.608800
     12 O6         -2.0090   -0.8190    1.3380 oh        1 CIP     -0.607800
     13 P           0.7660   -1.3180   -2.1190 p5        1 CIP      1.539300
     14 O1P         0.8160   -0.8800   -3.5030 o         1 CIP     -0.820300
     15 O2P         0.4720   -2.8900   -2.0820 oh        1 CIP     -0.781400
     16 H1         -0.6130    0.8160    0.0840 h1        1 CIP      0.089700
     17 H2          1.6130    1.0220   -0.5340 hc        1 CIP      0.080700
     18 H3          1.9840    1.0500    1.7490 h1        1 CIP      0.055700
     19 H4          1.7880   -2.0620    1.8820 h1        1 CIP      0.062700
     20 H5         -0.1440    0.2310    2.7980 h1        1 CIP      0.065700
     21 H6         -0.5170   -2.1810    0.8520 h1        1 CIP      0.066700
     22 H71         2.2950   -1.9440   -0.4750 hc        1 CIP      0.137200
     23 H72         2.9250   -0.6420   -1.4960 hc        1 CIP      0.137200
     24 HO3         3.9310   -0.2130    1.9150 ho        1 CIP      0.429000
     25 HO4         1.8580   -1.3810    4.1400 ho        1 CIP      0.435000
     26 HO5        -1.3030   -1.6820    3.4860 ho        1 CIP      0.432000
     27 HO6        -2.4570   -0.9490    0.4910 ho        1 CIP      0.429000
     28 HOP2        0.1470   -3.2750   -2.8930 ho        1 CIP      0.482000
@<TRIPOS>BOND
     1    1    2 1   
     2    1    6 1   
     3    1    8 1   
     4    1   16 1   
     5    2    3 1   
     6    2    7 1   
     7    2   17 1   
     8    3    4 1   
     9    3    9 1   
    10    3   18 1   
    11    4    5 1   
    12    4   10 1   
    13    4   19 1   
    14    5    6 1   
    15    5   11 1   
    16    5   20 1   
    17    6   12 1   
    18    6   21 1   
    19    7   13 1   
    20    7   22 1   
    21    7   23 1   
    22    8   13 1   
    23    9   24 1   
    24   10   25 1   
    25   11   26 1   
    26   12   27 1   
    27   13   14 2   
    28   13   15 1   
    29   15   28 1   
@<TRIPOS>SUBSTRUCTURE
     1 CIP         1 TEMP              0 ****  ****    0 ROOT
