@<TRIPOS>MOLECULE
CIP
   28    29     1     0     0
SMALL
bcc


@<TRIPOS>ATOM
      1 C1         -0.9460    0.9080   -0.6970 c3        1 CIP      0.137100
      2 C2          0.7240    0.9080   -0.6970 c3        1 CIP     -0.081700
      3 C3          1.3200    0.9080    0.7360 c3        1 CIP      0.165100
      4 C4          0.7400   -0.1680    1.6030 c3        1 CIP      0.110100
      5 C5         -0.9040   -0.1550    1.6140 c3        1 CIP      0.116100
      6 C6         -1.5110   -0.1730    0.1960 c3        1 CIP      0.097100
      7 C7          1.1410   -0.1350   -1.4170 c3        1 CIP     -0.407600
      8 O1         -1.3310    0.6240   -1.8840 os        1 CIP     -0.554200
      9 O3          2.7190    0.7180    0.6490 oh        1 CIP     -0.597800
     10 O4          1.1920    0.0040    2.8820 oh        1 CIP     -0.609800
     11 O5         -1.3420   -1.2320    2.2870 oh        1 CIP     -0.608800
     12 O6         -2.9090    0.0060    0.2970 oh        1 CIP     -0.607800
     13 P          -0.1530   -0.3220   -2.5320 p5        1 CIP      1.539300
     14 O1P         0.2000    0.0380   -3.9240 o         1 CIP     -0.820300
     15 O2P        -0.6040   -1.8300   -2.6870 oh        1 CIP     -0.781400
     16 H1         -1.2860    1.7830   -0.4300 h1        1 CIP      0.089700
     17 H2          1.0250    1.7210   -1.1460 hc        1 CIP      0.080700
     18 H3          1.1440    1.7740    1.1500 h1        1 CIP      0.055700
     19 H4          1.0450   -1.0350    1.2740 h1        1 CIP      0.062700
     20 H5         -1.2090    0.6490    2.0760 h1        1 CIP      0.065700
     21 H6         -1.3330   -1.0420   -0.2120 h1        1 CIP      0.066700
     22 H71         1.9930    0.0180   -1.8680 hc        1 CIP      0.137200
     23 H72         1.3250   -0.9290   -0.8800 hc        1 CIP      0.137200
     24 HO3         3.1350    1.4520    0.9250 ho        1 CIP      0.429000
     25 HO4         1.5870   -0.7410    3.1580 ho        1 CIP      0.435000
     26 HO5        -1.7760   -0.9690    3.0150 ho        1 CIP      0.432000
     27 HO6        -3.3210   -0.7450    0.0620 ho        1 CIP      0.429000
     28 HOP2       -0.6640   -2.0340   -3.5490 ho        1 CIP      0.482000
@<TRIPOS>BOND
     1    1    2 1   
     2    1    6 1   
     3    1    8 1   
     4    1   16 1   
     5    2    3 1   
     6    2    7 1   
     7    2   17 1   
     8    3    4 1   
     9    3    9 1   
    10    3   18 1   
    11    4    5 1   
    12    4   10 1   
    13    4   19 1   
    14    5    6 1   
    15    5   11 1   
    16    5   20 1   
    17    6   12 1   
    18    6   21 1   
    19    7   13 1   
    20    7   22 1   
    21    7   23 1   
    22    8   13 1   
    23    9   24 1   
    24   10   25 1   
    25   11   26 1   
    26   12   27 1   
    27   13   14 2   
    28   13   15 1   
    29   15   28 1   
@<TRIPOS>SUBSTRUCTURE
     1 CIP         1 TEMP              0 ****  ****    0 ROOT
