@<TRIPOS>MOLECULE
CIP
   28    29     1     0     0
SMALL
bcc


@<TRIPOS>ATOM
      1 C1         -0.0970   -0.2330    0.0350 c3        1 CIP      0.137100
      2 C2          1.4300   -0.0170   -0.0530 c3        1 CIP     -0.081700
      3 C3          2.1550   -0.0430    1.2880 c3        1 CIP      0.165100
      4 C4          1.6490   -1.1470    2.2290 c3        1 CIP      0.110100
      5 C5          0.1430   -0.9680    2.4590 c3        1 CIP      0.116100
      6 C6         -0.5930   -1.1940    1.1340 c3        1 CIP      0.097100
      7 C7          1.9650   -1.0010   -1.0800 c3        1 CIP     -0.407600
      8 O1         -0.5150   -0.7350   -1.2210 os        1 CIP     -0.554200
      9 O3          3.5340   -0.2290    1.0120 oh        1 CIP     -0.597800
     10 O4          2.3730   -0.9890    3.4380 oh        1 CIP     -0.609800
     11 O5         -0.2370   -1.9420    3.4160 oh        1 CIP     -0.608800
     12 O6         -1.9660   -0.9490    1.3980 oh        1 CIP     -0.607800
     13 P           0.7360   -1.2550   -2.1400 p5        1 CIP      1.539300
     14 O1P         0.7490   -0.7550   -3.5030 o         1 CIP     -0.820300
     15 O2P         0.4620   -2.8310   -2.1670 oh        1 CIP     -0.781400
     16 H1         -0.6180    0.7580    0.1880 h1        1 CIP      0.089700
     17 H2          1.5900    1.0210   -0.4700 hc        1 CIP      0.080700
     18 H3          2.0130    0.9520    1.8040 h1        1 CIP      0.055700
     19 H4          1.8580   -2.1660    1.8000 h1        1 CIP      0.062700
     20 H5         -0.0810    0.0590    2.8610 h1        1 CIP      0.065700
     21 H6         -0.4680   -2.2680    0.8170 h1        1 CIP      0.066700
     22 H71         2.3090   -1.9350   -0.5600 hc        1 CIP      0.137200
     23 H72         2.9000   -0.5800   -1.5340 hc        1 CIP      0.137200
     24 HO3         3.9780   -0.2910    1.8690 ho        1 CIP      0.429000
     25 HO4         1.9710   -1.5850    4.0850 ho        1 CIP      0.435000
     26 HO5        -1.2000   -1.8990    3.4880 ho        1 CIP      0.432000
     27 HO6        -2.4300   -1.0480    0.5560 ho        1 CIP      0.429000
     28 HOP2        0.1230   -3.1840   -2.9880 ho        1 CIP      0.482000
@<TRIPOS>BOND
     1    1    2 1   
     2    1    6 1   
     3    1    8 1   
     4    1   16 1   
     5    2    3 1   
     6    2    7 1   
     7    2   17 1   
     8    3    4 1   
     9    3    9 1   
    10    3   18 1   
    11    4    5 1   
    12    4   10 1   
    13    4   19 1   
    14    5    6 1   
    15    5   11 1   
    16    5   20 1   
    17    6   12 1   
    18    6   21 1   
    19    7   13 1   
    20    7   22 1   
    21    7   23 1   
    22    8   13 1   
    23    9   24 1   
    24   10   25 1   
    25   11   26 1   
    26   12   27 1   
    27   13   14 2   
    28   13   15 1   
    29   15   28 1   
@<TRIPOS>SUBSTRUCTURE
     1 CIP         1 TEMP              0 ****  ****    0 ROOT
