@<TRIPOS>MOLECULE
CIQ
   85    76     1     0     0
SMALL
bcc


@<TRIPOS>ATOM
      1 N1         -0.0400    0.3250   -0.3130 n2        1 CIQ     -0.134000
      2 C2          1.3300    0.5580   -0.3250 c2        1 CIQ      0.045000
      3 N3          2.0860    0.7630    0.7690 n2        1 CIQ     -0.088000
      4 C4          1.4660    0.7370    1.9910 ca        1 CIQ      0.022000
      5 C5          0.0560    0.4940    2.1270 ca        1 CIQ     -0.081000
      6 C6         -0.6380    0.2980    0.8800 c2        1 CIQ     -0.031000
      7 CAA        -2.7250    0.2120    6.6780 c1        1 CIQ     -0.048000
      8 CAB        -6.5390   -2.9330   -1.9080 c2        1 CIQ     -0.213000
      9 CAC        -5.3400   -0.9250   -2.7390 c3        1 CIQ     -0.184000
     10 CAD         2.2430    0.9530    3.1800 ca        1 CIQ     -0.085000
     11 CAE        -0.5470    0.4630    3.4040 ca        1 CIQ     -0.290000
     12 CAF         6.2330    2.1650   -4.0420 c2        1 CIQ     -0.209000
     13 CAG         1.9600   -1.7950   -2.8280 c1        1 CIQ     -0.202000
     14 CAH         5.5810    2.4330   -2.9050 c2        1 CIQ     -0.244000
     15 CAI         5.6990   -3.1010    9.3460 c3        1 CIQ     -0.150000
     16 CAJ         5.9100   -1.8760   10.0600 c1        1 CIQ     -0.208000
     17 CAK         4.2130    1.5960    6.8510 c3        1 CIQ     -0.252000
     18 CAL         3.6140    1.3740    5.5130 c1        1 CIQ      0.014000
     19 CAM         1.9600   -0.7210   -2.3000 c1        1 CIQ     -0.170000
     20 CAN         5.0910    1.5210   -1.9470 c1        1 CIQ     -0.049000
     21 CAO        -6.0870    0.4700    1.4060 c3        1 CIQ     -0.251000
     22 CAP        -2.1170   -3.6650   -1.4510 c1        1 CIQ     -0.229000
     23 CAQ         5.8770   -3.1080    7.9090 c1        1 CIQ     -0.042000
     24 CAR         6.0790   -0.8500   10.6530 c1        1 CIQ     -0.205000
     25 CAS         5.6330    1.0200    6.8580 c3        1 CIQ     -0.052000
     26 CAT        -5.6590   -0.2790    0.2030 c1        1 CIQ     -0.186000
     27 CAU        -1.1840   -2.9720   -1.7340 c1        1 CIQ     -0.229000
     28 NAX        -2.1000    0.0490    0.9380 n4        1 CIQ      0.042000
     29 CBA         0.2160    0.6700    4.5440 ca        1 CIQ      0.188000
     30 CBB         1.6300    0.9190    4.4040 ca        1 CIQ      0.065000
     31 CBG        -6.1410   -1.6630   -1.7170 c2        1 CIQ     -0.021000
     32 CBH        -2.8100   -0.0700   -0.3530 c3        1 CIQ     -0.305000
     33 CBI         1.9930    0.5760   -1.6970 c3        1 CIQ     -0.029000
     34 NBJ         6.3480    1.3440    8.0680 n3        1 CIQ     -0.358000
     35 NBK        -6.5090   -0.9460   -0.5320 n3        1 CIQ     -0.126000
     36 HAA        -3.3470    1.0440    7.0300 ha        1 CIQ      0.062500
     37 HAAA       -1.2650    0.4620    5.8170 ho        1 CIQ      0.291000
     38 HAAB       -2.9250   -0.7400    7.1840 ha        1 CIQ      0.062500
     39 HAB        -5.1810   -5.0050   -1.2500 ha        1 CIQ      0.002800
     40 HABA       -4.8550   -5.5720   -1.0750 ha        1 CIQ      0.002800
     41 HABB       -6.2800   -3.4710   -2.8300 ha        1 CIQ      0.140500
     42 HAC        -5.0470   -1.6160   -3.5670 hc        1 CIQ      0.099667
     43 HACA       -5.9420   -0.0860   -3.1720 hc        1 CIQ      0.099667
     44 HACB       -4.4110   -0.4960   -2.2870 hc        1 CIQ      0.099667
     45 HAD         3.3310    1.1440    3.1060 ha        1 CIQ      0.215000
     46 HAE        -1.6210    0.2710    3.5270 ha        1 CIQ      0.124000
     47 HAF         5.2060   -0.3610   -3.1940 ha        1 CIQ      0.002800
     48 HAFA        4.5500   -0.3860   -3.0050 ha        1 CIQ      0.002800
     49 HAG         1.9800   -2.7440   -3.3030 ha        1 CIQ      0.232000
     50 HAGA        6.5310    1.1470   -4.3280 ha        1 CIQ      0.122000
     51 HAH         6.4630    2.9440   -4.7790 ha        1 CIQ      0.122000
     52 HAHA        5.2650    3.4750   -2.6740 ha        1 CIQ      0.170000
     53 HAJ         8.2510   -0.9180    6.7060 ha        1 CIQ      0.002800
     54 HAJA        6.2340    0.0510   11.1930 ha        1 CIQ      0.230000
     55 HAK         4.1270    0.8220   10.2980 ha        1 CIQ      0.002800
     56 HAKA        3.7270    1.2820   10.0010 ha        1 CIQ      0.002800
     57 HAL         4.2570    2.7150    6.9930 hc        1 CIQ      0.124500
     58 HALA        3.6120    1.1770    7.7020 hc        1 CIQ      0.124500
     59 HAM         4.2420   -2.5120   -3.9880 ha        1 CIQ      0.002800
     60 HAMA        4.5060   -3.0230   -4.3450 ha        1 CIQ      0.002800
     61 HAN         3.0780    0.9320   -1.6090 hc        1 CIQ      0.167000
     62 HANA        5.7880    1.0020   -1.2770 ha        1 CIQ      0.082000
     63 HAO        -2.6360    0.8480   -0.9700 hx        1 CIQ      0.175000
     64 HAOA       -7.1580    0.3430    1.7080 hc        1 CIQ      0.097667
     65 HAP        -3.9670   -0.1870   -0.1370 hx        1 CIQ      0.175000
     66 HAPA       -2.9390   -4.2950   -1.2140 ha        1 CIQ      0.228500
     67 HAQ         6.2510   -2.1830    7.4410 ha        1 CIQ      0.041000
     68 HAQA        6.2030    1.4550    5.9880 h1        1 CIQ      0.075500
     69 HAR         7.7790   -0.6040    6.3370 ha        1 CIQ      0.002800
     70 HARA        7.2960    1.0320    8.0030 hn        1 CIQ      0.153000
     71 HAS         5.5550   -0.0950    6.6820 h1        1 CIQ      0.075500
     72 HASA        5.9130    0.9300    8.8700 hn        1 CIQ      0.153000
     73 HAT        -5.4430    0.1520    2.2630 hc        1 CIQ      0.097667
     74 HATA       -5.9080    1.5590    1.2110 hc        1 CIQ      0.097667
     75 HAU        -7.4890   -1.0120   -0.3100 hn        1 CIQ      0.197000
     76 HAUA       -0.3450   -2.3690   -1.9960 ha        1 CIQ      0.228500
     77 HNAX       -2.4320   -0.9690   -0.9090 hx        1 CIQ      0.175000
     78 HBG        -7.1400   -3.5040   -1.1870 ha        1 CIQ      0.140500
     79 HBH        -2.2310   -0.8210    1.4680 hn        1 CIQ      0.244000
     80 HBI         1.4510    1.3210   -2.3460 hc        1 CIQ      0.167000
     81 OAY        -0.2670    0.6610    5.8000 oh        1 CIQ     -0.273000
     82 OAZ         2.3020    1.1110    5.6150 os        1 CIQ     -0.128000
     83 HAI         4.6530   -3.4900    9.5530 hc        1 CIQ      0.168000
     84 HAX2       -2.5110    0.8240    1.4720 hn        1 CIQ      0.244000
     85 HAIA        6.3990   -3.9060    9.7420 hc        1 CIQ      0.168000
@<TRIPOS>BOND
     1    1    2 1   
     2    1    6 1   
     3    2    3 1   
     4    2   33 1   
     5    3    4 1   
     6    4    5 1   
     7    4   10 1   
     8    5    6 1   
     9    5   11 1   
    10    6   28 1   
    11    7   36 1   
    12    7   38 1   
    13    8   31 1   
    14    8   41 1   
    15    8   78 1   
    16    9   31 1   
    17    9   42 1   
    18    9   43 1   
    19    9   44 1   
    20   10   30 1   
    21   10   45 1   
    22   11   29 1   
    23   11   46 1   
    24   12   14 1   
    25   12   50 1   
    26   12   51 1   
    27   13   19 1   
    28   13   49 1   
    29   14   20 1   
    30   14   52 1   
    31   15   16 1   
    32   15   23 1   
    33   15   83 1   
    34   15   85 1   
    35   16   24 1   
    36   17   18 1   
    37   17   25 1   
    38   17   57 1   
    39   17   58 1   
    40   18   82 1   
    41   19   33 1   
    42   20   62 1   
    43   21   26 1   
    44   21   64 1   
    45   21   73 1   
    46   21   74 1   
    47   22   27 1   
    48   22   66 1   
    49   23   67 1   
    50   24   54 1   
    51   25   34 1   
    52   25   68 1   
    53   25   71 1   
    54   26   35 1   
    55   27   76 1   
    56   28   32 1   
    57   28   79 1   
    58   28   84 1   
    59   29   30 1   
    60   29   81 1   
    61   30   82 1   
    62   31   35 1   
    63   32   63 1   
    64   32   65 1   
    65   32   77 1   
    66   33   61 1   
    67   33   80 1   
    68   34   70 1   
    69   34   72 1   
    70   35   75 1   
    71   37   81 1   
    72   39   40 1   
    73   47   48 1   
    74   53   69 1   
    75   55   56 1   
    76   59   60 1   
@<TRIPOS>SUBSTRUCTURE
     1 CIQ         1 TEMP              0 ****  ****    0 ROOT
