@<TRIPOS>MOLECULE
CIQ
   84    88     1     0     0
SMALL
bcc


@<TRIPOS>ATOM
      1 N1         -2.2200   -1.0440   -0.2950 nb        1 CIQ     -0.781000
      2 C2         -1.2270   -2.0080   -0.2540 ca        1 CIQ      0.688300
      3 N3          0.0970   -1.7820   -0.2360 nb        1 CIQ     -0.726000
      4 C4          0.5060   -0.4660   -0.2780 ca        1 CIQ      0.455600
      5 C5         -0.4210    0.6160   -0.3470 ca        1 CIQ     -0.290600
      6 C6         -1.8380    0.2510   -0.3510 ca        1 CIQ      0.695200
      7 CAA         1.0910    4.5520   -0.6250 c3        1 CIQ      0.108700
      8 CAB        -8.9270    0.7890    1.9480 c3        1 CIQ     -0.094100
      9 CAC        -9.3130    2.1950   -0.0540 c3        1 CIQ     -0.094100
     10 CAD         1.9090   -0.1780   -0.2560 ca        1 CIQ     -0.259300
     11 CAE         0.0560    1.9470   -0.4160 ca        1 CIQ     -0.158000
     12 CAF        -1.3090   -6.3440   -0.1330 c3        1 CIQ     -0.077400
     13 CAG        -1.7560   -5.5750    1.0940 c3        1 CIQ     -0.077400
     14 CAH        -1.7310   -5.6440   -1.4090 c3        1 CIQ     -0.077400
     15 CAI        10.5820   -0.0720    0.7500 c3        1 CIQ     -0.092400
     16 CAJ        10.1320    1.1610    1.5210 c3        1 CIQ     -0.092400
     17 CAK         5.9910    1.1470   -0.2360 c3        1 CIQ     -0.087400
     18 CAL         4.6370    0.4590   -0.2270 c3        1 CIQ      0.122400
     19 CAM        -1.2550   -4.1440    1.0600 c3        1 CIQ     -0.073400
     20 CAN        -1.2310   -4.2130   -1.4440 c3        1 CIQ     -0.073400
     21 CAO        -5.0470    2.1590   -0.8980 c3        1 CIQ     -0.095400
     22 CAP        -4.6620    0.7660    1.1130 c3        1 CIQ     -0.095400
     23 CAQ         9.4740   -0.3680   -0.2720 c3        1 CIQ      0.159300
     24 CAR         8.7610    1.5480    0.9440 c3        1 CIQ      0.159300
     25 CAS         7.0860    0.0910   -0.0990 c3        1 CIQ      0.172800
     26 CAT        -6.5340    1.8270   -0.8090 c3        1 CIQ      0.168300
     27 CAU        -6.1580    0.4720    1.1680 c3        1 CIQ      0.168300
     28 NAX        -2.7930    1.2630   -0.4900 nh        1 CIQ     -0.833900
     29 CBA         1.4090    2.2070   -0.3980 ca        1 CIQ      0.099100
     30 CBB         2.3520    1.1230   -0.3120 ca        1 CIQ      0.149100
     31 CBG        -8.4150    1.1080    0.5420 c3        1 CIQ      0.183500
     32 CBH        -4.2130    0.9960   -0.3360 c3        1 CIQ      0.204500
     33 CBI        -1.7180   -3.4540   -0.2160 c3        1 CIQ     -0.094000
     34 NBJ         8.4250    0.6490   -0.1610 n3        1 CIQ     -0.724600
     35 NBK        -6.9900    1.4870    0.5320 n3        1 CIQ     -0.725600
     36 HAA         1.7760    5.4370   -0.6820 h1        1 CIQ      0.045367
     37 HAAA        0.5080    4.4440   -1.5720 h1        1 CIQ      0.045367
     38 HAAB        0.4040    4.6430    0.2510 h1        1 CIQ      0.045367
     39 HAB        -8.6900    1.6150    2.6590 hc        1 CIQ      0.039367
     40 HABA      -10.0360    0.6560    1.9120 hc        1 CIQ      0.039367
     41 HABB       -8.4800   -0.1590    2.3320 hc        1 CIQ      0.039367
     42 HAC        -9.1180    3.1840    0.4240 hc        1 CIQ      0.039367
     43 HACA       -9.1550    2.2870   -1.1550 hc        1 CIQ      0.039367
     44 HACB      -10.3820    1.9210    0.1180 hc        1 CIQ      0.039367
     45 HAD         2.6140   -1.0210   -0.1960 ha        1 CIQ      0.161000
     46 HAE        -0.6480    2.7870   -0.5010 ha        1 CIQ      0.138000
     47 HAF        -0.1920   -6.4500   -0.1190 hc        1 CIQ      0.039200
     48 HAFA       -1.7460   -7.3760   -0.1090 hc        1 CIQ      0.039200
     49 HAG        -2.8760   -5.5800    1.1510 hc        1 CIQ      0.038700
     50 HAGA       -1.3690   -6.0810    2.0160 hc        1 CIQ      0.038700
     51 HAH        -1.3260   -6.1990   -2.2940 hc        1 CIQ      0.038700
     52 HAHA       -2.8500   -5.6530   -1.4880 hc        1 CIQ      0.038700
     53 HAIA       10.7260   -0.9440    1.4340 hc        1 CIQ      0.046700
     54 HAJ        10.0490    0.9450    2.6140 hc        1 CIQ      0.046700
     55 HAJA       10.8570    2.0010    1.3930 hc        1 CIQ      0.046700
     56 HAK         6.1140    1.7220   -1.1910 hc        1 CIQ      0.067200
     57 HAKA        6.0410    1.8850    0.6060 hc        1 CIQ      0.067200
     58 HAL         4.5170   -0.2150   -1.1150 h1        1 CIQ      0.043200
     59 HALA        4.4820   -0.1270    0.7170 h1        1 CIQ      0.043200
     60 HAM        -1.6430   -3.5860    1.9500 hc        1 CIQ      0.051700
     61 HAMA       -0.1360   -4.1390    1.1130 hc        1 CIQ      0.051700
     62 HAN        -0.1110   -4.2090   -1.4760 hc        1 CIQ      0.051700
     63 HANA       -1.6020   -3.7040   -2.3710 hc        1 CIQ      0.051700
     64 HAO        -4.7920    2.3390   -1.9740 hc        1 CIQ      0.053950
     65 HAOA       -4.8320    3.0990   -0.3280 hc        1 CIQ      0.053950
     66 HAP        -4.4280    1.6690    1.7340 hc        1 CIQ      0.053950
     67 HAPA       -4.1200   -0.1100    1.5540 hc        1 CIQ      0.053950
     68 HAQ         9.8780   -0.3060   -1.3190 h1        1 CIQ      0.042450
     69 HAQA        9.0780   -1.4100   -0.1190 h1        1 CIQ      0.042450
     70 HAR         7.9840    1.5310    1.7580 h1        1 CIQ      0.042450
     71 HARA        8.7910    2.5900    0.5230 h1        1 CIQ      0.042450
     72 HAS         6.9080   -0.4850    0.8580 h1        1 CIQ      0.029700
     73 HASA        6.9870   -0.6380   -0.9540 h1        1 CIQ      0.029700
     74 HAT        -7.1030    2.7440   -1.1370 h1        1 CIQ      0.035200
     75 HATA       -6.7590    1.0000   -1.5470 h1        1 CIQ      0.035200
     76 HAU        -6.3370   -0.5500    0.7200 h1        1 CIQ      0.035200
     77 HAUA       -6.4540    0.4280    2.2550 h1        1 CIQ      0.035200
     78 HNAX       -2.5100    2.1410   -0.1100 hn        1 CIQ      0.408800
     79 HBG        -8.5610    0.1720   -0.0870 h1        1 CIQ      0.016700
     80 HBH        -4.4570    0.0690   -0.9380 h1        1 CIQ      0.087700
     81 HBI        -2.8460   -3.4550   -0.2270 hc        1 CIQ      0.071700
     82 OAY         1.9850    3.4590   -0.4520 os        1 CIQ     -0.300900
     83 OAZ         3.6690    1.5180   -0.2940 os        1 CIQ     -0.302900
     84 HAI        11.5520    0.1130    0.2280 hc        1 CIQ      0.046700
@<TRIPOS>BOND
     1    1    2 ar  
     2    1    6 ar  
     3    2    3 ar  
     4    2   33 1   
     5    3    4 ar  
     6    4    5 ar  
     7    4   10 ar  
     8    5    6 ar  
     9    5   11 ar  
    10    6   28 1   
    11    7   36 1   
    12    7   37 1   
    13    7   38 1   
    14    7   82 1   
    15    8   31 1   
    16    8   39 1   
    17    8   40 1   
    18    8   41 1   
    19    9   31 1   
    20    9   42 1   
    21    9   43 1   
    22    9   44 1   
    23   10   30 ar  
    24   10   45 1   
    25   11   29 ar  
    26   11   46 1   
    27   12   13 1   
    28   12   14 1   
    29   12   47 1   
    30   12   48 1   
    31   13   19 1   
    32   13   49 1   
    33   13   50 1   
    34   14   20 1   
    35   14   51 1   
    36   14   52 1   
    37   15   16 1   
    38   15   23 1   
    39   15   53 1   
    40   15   84 1   
    41   16   24 1   
    42   16   54 1   
    43   16   55 1   
    44   17   18 1   
    45   17   25 1   
    46   17   56 1   
    47   17   57 1   
    48   18   58 1   
    49   18   59 1   
    50   18   83 1   
    51   19   33 1   
    52   19   60 1   
    53   19   61 1   
    54   20   33 1   
    55   20   62 1   
    56   20   63 1   
    57   21   26 1   
    58   21   32 1   
    59   21   64 1   
    60   21   65 1   
    61   22   27 1   
    62   22   32 1   
    63   22   66 1   
    64   22   67 1   
    65   23   34 1   
    66   23   68 1   
    67   23   69 1   
    68   24   34 1   
    69   24   70 1   
    70   24   71 1   
    71   25   34 1   
    72   25   72 1   
    73   25   73 1   
    74   26   35 1   
    75   26   74 1   
    76   26   75 1   
    77   27   35 1   
    78   27   76 1   
    79   27   77 1   
    80   28   32 1   
    81   28   78 1   
    82   29   30 ar  
    83   29   82 1   
    84   30   83 1   
    85   31   35 1   
    86   31   79 1   
    87   32   80 1   
    88   33   81 1   
@<TRIPOS>SUBSTRUCTURE
     1 CIQ         1 TEMP              0 ****  ****    0 ROOT
