@<TRIPOS>MOLECULE
CIQ
   84    83     1     0     0
SMALL
bcc


@<TRIPOS>ATOM
      1 N1         -0.0850   -1.1300   -2.7070 n1        1 CIQ     -0.577800
      2 C2          1.2860   -1.2960   -2.7520 c1        1 CIQ      0.418700
      3 N3          2.0040   -1.3400   -1.6030 n1        1 CIQ     -0.515800
      4 C4          1.3690   -1.2190   -0.3880 cg        1 CIQ     -0.052000
      5 C5          0.0180   -1.0550   -0.3400 cg        1 CIQ     -0.052000
      6 C6         -0.7140   -1.0100   -1.5140 c1        1 CIQ      0.551600
      7 CAA        -1.5410   -0.5420    3.8050 c3        1 CIQ      0.110700
      8 CAB        -7.5880   -0.0100   -5.0030 c3        1 CIQ     -0.094100
      9 CAC        -7.5640    1.9050   -3.3770 c3        1 CIQ     -0.094100
     10 CAD         2.1230   -1.2650    0.8130 c1        1 CIQ     -0.081000
     11 CAE        -0.6310   -0.9310    0.9020 c1        1 CIQ     -0.081000
     12 CAF         4.0060   -1.2240   -5.7370 c3        1 CIQ     -0.077400
     13 CAG         4.1390   -2.3660   -5.0220 c3        1 CIQ     -0.075900
     14 CAH         3.8690    0.0100   -5.2110 c3        1 CIQ     -0.075900
     15 CAI         3.4770    2.4050    9.0790 c3        1 CIQ     -0.092400
     16 CAJ         4.9260    2.5750    8.6310 c3        1 CIQ     -0.092400
     17 CAK         3.1360   -0.0460    5.1780 c3        1 CIQ     -0.087400
     18 CAL         2.7570    0.0180    3.6780 c3        1 CIQ      0.130400
     19 CAM         3.2390   -2.3600   -3.7830 c3        1 CIQ     -0.070900
     20 CAN         2.9760   -0.0020   -3.9720 c3        1 CIQ     -0.070900
     21 CAO        -3.9310    0.3820   -1.7060 c3        1 CIQ     -0.095400
     22 CAP        -3.8530   -1.4220   -3.3680 c3        1 CIQ     -0.095400
     23 CAQ         2.8200    2.0290    7.9870 c3        1 CIQ      0.159800
     24 CAR         5.0020    1.9320    7.1970 c3        1 CIQ      0.159800
     25 CAS         3.4560    1.3550    5.6800 c3        1 CIQ      0.172800
     26 CAT        -5.0000    1.1010   -2.5390 c3        1 CIQ      0.168300
     27 CAU        -4.9270   -0.6980   -4.1970 c3        1 CIQ      0.168300
     28 NAX        -2.1830   -1.3140   -1.6100 n3        1 CIQ     -0.696800
     29 OAY        -0.3550   -1.2790    3.4220 os        1 CIQ     -0.305400
     30 OAZ         2.1000   -1.2020    3.2960 os        1 CIQ     -0.316400
     31 CBA         0.1160   -0.9770    2.0940 c1        1 CIQ      0.072600
     32 CBB         1.4780   -1.1420    2.0460 c1        1 CIQ      0.099600
     33 CBG        -6.6890    0.9400   -4.2520 c3        1 CIQ      0.182500
     34 CBH        -3.0690   -0.4980   -2.5310 c3        1 CIQ      0.204500
     35 CBI         2.0550   -1.3030   -3.8760 c3        1 CIQ     -0.024600
     36 NBJ         3.8870    1.2850    7.0570 n3        1 CIQ     -0.724600
     37 NBK        -5.7770    0.1720   -3.3770 n3        1 CIQ     -0.725600
     38 HAA        -1.6560   -0.5920    4.7870 h1        1 CIQ      0.046033
     39 HAAA       -2.3280   -0.9330    3.3620 h1        1 CIQ      0.046033
     40 HAAB       -1.4450    0.3960    3.5340 h1        1 CIQ      0.046033
     41 HAB        -8.3800    0.4780   -5.3290 hc        1 CIQ      0.039367
     42 HABA       -7.1020   -0.3840   -5.7610 hc        1 CIQ      0.039367
     43 HABB       -7.8730   -0.7380   -4.4020 hc        1 CIQ      0.039367
     44 HAC        -7.0270    2.7060   -3.1290 hc        1 CIQ      0.039367
     45 HACA       -8.3720    2.1920   -3.9020 hc        1 CIQ      0.039367
     46 HACB       -7.8500    1.4400   -2.5640 hc        1 CIQ      0.039367
     47 HAD         3.1030   -1.4910    0.7810 ha        1 CIQ      0.096500
     48 HAE        -1.6030   -0.8840    0.9400 ha        1 CIQ      0.096500
     49 HAF         3.2250   -1.3600   -6.3210 hc        1 CIQ      0.037700
     50 HAFA        4.8130   -1.1800   -6.3360 hc        1 CIQ      0.037700
     51 HAG         5.0700   -2.4580   -4.7400 hc        1 CIQ      0.039200
     52 HAGA        3.8960   -3.1350   -5.5940 hc        1 CIQ      0.039200
     53 HAH         4.7530    0.3520   -4.9630 hc        1 CIQ      0.039200
     54 HAHA        3.4760    0.6010   -5.8810 hc        1 CIQ      0.039200
     55 HAI         3.4150    1.7190    9.7630 hc        1 CIQ      0.046450
     56 HAIA        3.1230    3.2540    9.4140 hc        1 CIQ      0.046450
     57 HAJ         5.1580    3.5220    8.5910 hc        1 CIQ      0.046450
     58 HAJA        5.5210    2.1080    9.2390 hc        1 CIQ      0.046450
     59 HAK         2.3900   -0.4100    5.6850 hc        1 CIQ      0.064200
     60 HAKA        3.9100   -0.6140    5.2920 hc        1 CIQ      0.064200
     61 HAL         2.1450    0.7870    3.5230 h1        1 CIQ      0.044200
     62 HALA        3.5790    0.1350    3.1340 h1        1 CIQ      0.044200
     63 HAM         2.8520   -3.2590   -3.6690 hc        1 CIQ      0.050450
     64 HAMA        3.8030   -2.1450   -2.9750 hc        1 CIQ      0.050450
     65 HAN         3.5400    0.0380   -3.1830 hc        1 CIQ      0.050450
     66 HANA        2.3990    0.7930   -3.9900 hc        1 CIQ      0.050450
     67 HAO        -3.3620    1.0610   -1.2610 hc        1 CIQ      0.053700
     68 HAOA       -4.3710   -0.1580   -1.0230 hc        1 CIQ      0.053700
     69 HAP        -3.2490   -1.8870   -3.9730 hc        1 CIQ      0.053700
     70 HAPA       -4.2960   -2.0900   -2.7810 hc        1 CIQ      0.053700
     71 HAQ         2.0980    1.4160    8.2240 h1        1 CIQ      0.042200
     72 HAQA        2.4610    2.8080    7.5270 h1        1 CIQ      0.042200
     73 HAR         5.0770    2.6270    6.5190 h1        1 CIQ      0.042200
     74 HARA        5.7640    1.3140    7.1390 h1        1 CIQ      0.042200
     75 HAS         2.6560    1.9150    5.6170 h1        1 CIQ      0.029200
     76 HASA        4.1630    1.7400    5.1390 h1        1 CIQ      0.029200
     77 HAT        -5.5990    1.5590   -1.9470 h1        1 CIQ      0.035450
     78 HATA       -4.5570    1.7670   -3.1250 h1        1 CIQ      0.035450
     79 HAU        -4.4790   -0.1470   -4.8930 h1        1 CIQ      0.035450
     80 HAUA       -5.4850   -1.3600   -4.6330 h1        1 CIQ      0.035450
     81 HNAX       -2.5260   -2.0510   -1.1810 hn        1 CIQ      0.408800
     82 HBG        -6.1760    1.4520   -4.8750 h1        1 CIQ      0.016700
     83 HBH        -2.5130    0.0500   -3.1010 h1        1 CIQ      0.088700
     84 HBI         1.5280   -1.4260   -4.6760 hc        1 CIQ      0.071700
@<TRIPOS>BOND
     1    1    6 3   
     2    2    3 3   
     3    2   35 1   
     4    4    5 1   
     5    4   10 3   
     6    5   11 3   
     7    6   28 1   
     8    7   29 1   
     9    7   38 1   
    10    7   39 1   
    11    7   40 1   
    12    8   33 1   
    13    8   41 1   
    14    8   42 1   
    15    8   43 1   
    16    9   33 1   
    17    9   44 1   
    18    9   45 1   
    19    9   46 1   
    20   10   47 1   
    21   11   48 1   
    22   12   13 1   
    23   12   14 1   
    24   12   49 1   
    25   12   50 1   
    26   13   19 1   
    27   13   51 1   
    28   13   52 1   
    29   14   20 1   
    30   14   53 1   
    31   14   54 1   
    32   15   16 1   
    33   15   23 1   
    34   15   55 1   
    35   15   56 1   
    36   16   24 1   
    37   16   57 1   
    38   16   58 1   
    39   17   18 1   
    40   17   25 1   
    41   17   59 1   
    42   17   60 1   
    43   18   30 1   
    44   18   61 1   
    45   18   62 1   
    46   19   35 1   
    47   19   63 1   
    48   19   64 1   
    49   20   35 1   
    50   20   65 1   
    51   20   66 1   
    52   21   26 1   
    53   21   34 1   
    54   21   67 1   
    55   21   68 1   
    56   22   27 1   
    57   22   34 1   
    58   22   69 1   
    59   22   70 1   
    60   23   36 1   
    61   23   71 1   
    62   23   72 1   
    63   24   36 1   
    64   24   73 1   
    65   24   74 1   
    66   25   36 1   
    67   25   75 1   
    68   25   76 1   
    69   26   37 1   
    70   26   77 1   
    71   26   78 1   
    72   27   37 1   
    73   27   79 1   
    74   27   80 1   
    75   28   34 1   
    76   28   81 1   
    77   29   31 1   
    78   30   32 1   
    79   31   32 3   
    80   33   37 1   
    81   33   82 1   
    82   34   83 1   
    83   35   84 1   
@<TRIPOS>SUBSTRUCTURE
     1 CIQ         1 TEMP              0 ****  ****    0 ROOT
