@<TRIPOS>MOLECULE
CIR
   24    22     1     0     0
SMALL
bcc


@<TRIPOS>ATOM
      1 C1         -2.8140    1.6590    1.7070 c1        1 CIR      0.308000
      2 O1         -3.7340    0.8460    1.9850 o         1 CIR     -0.586000
      3 O2         -3.0970    2.8390    1.3700 os        1 CIR     -0.568000
      4 C2         -1.3700    1.2180    1.7740 c3        1 CIR     -0.132000
      5 N2         -1.0630    0.8030    3.1000 n3        1 CIR     -0.326000
      6 C3         -1.1500    0.0650    0.8220 c3        1 CIR     -0.139000
      7 C4          0.1640    0.2540    0.0970 c3        1 CIR     -0.181000
      8 C5          0.3300   -0.8360   -0.9390 c3        1 CIR     -0.055000
      9 N6          1.6460   -0.7840   -1.4750 n         1 CIR     -0.336000
     10 C7          1.9690   -1.5330   -2.6360 c2        1 CIR      0.348000
     11 O7          1.1220   -2.2200   -3.1710 o         1 CIR     -0.402000
     12 N8          3.2830   -1.4850   -3.1690 n         1 CIR     -0.410000
     13 H2         -0.7900    1.9640    1.5240 h1        1 CIR      0.081000
     14 HN21       -1.7800    0.9680    3.6460 hn        1 CIR      0.126000
     15 HN22       -0.3340    1.2680    3.4040 hn        1 CIR      0.126000
     16 H31        -1.1280   -0.7730    1.3250 hc        1 CIR      0.090000
     17 H32        -1.8800    0.0360    0.1720 hc        1 CIR      0.090000
     18 H41         0.9000    0.2080    0.7390 hc        1 CIR      0.081000
     19 H42         0.1700    1.1270   -0.3450 hc        1 CIR      0.081000
     20 H51        -0.3220   -0.7050   -1.6580 h1        1 CIR      0.105000
     21 H52         0.1820   -1.7090   -0.5200 h1        1 CIR      0.105000
     22 HN6         2.2830   -0.2720   -1.0710 hn        1 CIR      0.198000
     23 HN81        3.4910   -1.9680   -3.9160 hn        1 CIR      0.199500
     24 HN82        3.9210   -0.9700   -2.7650 hn        1 CIR      0.199500
@<TRIPOS>BOND
     1    1    2 1   
     2    1    4 1   
     3    4    5 1   
     4    4    6 1   
     5    4   13 1   
     6    5   14 1   
     7    5   15 1   
     8    6    7 1   
     9    6   16 1   
    10    6   17 1   
    11    7    8 1   
    12    7   18 1   
    13    7   19 1   
    14    8    9 1   
    15    8   20 1   
    16    8   21 1   
    17    9   10 1   
    18    9   22 1   
    19   10   11 1   
    20   10   12 1   
    21   12   23 1   
    22   12   24 1   
@<TRIPOS>SUBSTRUCTURE
     1 CIR         1 TEMP              0 ****  ****    0 ROOT
