@<TRIPOS>MOLECULE
CIR
   24    23     1     0     0
SMALL
bcc


@<TRIPOS>ATOM
      1 C1          3.4450    0.1940   -0.0710 c         1 CIR      0.888600
      2 O1          4.3870   -0.2810    0.6260 o         1 CIR     -0.842800
      3 O2          3.4940    1.2940   -0.6880 o         1 CIR     -0.842800
      4 C2          2.1330   -0.6510   -0.2070 c3        1 CIR      0.018500
      5 N2          2.1340   -1.8960    0.5510 n3        1 CIR     -0.893800
      6 C3          0.9450    0.2550    0.1160 c3        1 CIR     -0.062400
      7 C4         -0.3700   -0.3550   -0.3180 c3        1 CIR     -0.102400
      8 C5         -1.5070    0.6470   -0.1220 c3        1 CIR      0.060000
      9 N6         -2.7720    0.2440   -0.7040 n         1 CIR     -0.524900
     10 C7         -3.8400   -0.0940    0.1440 c         1 CIR      0.722100
     11 O7         -3.8990    0.2880    1.3390 o         1 CIR     -0.644100
     12 N8         -4.9150   -0.8530   -0.3670 n         1 CIR     -0.650000
     13 H2          2.0650   -0.9450   -1.2960 h1        1 CIR      0.038700
     14 HN21        3.0550   -2.2940    0.4670 hn        1 CIR      0.331800
     15 HN22        2.0120   -1.6770    1.5250 hn        1 CIR      0.331800
     16 H31         0.9140    0.4790    1.2140 hc        1 CIR      0.050700
     17 H32         1.1180    1.2270   -0.4210 hc        1 CIR      0.050700
     18 H41        -0.2970   -0.6530   -1.3970 hc        1 CIR      0.040700
     19 H42        -0.5740   -1.2850    0.2730 hc        1 CIR      0.040700
     20 H51        -1.6430    0.8510    0.9780 h1        1 CIR      0.066700
     21 H52        -1.2290    1.6200   -0.6230 h1        1 CIR      0.066700
     22 HN6        -2.6700   -0.3180   -1.5220 hn        1 CIR      0.283500
     23 HN81       -5.0760   -0.8400   -1.3450 hn        1 CIR      0.286000
     24 HN82       -5.7320   -0.8210    0.1980 hn        1 CIR      0.286000
@<TRIPOS>BOND
     1    1    2 1   
     2    1    3 1   
     3    1    4 1   
     4    4    5 1   
     5    4    6 1   
     6    4   13 1   
     7    5   14 1   
     8    5   15 1   
     9    6    7 1   
    10    6   16 1   
    11    6   17 1   
    12    7    8 1   
    13    7   18 1   
    14    7   19 1   
    15    8    9 1   
    16    8   20 1   
    17    8   21 1   
    18    9   10 1   
    19    9   22 1   
    20   10   11 2   
    21   10   12 1   
    22   12   23 1   
    23   12   24 1   
@<TRIPOS>SUBSTRUCTURE
     1 CIR         1 TEMP              0 ****  ****    0 ROOT
