@<TRIPOS>MOLECULE
CIT
   18    17     1     0     0
SMALL
bcc


@<TRIPOS>ATOM
      1 C1          1.6310   -0.0010    2.1830 c         1 CIT      0.914600
      2 O1          1.5000    0.6170    3.2950 o         1 CIT     -0.907800
      3 O2          2.7930   -0.2950    1.7610 o         1 CIT     -0.907800
      4 C2          0.3720   -0.5090    1.4830 c3        1 CIT     -0.167900
      5 C3         -0.0190   -0.0450    0.0670 c3        1 CIT      0.097800
      6 O7         -0.2340    1.3600    0.1240 oh        1 CIT     -0.627800
      7 C4          1.0620   -0.4080   -0.9550 c3        1 CIT     -0.167900
      8 C5          1.0690    0.2630   -2.3260 c         1 CIT      0.914600
      9 O3          0.6010    1.4280   -2.5270 o         1 CIT     -0.907800
     10 O4          1.6340   -0.3630   -3.2880 o         1 CIT     -0.907800
     11 C6         -1.3680   -0.7590   -0.2650 c         1 CIT      0.892600
     12 O5         -2.3830   -0.0610   -0.5770 o         1 CIT     -0.895300
     13 O6         -1.4540   -2.0260   -0.1800 o         1 CIT     -0.895300
     14 H21         0.4640   -1.6270    1.4230 hc        1 CIT      0.035950
     15 H22        -0.4960   -0.2650    2.1510 hc        1 CIT      0.035950
     16 HO7        -0.5410    1.6010   -0.7630 ho        1 CIT      0.422000
     17 H41         2.0580   -0.1750   -0.4860 hc        1 CIT      0.035950
     18 H42         1.0060   -1.5160   -1.1160 hc        1 CIT      0.035950
@<TRIPOS>BOND
     1    1    2 1   
     2    1    3 1   
     3    1    4 1   
     4    4    5 1   
     5    4   14 1   
     6    4   15 1   
     7    5    6 1   
     8    5    7 1   
     9    5   11 1   
    10    6   16 1   
    11    7    8 1   
    12    7   17 1   
    13    7   18 1   
    14    8    9 1   
    15    8   10 1   
    16   11   12 1   
    17   11   13 1   
@<TRIPOS>SUBSTRUCTURE
     1 CIT         1 TEMP              0 ****  ****    0 ROOT
