@<TRIPOS>MOLECULE
CIT
   18    17     1     0     0
SMALL
bcc


@<TRIPOS>ATOM
      1 C1         -0.7290   -0.8840   -0.3440 c         1 CIT      0.914600
      2 O1         -0.2600   -1.2150    0.7980 o         1 CIT     -0.907800
      3 O2         -1.7150   -1.5260   -0.8270 o         1 CIT     -0.907800
      4 C2         -0.1920    0.3800   -1.0110 c3        1 CIT     -0.167900
      5 C3          0.4980    0.3460   -2.3880 c3        1 CIT      0.097800
      6 O7          1.6610   -0.4640   -2.2610 oh        1 CIT     -0.627800
      7 C4         -0.4440   -0.1890   -3.4700 c3        1 CIT     -0.167900
      8 C5          0.1200   -0.6540   -4.8090 c         1 CIT      0.914600
      9 O3          1.2980   -1.1150   -4.9400 o         1 CIT     -0.907800
     10 O4         -0.6630   -0.6330   -5.8210 o         1 CIT     -0.907800
     11 C6          0.9270    1.8170   -2.6940 c         1 CIT      0.892600
     12 O5          2.1480    2.0740   -2.9320 o         1 CIT     -0.895300
     13 O6          0.0620    2.7500   -2.6600 o         1 CIT     -0.895300
     14 H21        -1.0610    1.0820   -1.1240 hc        1 CIT      0.035950
     15 H22         0.5410    0.8420   -0.2980 hc        1 CIT      0.035950
     16 HO7         2.1000   -0.4060   -3.1230 ho        1 CIT      0.422000
     17 H41        -0.9870   -1.0720   -3.0340 hc        1 CIT      0.035950
     18 H42        -1.1990    0.6140   -3.6760 hc        1 CIT      0.035950
@<TRIPOS>BOND
     1    1    2 1   
     2    1    3 1   
     3    1    4 1   
     4    4    5 1   
     5    4   14 1   
     6    4   15 1   
     7    5    6 1   
     8    5    7 1   
     9    5   11 1   
    10    6   16 1   
    11    7    8 1   
    12    7   17 1   
    13    7   18 1   
    14    8    9 1   
    15    8   10 1   
    16   11   12 1   
    17   11   13 1   
@<TRIPOS>SUBSTRUCTURE
     1 CIT         1 TEMP              0 ****  ****    0 ROOT
