@<TRIPOS>MOLECULE
CIT
   18    17     1     0     0
SMALL
bcc


@<TRIPOS>ATOM
      1 C1         -0.4540   -0.5570   -0.1890 c         1 CIT      0.914600
      2 O1          0.6440   -1.0390    0.2330 o         1 CIT     -0.907800
      3 O2         -1.4530   -0.4770    0.6070 o         1 CIT     -0.907800
      4 C2         -0.6710   -0.1350   -1.6400 c3        1 CIT     -0.167900
      5 C3          0.5170    0.3340   -2.4850 c3        1 CIT      0.097800
      6 O7          1.6500   -0.5070   -2.3040 oh        1 CIT     -0.627800
      7 C4          0.1720    0.3270   -3.9860 c3        1 CIT     -0.167900
      8 C5         -0.2310   -0.9520   -4.7180 c         1 CIT      0.914600
      9 O3          0.4840   -1.3390   -5.7040 o         1 CIT     -0.907800
     10 O4         -1.3230   -1.5510   -4.4610 o         1 CIT     -0.907800
     11 C6          0.9070    1.8060   -2.1370 c         1 CIT      0.892600
     12 O5          2.0450    2.0450   -1.6240 o         1 CIT     -0.895300
     13 O6          0.1040    2.7560   -2.4070 o         1 CIT     -0.895300
     14 H21        -1.1230   -1.0230   -2.1610 hc        1 CIT      0.035950
     15 H22        -1.4280    0.6920   -1.6460 hc        1 CIT      0.035950
     16 HO7         1.8750   -0.4230   -1.3650 ho        1 CIT      0.422000
     17 H41        -0.6760    1.0510   -4.1070 hc        1 CIT      0.035950
     18 H42         1.0670    0.7420   -4.5210 hc        1 CIT      0.035950
@<TRIPOS>BOND
     1    1    2 1   
     2    1    3 1   
     3    1    4 1   
     4    4    5 1   
     5    4   14 1   
     6    4   15 1   
     7    5    6 1   
     8    5    7 1   
     9    5   11 1   
    10    6   16 1   
    11    7    8 1   
    12    7   17 1   
    13    7   18 1   
    14    8    9 1   
    15    8   10 1   
    16   11   12 1   
    17   11   13 1   
@<TRIPOS>SUBSTRUCTURE
     1 CIT         1 TEMP              0 ****  ****    0 ROOT
