@<TRIPOS>MOLECULE
CIU
   35    33     1     0     0
SMALL
bcc


@<TRIPOS>ATOM
      1 C1         -0.8240   -0.4650    2.3100 c2        1 CIU     -0.177000
      2 C2          1.8120   -0.3500   -0.8960 c3        1 CIU     -0.253000
      3 C3          2.5460   -0.6020    0.4160 c3        1 CIU     -0.071000
      4 C4          2.1950   -1.9940    0.9650 c3        1 CIU     -0.189000
      5 C5          1.1890   -1.9040    2.0990 c3        1 CIU     -0.135000
      6 C6         -0.1310   -1.3940    1.6550 c2        1 CIU     -0.212000
      7 N1          4.0340   -0.4200    0.2310 ny        1 CIU     -0.107000
      8 C7          4.7400    0.2090    1.4360 c2        1 CIU      0.328000
      9 O2          5.4370    1.1840    1.1450 o         1 CIU     -0.218000
     10 N2          4.5750   -0.4140    2.6550 ns        1 CIU     -0.168000
     11 C8          5.1330    0.1140    3.7660 c1        1 CIU     -0.167000
     12 C9          6.1970    6.3160    3.9980 c2        1 CIU     -0.524000
     13 C10         6.0430    5.0580    4.2870 c1        1 CIU      0.123000
     14 C11         6.5150    2.3060    6.1670 c2        1 CIU     -0.294000
     15 C12         6.2340    1.0170    5.9460 c2        1 CIU     -0.069000
     16 C13         5.6480    0.5520    4.7590 c1        1 CIU      0.039000
     17 HC11        0.7150   -0.4720   -0.6980 hc        1 CIU      0.121667
     18 HC12       -1.8200   -0.1390    1.9790 ha        1 CIU      0.128500
     19 HC21       -0.4580    0.0240    3.2240 ha        1 CIU      0.128500
     20 HC22        2.1110   -1.0810   -1.6860 hc        1 CIU      0.121667
     21 HC31        1.9840    0.6890   -1.2700 hc        1 CIU      0.121667
     22 HC41        2.2210    0.1920    1.1590 hx        1 CIU      0.153000
     23 HC42        1.7630   -2.6170    0.1350 hc        1 CIU      0.111000
     24 HC51        3.1020   -2.5430    1.3350 hc        1 CIU      0.111000
     25 HC52        1.6020   -1.2690    2.9290 hc        1 CIU      0.103500
     26 HC61        1.0450   -2.9410    2.5170 hc        1 CIU      0.103500
     27 HC62       -0.5400   -1.8820    0.7540 ha        1 CIU      0.133000
     28 HN1         4.4720   -1.3210    0.0130 hn        1 CIU      0.262000
     29 HN2         3.8600   -1.1030    2.7940 hn        1 CIU      0.276000
     30 H9          6.8800    6.6910    3.2170 ha        1 CIU      0.204000
     31 H10         5.6650    7.1320    4.5170 ha        1 CIU      0.204000
     32 H12         6.3000    3.0980    5.4240 h4        1 CIU      0.194000
     33 H13         6.4490    0.2220    6.6890 ha        1 CIU      0.168000
     34 I4          7.3620    2.9860    7.8540 i         1 CIU      0.185000
     35 H121        4.2020    0.2190   -0.5610 hn        1 CIU      0.262000
@<TRIPOS>BOND
     1    1    6 1   
     2    1   18 1   
     3    1   19 1   
     4    2    3 1   
     5    2   17 1   
     6    2   20 1   
     7    2   21 1   
     8    3    4 1   
     9    3    7 1   
    10    3   22 1   
    11    4    5 1   
    12    4   23 1   
    13    4   24 1   
    14    5    6 1   
    15    5   25 1   
    16    5   26 1   
    17    6   27 1   
    18    7    8 1   
    19    7   28 1   
    20    7   35 1   
    21    8    9 1   
    22    8   10 1   
    23   10   11 1   
    24   10   29 1   
    25   11   16 1   
    26   12   13 1   
    27   12   30 1   
    28   12   31 1   
    29   14   15 1   
    30   14   32 1   
    31   14   34 1   
    32   15   16 1   
    33   15   33 1   
@<TRIPOS>SUBSTRUCTURE
     1 CIU         1 TEMP              0 ****  ****    0 ROOT
