@<TRIPOS>MOLECULE
CIU
   34    32     1     0     0
SMALL
bcc


@<TRIPOS>ATOM
      1 C1         -1.3690    0.4540    0.0830 c2        1 CIU     -0.222000
      2 C2          2.4330   -0.0480    0.2100 c3        1 CIU     -0.248000
      3 C3          2.3140   -0.5290    1.6560 c3        1 CIU      0.012000
      4 C4          1.1840   -1.5700    1.7720 c3        1 CIU     -0.158000
      5 C5         -0.1890   -0.9260    1.7790 c3        1 CIU     -0.134000
      6 C6         -0.7250   -0.6600    0.4210 c2        1 CIU     -0.166000
      7 N1          3.5600   -1.0760    2.1800 n         1 CIU     -0.345000
      8 C7          4.5080   -0.1810    2.7070 c2        1 CIU      0.388000
      9 O2          4.2070    0.9890    3.0280 o         1 CIU     -0.377000
     10 N2          5.8360   -0.6680    2.8910 n         1 CIU     -0.234000
     11 C8          6.7290    0.0340    3.6090 c1        1 CIU     -0.046000
     12 C9          4.3650    4.0880    4.0960 c2        1 CIU     -0.545000
     13 C10         5.5620    4.1820    4.5950 c1        1 CIU      0.139000
     14 C11         8.4700    2.6130    5.2960 c2        1 CIU     -0.344000
     15 C12         8.5720    1.3410    4.9000 c2        1 CIU     -0.006000
     16 C13         7.5650    0.6570    4.2080 c1        1 CIU     -0.129000
     17 HC11        1.4400    0.3440   -0.1230 hc        1 CIU      0.087333
     18 HC12       -1.5350    1.2830    0.7840 ha        1 CIU      0.114000
     19 HC21       -1.7780    0.6110   -0.9240 ha        1 CIU      0.114000
     20 HC22        2.7310   -0.8800   -0.4720 hc        1 CIU      0.087333
     21 HC31        3.1870    0.7710    0.1300 hc        1 CIU      0.087333
     22 HC41        2.0500    0.3620    2.3050 h1        1 CIU      0.131000
     23 HC42        1.3010   -2.1450    2.7290 hc        1 CIU      0.088500
     24 HC51        1.2630   -2.3020    0.9270 hc        1 CIU      0.088500
     25 HC52       -0.1660    0.0190    2.3870 hc        1 CIU      0.093000
     26 HC61       -0.9030   -1.6280    2.2960 hc        1 CIU      0.093000
     27 HC62       -0.5740   -1.4740   -0.3090 ha        1 CIU      0.119000
     28 HN1         3.9000   -1.8680    1.6810 hn        1 CIU      0.206000
     29 HN2         5.9920   -1.6550    2.8740 hn        1 CIU      0.236000
     30 H9          3.6140    4.8880    4.0600 ha        1 CIU      0.205000
     31 H10         4.0090    3.1350    3.6500 ha        1 CIU      0.205000
     32 H12         7.5740    3.2280    5.1050 h4        1 CIU      0.190000
     33 H13         9.4770    0.7330    5.0980 ha        1 CIU      0.143000
     34 I4          9.9200    3.5870    6.2890 i         1 CIU      0.126000
@<TRIPOS>BOND
     1    1    6 1   
     2    1   18 1   
     3    1   19 1   
     4    2    3 1   
     5    2   17 1   
     6    2   20 1   
     7    2   21 1   
     8    3    4 1   
     9    3    7 1   
    10    3   22 1   
    11    4    5 1   
    12    4   23 1   
    13    4   24 1   
    14    5    6 1   
    15    5   25 1   
    16    5   26 1   
    17    6   27 1   
    18    7    8 1   
    19    7   28 1   
    20    8    9 1   
    21    8   10 1   
    22   10   11 1   
    23   10   29 1   
    24   11   16 1   
    25   12   13 1   
    26   12   30 1   
    27   12   31 1   
    28   14   15 1   
    29   14   32 1   
    30   14   34 1   
    31   15   16 1   
    32   15   33 1   
@<TRIPOS>SUBSTRUCTURE
     1 CIU         1 TEMP              0 ****  ****    0 ROOT
