@<TRIPOS>MOLECULE
CIU
   35    33     1     0     0
SMALL
bcc


@<TRIPOS>ATOM
      1 C1         -1.1790   -0.0620    1.0360 c2        1 CIU     -0.240000
      2 C2          1.9530    0.1920   -0.6710 c3        1 CIU     -0.296000
      3 C3          2.7560    1.0780    0.1860 c2        1 CIU      0.199000
      4 C4          1.3930   -2.4420    1.9490 c3        1 CIU     -0.201000
      5 C5          0.1170   -1.7380    2.3400 c3        1 CIU     -0.151000
      6 C6         -0.6490   -1.2790    1.1560 c2        1 CIU     -0.175000
      7 N1          3.7510    0.6830    0.9480 n         1 CIU     -0.204000
      8 C7          4.4960    1.6540    1.8000 c2        1 CIU      0.384000
      9 O2          4.0900    2.8280    1.7500 o         1 CIU     -0.305000
     10 N2          5.5280    1.1740    2.5470 n         1 CIU     -0.317000
     11 C8          6.3240    2.0780    3.3820 c3        1 CIU      0.085000
     12 C9          5.5340    2.7870    4.4410 c2        1 CIU     -0.550000
     13 C10         5.8570    2.9760    5.7070 c1        1 CIU      0.234000
     14 C11         7.7130    1.6300    6.3110 c2        1 CIU     -0.310000
     15 C12         8.1700    1.7750    5.0510 c2        1 CIU     -0.187000
     16 C13         7.5040    1.3550    3.8880 c1        1 CIU      0.003000
     17 HC11        1.7570    0.6980   -1.6550 hc        1 CIU      0.168000
     18 HC12       -1.0860    0.7080    1.8150 ha        1 CIU      0.121500
     19 HC21       -1.7840    0.2310    0.1670 ha        1 CIU      0.121500
     20 HC22        0.9480    0.0250   -0.1670 hc        1 CIU      0.168000
     21 HC31        2.4120   -0.8110   -0.8610 hc        1 CIU      0.168000
     22 HC41        2.4950    2.1710    0.2010 h4        1 CIU      0.229000
     23 HC42        1.9440   -2.7790    2.8600 hc        1 CIU      0.066000
     24 HC51        1.1750   -3.3370    1.3170 hc        1 CIU      0.066000
     25 HC52        0.3490   -0.8780    3.0230 hc        1 CIU      0.101500
     26 HC61       -0.5320   -2.4500    2.9250 hc        1 CIU      0.101500
     27 HC62       -0.7930   -2.0420    0.3710 ha        1 CIU      0.132000
     28 HN1         2.0580   -1.7580    1.3640 hc        1 CIU      0.066000
     29 HN2         5.8380    0.2260    2.5010 hn        1 CIU      0.273000
     30 H9          6.7510    2.8930    2.6950 h1        1 CIU      0.168000
     31 H10         4.6070    3.2870    4.0800 ha        1 CIU      0.217000
     32 H12         6.7880    1.0810    6.5510 h4        1 CIU      0.169000
     33 H13         9.1940    2.1710    4.8500 ha        1 CIU      0.207000
     34 I4          8.7620    2.1400    7.9440 i         1 CIU      0.214000
     35 H121        4.0180   -0.2870    0.9790 hn        1 CIU      0.271000
@<TRIPOS>BOND
     1    1    6 1   
     2    1   18 1   
     3    1   19 1   
     4    2    3 1   
     5    2   17 1   
     6    2   20 1   
     7    2   21 1   
     8    3    7 1   
     9    3   22 1   
    10    4    5 1   
    11    4   23 1   
    12    4   24 1   
    13    4   28 1   
    14    5    6 1   
    15    5   25 1   
    16    5   26 1   
    17    6   27 1   
    18    7    8 1   
    19    7   35 1   
    20    8    9 1   
    21    8   10 1   
    22   10   11 1   
    23   10   29 1   
    24   11   12 1   
    25   11   16 1   
    26   11   30 1   
    27   12   13 1   
    28   12   31 1   
    29   14   15 1   
    30   14   32 1   
    31   14   34 1   
    32   15   16 1   
    33   15   33 1   
@<TRIPOS>SUBSTRUCTURE
     1 CIU         1 TEMP              0 ****  ****    0 ROOT
