@<TRIPOS>MOLECULE
CIU
   34    35     1     0     0
SMALL
bcc


@<TRIPOS>ATOM
      1 C1         -0.1820   -1.0390    7.2860 c3        1 CIU     -0.074900
      2 C2          0.7900   -0.8570    6.1390 c3        1 CIU     -0.091900
      3 C3          0.0610   -0.2730    4.9160 c3        1 CIU      0.087700
      4 C4         -0.5800    1.0710    5.3040 c3        1 CIU     -0.091900
      5 C5         -1.5400    0.8860    6.4590 c3        1 CIU     -0.074900
      6 C6         -0.8540    0.2660    7.6580 c3        1 CIU     -0.080400
      7 N1          0.9610   -0.1810    3.7770 n         1 CIU     -0.536900
      8 C7          0.3940   -0.1440    2.4850 c         1 CIU      0.755100
      9 O2         -0.7970   -0.4780    2.2980 o         1 CIU     -0.616100
     10 N2          1.2380    0.2530    1.4210 n         1 CIU     -0.466100
     11 C8          0.9120    0.1020    0.0620 ca        1 CIU      0.088600
     12 C9         -0.4150    0.1160   -0.4170 ca        1 CIU     -0.170500
     13 C10        -0.6660    0.0290   -1.7830 ca        1 CIU     -0.071500
     14 C11         0.3790   -0.0680   -2.7010 ca        1 CIU     -0.006100
     15 C12         1.6940   -0.0810   -2.2380 ca        1 CIU     -0.071500
     16 C13         1.9680   -0.0020   -0.8780 ca        1 CIU     -0.170500
     17 HC11       -0.9610   -1.7930    7.0000 hc        1 CIU      0.045450
     18 HC12        0.3700   -1.4440    8.1740 hc        1 CIU      0.045450
     19 HC21        1.2450   -1.8460    5.8750 hc        1 CIU      0.046200
     20 HC22        1.6190   -0.1700    6.4530 hc        1 CIU      0.046200
     21 HC31       -0.7720   -0.9830    4.6230 h1        1 CIU      0.093700
     22 HC41        0.2170    1.8060    5.5910 hc        1 CIU      0.046200
     23 HC42       -1.1330    1.4880    4.4220 hc        1 CIU      0.046200
     24 HC51       -2.3920    0.2320    6.1350 hc        1 CIU      0.045450
     25 HC52       -1.9710    1.8810    6.7450 hc        1 CIU      0.045450
     26 HC61       -1.6060    0.0840    8.4690 hc        1 CIU      0.041700
     27 HC62       -0.0890    0.9800    8.0630 hc        1 CIU      0.041700
     28 HN1         1.7710    0.3740    3.9410 hn        1 CIU      0.288500
     29 HN2         2.2170    0.2970    1.6060 hn        1 CIU      0.309500
     30 H9         -1.2640    0.1850    0.2830 ha        1 CIU      0.154500
     31 H10        -1.7130    0.0390   -2.1290 ha        1 CIU      0.145000
     32 H12         2.5350   -0.1590   -2.9470 ha        1 CIU      0.145000
     33 H13         3.0160   -0.0180   -0.5440 ha        1 CIU      0.154500
     34 I4         -0.0050   -0.1880   -4.6790 i         1 CIU     -0.145900
@<TRIPOS>BOND
     1    1    2 1   
     2    1    6 1   
     3    1   17 1   
     4    1   18 1   
     5    2    3 1   
     6    2   19 1   
     7    2   20 1   
     8    3    4 1   
     9    3    7 1   
    10    3   21 1   
    11    4    5 1   
    12    4   22 1   
    13    4   23 1   
    14    5    6 1   
    15    5   24 1   
    16    5   25 1   
    17    6   26 1   
    18    6   27 1   
    19    7    8 1   
    20    7   28 1   
    21    8    9 2   
    22    8   10 1   
    23   10   11 1   
    24   10   29 1   
    25   11   12 ar  
    26   11   16 ar  
    27   12   13 ar  
    28   12   30 1   
    29   13   14 ar  
    30   13   31 1   
    31   14   15 ar  
    32   14   34 1   
    33   15   16 ar  
    34   15   32 1   
    35   16   33 1   
@<TRIPOS>SUBSTRUCTURE
     1 CIU         1 TEMP              0 ****  ****    0 ROOT
