@<TRIPOS>MOLECULE
CIU
   34    33     1     0     0
SMALL
bcc


@<TRIPOS>ATOM
      1 C1         -3.6530    0.7690   -1.6260 c3        1 CIU     -0.153500
      2 C2         -2.1440    0.7590   -1.6360 c3        1 CIU     -0.170500
      3 C3         -1.5530    0.7370   -0.2320 c3        1 CIU      0.011000
      4 C4         -2.1160    1.8260    0.6490 c3        1 CIU     -0.170500
      5 C5         -3.6330    1.8370    0.6590 c3        1 CIU     -0.153500
      6 C6         -4.2200    1.8620   -0.7360 c3        1 CIU     -0.159000
      7 N1         -0.1170    0.9040   -0.3270 n         1 CIU     -0.346000
      8 C7          0.7570   -0.1410    0.1140 c2        1 CIU      0.382000
      9 O2          0.2940   -1.1710    0.5720 o         1 CIU     -0.377000
     10 N2          2.1410    0.0030   -0.0180 n         1 CIU     -0.320000
     11 C8          3.0010   -1.0430    0.3780 c2        1 CIU      0.096000
     12 I4          6.2090   -4.5010    1.7010 i         1 CIU      0.140000
     13 C9          3.5040   -1.9300   -0.5760 c2        1 CIU     -0.191000
     14 C10         4.4350   -2.8880   -0.2070 c1        1 CIU     -0.071000
     15 C11         4.8680   -2.9670    1.1160 c1        1 CIU     -0.292000
     16 C12         4.3660   -2.0820    2.0670 c1        1 CIU     -0.072000
     17 C13         3.4340   -1.1230    1.6970 c1        1 CIU     -0.150000
     18 HC11       -3.9760   -0.1060   -1.3040 hc        1 CIU      0.084750
     19 HC12       -3.9650    0.9040   -2.5150 hc        1 CIU      0.084750
     20 HC21       -1.8340   -0.0330   -2.1240 hc        1 CIU      0.085500
     21 HC22       -1.8190    1.5790   -2.1100 hc        1 CIU      0.085500
     22 HC31       -1.7450   -0.1390    0.1830 h1        1 CIU      0.133000
     23 HC41       -1.7990    2.6830    0.3280 hc        1 CIU      0.085500
     24 HC42       -1.7910    1.6890    1.5780 hc        1 CIU      0.085500
     25 HC51       -3.9400    2.6260    1.1450 hc        1 CIU      0.084750
     26 HC52       -3.9530    1.0350    1.1210 hc        1 CIU      0.084750
     27 HC61       -4.0280    2.7440   -1.1490 hc        1 CIU      0.081000
     28 HC62       -5.1880    1.7470   -0.6740 hc        1 CIU      0.081000
     29 HN1         0.2430    1.7110   -0.6580 hn        1 CIU      0.202000
     30 HN2         2.4770    0.7340   -0.4020 hn        1 CIU      0.223000
     31 H9          3.2000   -1.8740   -1.5070 ha        1 CIU      0.132000
     32 H10         4.7950   -3.5230   -0.8900 ha        1 CIU      0.143000
     33 H12         4.6740   -2.1380    3.0070 ha        1 CIU      0.147000
     34 H13         3.0750   -0.4900    2.3770 ha        1 CIU      0.177000
@<TRIPOS>BOND
     1    1    2 1   
     2    1    6 1   
     3    1   18 1   
     4    1   19 1   
     5    2    3 1   
     6    2   20 1   
     7    2   21 1   
     8    3    4 1   
     9    3    7 1   
    10    3   22 1   
    11    4    5 1   
    12    4   23 1   
    13    4   24 1   
    14    5    6 1   
    15    5   25 1   
    16    5   26 1   
    17    6   27 1   
    18    6   28 1   
    19    7    8 1   
    20    7   29 1   
    21    8    9 1   
    22    8   10 1   
    23   10   11 1   
    24   10   30 1   
    25   11   13 1   
    26   11   17 1   
    27   12   15 1   
    28   13   14 1   
    29   13   31 1   
    30   14   32 1   
    31   15   16 1   
    32   16   33 1   
    33   17   34 1   
@<TRIPOS>SUBSTRUCTURE
     1 CIU         1 TEMP              0 ****  ****    0 ROOT
