@<TRIPOS>MOLECULE
CIW
   35    38     1     0     0
SMALL
bcc


@<TRIPOS>ATOM
      1 C1          0.7120   -0.2100   -0.1410 ca        1 CIW     -0.025600
      2 C2          2.0720   -0.2330    0.1750 ca        1 CIW     -0.092000
      3 C3          2.5060   -0.1490    1.5000 ca        1 CIW     -0.134000
      4 C4          1.5370   -0.0460    2.5010 ca        1 CIW      0.064600
      5 C5          0.1420   -0.0130    2.1670 ca        1 CIW     -0.157300
      6 C6         -0.2720   -0.0960    0.8530 ca        1 CIW     -0.093000
      7 C7         -0.6490    0.1220    3.4270 c3        1 CIW     -0.105100
      8 C8          0.4440    0.1760    4.5120 c         1 CIW      0.692500
      9 O9          0.2460    0.3040    5.7280 o         1 CIW     -0.628500
     10 N10         1.7040    0.0190    3.9010 n         1 CIW     -0.358000
     11 C11         2.9750    0.1310    4.5690 c3        1 CIW      0.141300
     12 C12         3.5870    1.5070    4.5740 ca        1 CIW     -0.109300
     13 C13         2.8380    2.5810    5.0620 ca        1 CIW     -0.132000
     14 C14         3.3480    3.8880    5.1050 ca        1 CIW     -0.146000
     15 C15         4.6380    4.0480    4.6420 ca        1 CIW      0.040100
     16 C16         5.4080    2.9580    4.1630 ca        1 CIW      0.062100
     17 C17         4.9180    1.6630    4.1190 ca        1 CIW     -0.065600
     18 C18         5.7590    0.4790    3.6510 c         1 CIW      0.922200
     19 O19         5.4870   -0.0250    2.5230 o         1 CIW     -0.815300
     20 O20         6.6490    0.0520    4.4290 o         1 CIW     -0.815300
     21 O21         6.6630    3.4310    3.7690 os        1 CIW     -0.311900
     22 C22         6.6750    4.8470    4.0220 c3        1 CIW      0.318200
     23 O23         5.3900    5.2200    4.5660 os        1 CIW     -0.356900
     24 Cl24        0.2220   -0.3190   -1.7740 cl        1 CIW     -0.133400
     25 H2          2.8260   -0.3160   -0.6240 ha        1 CIW      0.150000
     26 H3          3.5920   -0.1500    1.7450 ha        1 CIW      0.235000
     27 H6         -1.3380   -0.0710    0.5920 ha        1 CIW      0.135000
     28 H7         -1.2540    1.0610    3.4560 hc        1 CIW      0.081200
     29 H7A        -1.3180   -0.7530    3.6110 hc        1 CIW      0.081200
     30 H11         2.8120   -0.1880    5.6410 h1        1 CIW      0.091200
     31 H11A        3.6870   -0.5950    4.0700 h1        1 CIW      0.091200
     32 H13         1.8170    2.4000    5.4330 ha        1 CIW      0.132000
     33 H14         2.7560    4.7270    5.4860 ha        1 CIW      0.133000
     34 H22         7.4620    5.0730    4.7820 h2        1 CIW      0.051700
     35 H22A        6.8210    5.3850    3.0530 h2        1 CIW      0.051700
@<TRIPOS>BOND
     1    1    2 ar  
     2    1    6 ar  
     3    1   24 1   
     4    2    3 ar  
     5    2   25 1   
     6    3    4 ar  
     7    3   26 1   
     8    4    5 ar  
     9    4   10 1   
    10    5    6 ar  
    11    5    7 1   
    12    6   27 1   
    13    7    8 1   
    14    7   28 1   
    15    7   29 1   
    16    8    9 2   
    17    8   10 1   
    18   10   11 1   
    19   11   12 1   
    20   11   30 1   
    21   11   31 1   
    22   12   13 ar  
    23   12   17 ar  
    24   13   14 ar  
    25   13   32 1   
    26   14   15 ar  
    27   14   33 1   
    28   15   16 ar  
    29   15   23 1   
    30   16   17 ar  
    31   16   21 1   
    32   17   18 1   
    33   18   19 1   
    34   18   20 1   
    35   21   22 1   
    36   22   23 1   
    37   22   34 1   
    38   22   35 1   
@<TRIPOS>SUBSTRUCTURE
     1 CIW         1 TEMP              0 ****  ****    0 ROOT
