@<TRIPOS>MOLECULE
CIW
   35    38     1     0     0
SMALL
bcc


@<TRIPOS>ATOM
      1 C1          0.7570   -0.2510   -0.1520 ca        1 CIW     -0.025600
      2 C2          2.1130   -0.2630    0.1800 ca        1 CIW     -0.092000
      3 C3          2.5320   -0.1650    1.5100 ca        1 CIW     -0.134000
      4 C4          1.5510   -0.0600    2.4980 ca        1 CIW      0.064600
      5 C5          0.1600   -0.0380    2.1470 ca        1 CIW     -0.157300
      6 C6         -0.2390   -0.1340    0.8310 ca        1 CIW     -0.093000
      7 C7         -0.6460    0.1030    3.3980 c3        1 CIW     -0.105100
      8 C8          0.4340    0.1710    4.4950 c         1 CIW      0.692500
      9 O9          0.2210    0.3080    5.7080 o         1 CIW     -0.628500
     10 N10         1.7010    0.0170    3.9000 n         1 CIW     -0.358000
     11 C11         2.9640    0.1420    4.5810 c3        1 CIW      0.141300
     12 C12         3.5680    1.5210    4.5820 ca        1 CIW     -0.109300
     13 C13         2.8080    2.5950    5.0530 ca        1 CIW     -0.132000
     14 C14         3.3090    3.9050    5.0910 ca        1 CIW     -0.146000
     15 C15         4.6030    4.0690    4.6420 ca        1 CIW      0.040100
     16 C16         5.3850    2.9790    4.1800 ca        1 CIW      0.062100
     17 C17         4.9030    1.6820    4.1410 ca        1 CIW     -0.065600
     18 C18         5.7560    0.4990    3.6920 c         1 CIW      0.922200
     19 O19         5.5000   -0.0150    2.5650 o         1 CIW     -0.815300
     20 O20         6.6400    0.0830    4.4830 o         1 CIW     -0.815300
     21 O21         6.6410    3.4570    3.7970 os        1 CIW     -0.311900
     22 C22         6.6420    4.8750    4.0380 c3        1 CIW      0.318200
     23 O23         5.3490    5.2450    4.5650 os        1 CIW     -0.356900
     24 CL24        0.2870   -0.3760   -1.7890 cl        1 CIW     -0.133400
     25 H2          2.8770   -0.3470   -0.6100 ha        1 CIW      0.150000
     26 H3          3.6150   -0.1580    1.7670 ha        1 CIW      0.235000
     27 H6         -1.3020   -0.1180    0.5570 ha        1 CIW      0.135000
     28 H7         -1.3120   -0.7750    3.5810 hc        1 CIW      0.081200
     29 H7A        -1.2570    1.0380    3.4120 hc        1 CIW      0.081200
     30 H11         3.6860   -0.5840    4.0960 h1        1 CIW      0.091200
     31 H11A        2.7910   -0.1700    5.6530 h1        1 CIW      0.091200
     32 H13         1.7830    2.4110    5.4140 ha        1 CIW      0.132000
     33 H14         2.7070    4.7430    5.4590 ha        1 CIW      0.133000
     34 H22         6.7960    5.4060    3.0670 h2        1 CIW      0.051700
     35 H22A        7.4200    5.1120    4.8060 h2        1 CIW      0.051700
@<TRIPOS>BOND
     1    1    2 ar  
     2    1    6 ar  
     3    1   24 1   
     4    2    3 ar  
     5    2   25 1   
     6    3    4 ar  
     7    3   26 1   
     8    4    5 ar  
     9    4   10 1   
    10    5    6 ar  
    11    5    7 1   
    12    6   27 1   
    13    7    8 1   
    14    7   28 1   
    15    7   29 1   
    16    8    9 2   
    17    8   10 1   
    18   10   11 1   
    19   11   12 1   
    20   11   30 1   
    21   11   31 1   
    22   12   13 ar  
    23   12   17 ar  
    24   13   14 ar  
    25   13   32 1   
    26   14   15 ar  
    27   14   33 1   
    28   15   16 ar  
    29   15   23 1   
    30   16   17 ar  
    31   16   21 1   
    32   17   18 1   
    33   18   19 1   
    34   18   20 1   
    35   21   22 1   
    36   22   23 1   
    37   22   34 1   
    38   22   35 1   
@<TRIPOS>SUBSTRUCTURE
     1 CIW         1 TEMP              0 ****  ****    0 ROOT
