@<TRIPOS>MOLECULE
CIW
   35    38     1     0     0
SMALL
bcc


@<TRIPOS>ATOM
      1 C1          3.8800   -0.9540   -1.1140 ca        1 CIW     -0.025600
      2 C2          2.6660   -0.9190   -1.8040 ca        1 CIW     -0.092000
      3 C3          1.6140   -0.1070   -1.3720 ca        1 CIW     -0.134000
      4 C4          1.8150    0.6720   -0.2300 ca        1 CIW      0.064600
      5 C5          3.0610    0.6220    0.4780 ca        1 CIW     -0.157300
      6 C6          4.0910   -0.1850    0.0410 ca        1 CIW     -0.093000
      7 C7          2.9780    1.5360    1.6580 c3        1 CIW     -0.105100
      8 C8          1.5470    2.1000    1.5520 c         1 CIW      0.692500
      9 O9          1.0280    2.8990    2.3440 o         1 CIW     -0.628500
     10 N10         0.9390    1.5890    0.3890 n         1 CIW     -0.358000
     11 C11        -0.4360    1.7930    0.0080 c3        1 CIW      0.141300
     12 C12        -1.4060    0.7520    0.4990 ca        1 CIW     -0.109300
     13 C13        -1.4600    0.4640    1.8650 ca        1 CIW     -0.132000
     14 C14        -2.3460   -0.4880    2.3940 ca        1 CIW     -0.146000
     15 C15        -3.1680   -1.1180    1.4820 ca        1 CIW      0.040100
     16 C16        -3.1300   -0.8160    0.0970 ca        1 CIW      0.062100
     17 C17        -2.2630    0.1230   -0.4360 ca        1 CIW     -0.065600
     18 C18        -2.2520    0.4880   -1.9170 c         1 CIW      0.922200
     19 O19        -1.2790    0.0820   -2.6150 o         1 CIW     -0.815300
     20 O20        -3.1940    1.1990   -2.3500 o         1 CIW     -0.815300
     21 O21        -4.0720   -1.6090   -0.5630 os        1 CIW     -0.311900
     22 C22        -4.7180   -2.4140    0.4390 c3        1 CIW      0.318200
     23 O23        -4.1330   -2.0970    1.7210 os        1 CIW     -0.356900
     24 CL24        5.1430   -1.9570   -1.6770 cl        1 CIW     -0.133400
     25 H2          2.5220   -1.5380   -2.7030 ha        1 CIW      0.150000
     26 H3          0.6430   -0.0970   -1.9160 ha        1 CIW      0.235000
     27 H6          5.0470   -0.2260    0.5800 ha        1 CIW      0.135000
     28 H7          3.0980    0.9960    2.6280 hc        1 CIW      0.081200
     29 H7A         3.7160    2.3720    1.6070 hc        1 CIW      0.081200
     30 H11        -0.7480    2.7940    0.4280 h1        1 CIW      0.091200
     31 H11A       -0.4730    1.8370   -1.1230 h1        1 CIW      0.091200
     32 H13        -0.7920    1.0040    2.5550 ha        1 CIW      0.132000
     33 H14        -2.3810   -0.7120    3.4650 ha        1 CIW      0.133000
     34 H22        -5.8050   -2.1520    0.4690 h2        1 CIW      0.051700
     35 H22A       -4.5240   -3.4920    0.2160 h2        1 CIW      0.051700
@<TRIPOS>BOND
     1    1    2 ar  
     2    1    6 ar  
     3    1   24 1   
     4    2    3 ar  
     5    2   25 1   
     6    3    4 ar  
     7    3   26 1   
     8    4    5 ar  
     9    4   10 1   
    10    5    6 ar  
    11    5    7 1   
    12    6   27 1   
    13    7    8 1   
    14    7   28 1   
    15    7   29 1   
    16    8    9 2   
    17    8   10 1   
    18   10   11 1   
    19   11   12 1   
    20   11   30 1   
    21   11   31 1   
    22   12   13 ar  
    23   12   17 ar  
    24   13   14 ar  
    25   13   32 1   
    26   14   15 ar  
    27   14   33 1   
    28   15   16 ar  
    29   15   23 1   
    30   16   17 ar  
    31   16   21 1   
    32   17   18 1   
    33   18   19 1   
    34   18   20 1   
    35   21   22 1   
    36   22   23 1   
    37   22   34 1   
    38   22   35 1   
@<TRIPOS>SUBSTRUCTURE
     1 CIW         1 TEMP              0 ****  ****    0 ROOT
