@<TRIPOS>MOLECULE
CIW
   35    33     1     0     0
SMALL
bcc


@<TRIPOS>ATOM
      1 C1         -2.9070    3.2770   -2.5840 c1        1 CIW     -0.104000
      2 C2         -1.5060    3.3280   -2.5720 c1        1 CIW     -0.113000
      3 C3         -0.7840    2.5400   -1.6680 c1        1 CIW     -0.113000
      4 C4         -1.4620    1.6990   -0.7750 c1        1 CIW      0.072000
      5 C5         -2.8610    1.6480   -0.7880 c1        1 CIW     -0.150000
      6 C6         -3.5840    2.4380   -1.6940 c1        1 CIW     -0.093000
      7 C7         -3.3010    0.5940    0.2090 c3        1 CIW     -0.141000
      8 C8         -2.1270    0.4740    1.1110 c2        1 CIW      0.300000
      9 O9         -2.1370    0.0210    2.2450 o         1 CIW     -0.353000
     10 N10        -0.9880    0.9730    0.4200 n         1 CIW     -0.261000
     11 C11         0.3830    0.9110    0.8880 c3        1 CIW      0.018000
     12 C12         0.8940   -0.5270    0.7780 c2        1 CIW     -0.102000
     13 C13        -0.0030   -1.5710    0.5460 c2        1 CIW     -0.132000
     14 C14         0.4590   -2.8870    0.4740 c1        1 CIW     -0.146000
     15 C15         1.8340   -3.1620    0.6350 c1        1 CIW      0.006000
     16 C16         2.7260   -2.1250    0.8650 c1        1 CIW      0.006000
     17 C17         2.2570   -0.7970    0.9380 c1        1 CIW     -0.045000
     18 C18         3.2330    0.3370    1.1320 c2        1 CIW      0.371000
     19 O19         3.7530    0.8940    0.1350 o         1 CIW     -0.550000
     20 O20         3.5570    0.6960    2.2920 o         1 CIW     -0.550000
     21 O21         4.0260   -2.6890    1.0210 os        1 CIW     -0.217500
     22 C22         3.9100   -4.0830    0.9050 c3        1 CIW      0.096000
     23 O23         2.5760   -4.3790    0.5940 os        1 CIW     -0.217500
     24 CL24       -3.6700    3.9940   -3.9870 cl        1 CIW     -0.055000
     25 H2         -1.0310    3.9180   -3.1980 ha        1 CIW      0.192500
     26 H3          0.1940    2.5760   -1.6600 ha        1 CIW      0.192500
     27 H6         -4.5610    2.3720   -1.7300 ha        1 CIW      0.135000
     28 H7         -3.6970   -0.2460   -0.1070 hc        1 CIW      0.120500
     29 H7A        -4.0530    0.9690    0.7100 hc        1 CIW      0.120500
     30 H11         0.9400    1.4970    0.3430 h1        1 CIW      0.130500
     31 H11A        0.4210    1.2000    1.8230 h1        1 CIW      0.130500
     32 H13        -0.9510   -1.3780    0.4110 ha        1 CIW      0.132000
     33 H14        -0.1720   -3.6170    0.3500 ha        1 CIW      0.133000
     34 H22         4.1420   -4.5000    1.7660 h2        1 CIW      0.091000
     35 H22A        4.4900   -4.3960    0.1730 h2        1 CIW      0.091000
@<TRIPOS>BOND
     1    1    6 1   
     2    1   24 1   
     3    2    3 1   
     4    2   25 1   
     5    3   26 1   
     6    4    5 1   
     7    4   10 1   
     8    5    7 1   
     9    6   27 1   
    10    7    8 1   
    11    7   28 1   
    12    7   29 1   
    13    8    9 1   
    14    8   10 1   
    15   10   11 1   
    16   11   12 1   
    17   11   30 1   
    18   11   31 1   
    19   12   13 1   
    20   12   17 1   
    21   13   14 1   
    22   13   32 1   
    23   14   33 1   
    24   15   16 1   
    25   15   23 1   
    26   16   21 1   
    27   17   18 1   
    28   18   19 1   
    29   18   20 1   
    30   21   22 1   
    31   22   23 1   
    32   22   34 1   
    33   22   35 1   
@<TRIPOS>SUBSTRUCTURE
     1 CIW         1 TEMP              0 ****  ****    0 ROOT
