@<TRIPOS>MOLECULE
CIY
   23    23     1     0     0
SMALL
bcc


@<TRIPOS>ATOM
      1 C1         -0.0650   -0.5170   -0.0860 ca        1 CIY     -0.085800
      2 C2          1.3390   -0.4240   -0.1180 ca        1 CIY     -0.161000
      3 C3          2.0310    0.1140    0.9640 ca        1 CIY      0.102100
      4 O3          3.4010    0.2630    1.0340 os        1 CIY     -0.301900
      5 C4          1.3140    0.5570    2.1080 ca        1 CIY      0.116100
      6 O4          2.0520    1.0750    3.1420 oh        1 CIY     -0.471100
      7 C5         -0.0780    0.4480    2.1380 ca        1 CIY     -0.193000
      8 C6         -0.7610   -0.0860    1.0450 ca        1 CIY     -0.107000
      9 C7         -0.7510   -1.0980   -1.2310 ce        1 CIY     -0.040200
     10 C8         -1.8930   -0.6660   -1.7810 cf        1 CIY     -0.264200
     11 C9         -2.6340    0.5270   -1.3530 c         1 CIY      0.555100
     12 O9         -3.8140    0.7220   -1.6540 o         1 CIY     -0.526100
     13 C3M         4.1340   -0.1730   -0.1060 c3        1 CIY      0.109700
     14 H2          1.8800   -0.7760   -1.0090 ha        1 CIY      0.144000
     15 HO4         1.4360    1.3290    3.8460 ho        1 CIY      0.418000
     16 H5         -0.6350    0.7820    3.0260 ha        1 CIY      0.141000
     17 H6         -1.8570   -0.1790    1.0860 ha        1 CIY      0.141000
     18 H7         -0.2460   -1.9840   -1.6610 ha        1 CIY      0.132000
     19 H8         -2.3400   -1.2100   -2.6330 ha        1 CIY      0.149000
     20 H9         -2.0610    1.2660   -0.7470 h4        1 CIY      0.003200
     21 H3M         3.9890   -1.2670   -0.2760 h1        1 CIY      0.045700
     22 H3MA        5.1960    0.0460    0.1730 h1        1 CIY      0.045700
     23 H3MB        3.8370    0.4080   -1.0140 h1        1 CIY      0.045700
@<TRIPOS>BOND
     1    1    2 ar  
     2    1    8 ar  
     3    1    9 1   
     4    2    3 ar  
     5    2   14 1   
     6    3    4 1   
     7    3    5 ar  
     8    4   13 1   
     9    5    6 1   
    10    5    7 ar  
    11    6   15 1   
    12    7    8 ar  
    13    7   16 1   
    14    8   17 1   
    15    9   10 2   
    16    9   18 1   
    17   10   11 1   
    18   10   19 1   
    19   11   12 2   
    20   11   20 1   
    21   13   21 1   
    22   13   22 1   
    23   13   23 1   
@<TRIPOS>SUBSTRUCTURE
     1 CIY         1 TEMP              0 ****  ****    0 ROOT
