@<TRIPOS>MOLECULE
CIY
   23    23     1     0     0
SMALL
bcc


@<TRIPOS>ATOM
      1 C1         -0.5550   -0.0220   -0.0690 ca        1 CIY     -0.087800
      2 C2          0.5740    0.8170   -0.0160 ca        1 CIY     -0.141000
      3 C3          1.8480    0.2620    0.0480 ca        1 CIY      0.038100
      4 O3          3.0300    0.9830    0.1010 os        1 CIY     -0.347900
      5 C4          2.0160   -1.1450    0.0540 ca        1 CIY      0.130100
      6 O4          3.2450   -1.7500    0.1130 oh        1 CIY     -0.490100
      7 C5          0.8910   -1.9750   -0.0060 ca        1 CIY     -0.144000
      8 C6         -0.3810   -1.4110   -0.0660 ca        1 CIY     -0.095000
      9 C7         -1.8700    0.5910   -0.1340 ce        1 CIY     -0.032200
     10 C8         -3.0330   -0.0440    0.0810 cf        1 CIY     -0.272200
     11 C9         -4.3220    0.6520   -0.0080 c         1 CIY      0.560100
     12 O9         -5.4020    0.0880    0.1840 o         1 CIY     -0.524100
     13 C3M         2.8970    2.3970    0.1850 c3        1 CIY      0.120700
     14 H2          0.4400    1.9080   -0.0230 ha        1 CIY      0.140000
     15 HO4         3.9230   -1.0580    0.1590 ho        1 CIY      0.440000
     16 H5          1.0280   -3.0660   -0.0050 ha        1 CIY      0.158000
     17 H6         -1.2570   -2.0760   -0.1180 ha        1 CIY      0.143000
     18 H7         -1.8690    1.6710   -0.3750 ha        1 CIY      0.123000
     19 H8         -3.0880   -1.1140    0.3390 ha        1 CIY      0.150000
     20 H9         -4.2750    1.7370   -0.2620 h4        1 CIY     -0.009800
     21 H3M         2.3160    2.6850    1.0950 h1        1 CIY      0.047367
     22 H3MA        3.9550    2.7530    0.2600 h1        1 CIY      0.047367
     23 H3MB        2.4090    2.7990   -0.7360 h1        1 CIY      0.047367
@<TRIPOS>BOND
     1    1    2 ar  
     2    1    8 ar  
     3    1    9 1   
     4    2    3 ar  
     5    2   14 1   
     6    3    4 1   
     7    3    5 ar  
     8    4   13 1   
     9    5    6 1   
    10    5    7 ar  
    11    6   15 1   
    12    7    8 ar  
    13    7   16 1   
    14    8   17 1   
    15    9   10 2   
    16    9   18 1   
    17   10   11 1   
    18   10   19 1   
    19   11   12 2   
    20   11   20 1   
    21   13   21 1   
    22   13   22 1   
    23   13   23 1   
@<TRIPOS>SUBSTRUCTURE
     1 CIY         1 TEMP              0 ****  ****    0 ROOT
