@<TRIPOS>MOLECULE
CIY
   23    23     1     0     0
SMALL
bcc


@<TRIPOS>ATOM
      1 C1         -0.0550   -0.5260   -0.0920 ca        1 CIY     -0.085800
      2 C2          1.3470   -0.4110   -0.1150 ca        1 CIY     -0.161000
      3 C3          2.0240    0.1340    0.9730 ca        1 CIY      0.102100
      4 O3          3.3910    0.3030    1.0510 os        1 CIY     -0.301900
      5 C4          1.2930    0.5620    2.1140 ca        1 CIY      0.116100
      6 O4          2.0180    1.0870    3.1550 oh        1 CIY     -0.471100
      7 C5         -0.0970    0.4310    2.1360 ca        1 CIY     -0.193000
      8 C6         -0.7650   -0.1090    1.0370 ca        1 CIY     -0.107000
      9 C7         -0.7260   -1.1130   -1.2420 ce        1 CIY     -0.040200
     10 C8         -1.8710   -0.6970   -1.7980 cf        1 CIY     -0.264200
     11 C9         -2.6330    0.4820   -1.3700 c         1 CIY      0.555100
     12 O9         -3.8150    0.6600   -1.6770 o         1 CIY     -0.526100
     13 C3M         4.1370   -0.1170   -0.0850 c3        1 CIY      0.109700
     14 H2          1.8990   -0.7520   -1.0040 ha        1 CIY      0.144000
     15 HO4         1.3930    1.3290    3.8550 ho        1 CIY      0.418000
     16 H5         -0.6640    0.7530    3.0210 ha        1 CIY      0.141000
     17 H6         -1.8600   -0.2200    1.0710 ha        1 CIY      0.141000
     18 H7         -0.2040   -1.9890   -1.6730 ha        1 CIY      0.132000
     19 H8         -2.3040   -1.2440   -2.6540 ha        1 CIY      0.149000
     20 H9         -2.0750    1.2280   -0.7580 h4        1 CIY      0.003200
     21 H3M         4.0100   -1.2140   -0.2590 h1        1 CIY      0.045700
     22 H3MA        5.1940    0.1170    0.2020 h1        1 CIY      0.045700
     23 H3MB        3.8380    0.4620   -0.9920 h1        1 CIY      0.045700
@<TRIPOS>BOND
     1    1    2 ar  
     2    1    8 ar  
     3    1    9 1   
     4    2    3 ar  
     5    2   14 1   
     6    3    4 1   
     7    3    5 ar  
     8    4   13 1   
     9    5    6 1   
    10    5    7 ar  
    11    6   15 1   
    12    7    8 ar  
    13    7   16 1   
    14    8   17 1   
    15    9   10 2   
    16    9   18 1   
    17   10   11 1   
    18   10   19 1   
    19   11   12 2   
    20   11   20 1   
    21   13   21 1   
    22   13   22 1   
    23   13   23 1   
@<TRIPOS>SUBSTRUCTURE
     1 CIY         1 TEMP              0 ****  ****    0 ROOT
