@<TRIPOS>MOLECULE
CIY
   23    19     1     0     0
SMALL
bcc


@<TRIPOS>ATOM
      1 C1         -0.9590    0.1890   -0.5370 c1        1 CIY     -0.079000
      2 C2          0.4270    0.1960   -0.5130 c1        1 CIY     -0.145000
      3 C3          1.0990    0.1890    0.6990 c1        1 CIY     -0.003000
      4 O3          2.5030    0.1480    0.7220 os        1 CIY     -0.231000
      5 C4          0.3860    0.1770    1.8870 c1        1 CIY      0.080000
      6 O4          1.0680    0.2290    3.1170 oh        1 CIY     -0.244000
      7 C5         -1.0000    0.1700    1.8630 c1        1 CIY     -0.140000
      8 C6         -1.6720    0.1770    0.6510 c1        1 CIY     -0.109000
      9 C7         -1.6930    0.2610   -1.8590 c2        1 CIY     -0.052000
     10 C8         -1.9730   -0.8700   -2.5360 c1        1 CIY     -0.245000
     11 C9         -1.5540   -2.2100   -1.9750 c1        1 CIY      0.204000
     12 O9         -2.3130   -2.8330   -1.2580 o         1 CIY     -0.287000
     13 C3M         3.1150    1.4070    0.5530 c3        1 CIY     -0.069000
     14 H2          0.9290    0.2050   -1.3500 ha        1 CIY      0.142000
     15 HO4         1.1070   -0.5860    3.4690 ho        1 CIY      0.238000
     16 H5         -1.5020    0.1620    2.7000 ha        1 CIY      0.158000
     17 H6         -2.6480    0.1720    0.6350 ha        1 CIY      0.143000
     18 H7         -1.9640    1.1260   -2.2200 ha        1 CIY      0.131000
     19 H8         -2.4460   -0.8230   -3.3880 ha        1 CIY      0.149000
     20 H9         -0.6780   -2.5820   -2.2000 ha        1 CIY      0.097000
     21 H3M         3.7550    1.3620   -0.1900 h1        1 CIY      0.086667
     22 H3MA        3.5860    1.6550    1.3770 h1        1 CIY      0.086667
     23 H3MB        2.4290    2.0790    0.3530 h1        1 CIY      0.086667
@<TRIPOS>BOND
     1    1    8 1   
     2    1    9 1   
     3    2    3 1   
     4    2   14 1   
     5    3    4 1   
     6    4   13 1   
     7    5    6 1   
     8    5    7 1   
     9    6   15 1   
    10    7   16 1   
    11    8   17 1   
    12    9   10 1   
    13    9   18 1   
    14   10   19 1   
    15   11   12 1   
    16   11   20 1   
    17   13   21 1   
    18   13   22 1   
    19   13   23 1   
@<TRIPOS>SUBSTRUCTURE
     1 CIY         1 TEMP              0 ****  ****    0 ROOT
