@<TRIPOS>MOLECULE
CJ5
   63    67     1     0     0
SMALL
bcc


@<TRIPOS>ATOM
      1 O01        -0.3050   -0.1100    0.1960 o         1 CJ5     -0.607100
      2 C02         0.9380   -0.2020    0.2920 c         1 CJ5      0.769100
      3 N03         1.5700   -0.3810    1.5460 n         1 CJ5     -0.466100
      4 C04         0.8920   -0.2400    2.7720 ca        1 CJ5      0.064600
      5 C05        -0.4610   -0.6110    2.9400 ca        1 CJ5     -0.109000
      6 C06        -1.0620   -0.5160    4.1910 ca        1 CJ5     -0.113000
      7 C07        -0.3470   -0.0640    5.2990 ca        1 CJ5     -0.105000
      8 C08         0.9890    0.3030    5.1380 ca        1 CJ5     -0.143300
      9 C09         1.7810    0.8170    6.3350 c3        1 CJ5      0.686200
     10 F10         1.3640    0.3290    7.5500 f         1 CJ5     -0.237300
     11 F11         3.1240    0.5260    6.3000 f         1 CJ5     -0.237300
     12 F12         1.7410    2.1820    6.4920 f         1 CJ5     -0.237300
     13 C13         1.6130    0.2270    3.8960 ca        1 CJ5     -0.139000
     14 N14         1.7850   -0.1230   -0.8350 n         1 CJ5     -0.455100
     15 C15         1.3050   -0.2280   -2.1580 ca        1 CJ5      0.043600
     16 C16         0.0620    0.3020   -2.5580 ca        1 CJ5     -0.143000
     17 C17        -0.3390    0.2280   -3.8850 ca        1 CJ5     -0.114000
     18 C18         2.1300   -0.8240   -3.1380 ca        1 CJ5     -0.143000
     19 C19         1.7350   -0.8800   -4.4680 ca        1 CJ5     -0.114000
     20 C20         0.4870   -0.3610   -4.8660 ca        1 CJ5      0.110600
     21 N21         0.0980   -0.3380   -6.2270 nh        1 CJ5     -0.699300
     22 C22        -0.0730   -1.5370   -6.9610 ca        1 CJ5      0.888900
     23 N23         0.5980   -2.6820   -6.5610 nb        1 CJ5     -0.756000
     24 C24         0.4540   -3.7520   -7.3600 ca        1 CJ5      0.478200
     25 C25        -0.3130   -3.7630   -8.5270 ca        1 CJ5     -0.456600
     26 C26        -0.9780   -2.5420   -8.8740 ca        1 CJ5      0.702200
     27 N27        -1.6820   -2.4980  -10.0920 nh        1 CJ5     -0.788600
     28 C28        -2.5560   -1.4380  -10.3890 cc        1 CJ5      0.502200
     29 N29        -3.8750   -1.6000  -10.7840 nd        1 CJ5     -0.551800
     30 N30        -4.3300   -0.3850  -11.0570 na        1 CJ5     -0.004600
     31 C31        -3.3760    0.6220  -10.8520 cd        1 CJ5     -0.095600
     32 C32        -3.6040    2.0660  -11.0690 c3        1 CJ5     -0.003400
     33 C33        -3.9740    2.4120  -12.5150 c3        1 CJ5     -0.076400
     34 C34        -4.9310    3.5950  -12.4520 c3        1 CJ5     -0.082400
     35 C35        -5.3960    3.7380  -11.0080 c3        1 CJ5     -0.082400
     36 C36        -4.7210    2.6430  -10.1940 c3        1 CJ5     -0.076400
     37 C37        -2.2080   -0.0270  -10.4190 cc        1 CJ5     -0.251300
     38 N38        -0.8820   -1.4340   -8.0830 nb        1 CJ5     -0.788000
     39 H031        2.5520   -0.2170    1.5990 hn        1 CJ5      0.311500
     40 H051       -1.0520   -0.9680    2.0790 ha        1 CJ5      0.178000
     41 H061       -2.1180   -0.8070    4.3060 ha        1 CJ5      0.146000
     42 H071       -0.8240    0.0020    6.2890 ha        1 CJ5      0.153000
     43 H131        2.6700    0.5250    3.8090 ha        1 CJ5      0.147000
     44 H141        2.7310   -0.4160   -0.7220 hn        1 CJ5      0.308500
     45 H161       -0.6120    0.7660   -1.8180 ha        1 CJ5      0.150500
     46 H171       -1.3210    0.6450   -4.1600 ha        1 CJ5      0.148000
     47 H181        3.1090   -1.2480   -2.8640 ha        1 CJ5      0.150500
     48 H191        2.4110   -1.3410   -5.2060 ha        1 CJ5      0.148000
     49 H211       -0.5830    0.3670   -6.4370 hn        1 CJ5      0.434800
     50 H241        0.9920   -4.6610   -7.0290 h4        1 CJ5      0.026100
     51 H251       -0.3930   -4.6620   -9.1460 ha        1 CJ5      0.154000
     52 H271       -2.0020   -3.3990  -10.3920 hn        1 CJ5      0.432800
     53 H301       -5.2600   -0.2630  -11.3840 hn        1 CJ5      0.322700
     54 H321       -2.6400    2.5910  -10.8110 hc        1 CJ5      0.071700
     55 H332       -3.0570    2.6640  -13.1020 hc        1 CJ5      0.047200
     56 H331       -4.4650    1.5450  -13.0230 hc        1 CJ5      0.047200
     57 H341       -5.8000    3.4330  -13.1360 hc        1 CJ5      0.044200
     58 H342       -4.4150    4.5300  -12.7870 hc        1 CJ5      0.044200
     59 H351       -6.5090    3.6480  -10.9390 hc        1 CJ5      0.044200
     60 H352       -5.1200    4.7460  -10.6100 hc        1 CJ5      0.044200
     61 H362       -5.4630    1.8530   -9.9170 hc        1 CJ5      0.047200
     62 H361       -4.3000    3.0490   -9.2420 hc        1 CJ5      0.047200
     63 H371       -1.2550    0.4130  -10.1470 ha        1 CJ5      0.180000
@<TRIPOS>BOND
     1    1    2 2   
     2    2    3 1   
     3    2   14 1   
     4    3    4 1   
     5    3   39 1   
     6    4    5 ar  
     7    4   13 ar  
     8    5    6 ar  
     9    5   40 1   
    10    6    7 ar  
    11    6   41 1   
    12    7    8 ar  
    13    7   42 1   
    14    8    9 1   
    15    8   13 ar  
    16    9   10 1   
    17    9   11 1   
    18    9   12 1   
    19   13   43 1   
    20   14   15 1   
    21   14   44 1   
    22   15   16 ar  
    23   15   18 ar  
    24   16   17 ar  
    25   16   45 1   
    26   17   20 ar  
    27   17   46 1   
    28   18   19 ar  
    29   18   47 1   
    30   19   20 ar  
    31   19   48 1   
    32   20   21 1   
    33   21   22 1   
    34   21   49 1   
    35   22   23 ar  
    36   22   38 ar  
    37   23   24 ar  
    38   24   25 ar  
    39   24   50 1   
    40   25   26 ar  
    41   25   51 1   
    42   26   27 1   
    43   26   38 ar  
    44   27   28 1   
    45   27   52 1   
    46   28   29 2   
    47   28   37 1   
    48   29   30 1   
    49   30   31 1   
    50   30   53 1   
    51   31   32 1   
    52   31   37 2   
    53   32   33 1   
    54   32   36 1   
    55   32   54 1   
    56   33   34 1   
    57   33   55 1   
    58   33   56 1   
    59   34   35 1   
    60   34   57 1   
    61   34   58 1   
    62   35   36 1   
    63   35   59 1   
    64   35   60 1   
    65   36   61 1   
    66   36   62 1   
    67   37   63 1   
@<TRIPOS>SUBSTRUCTURE
     1 CJ5         1 TEMP              0 ****  ****    0 ROOT
