@<TRIPOS>MOLECULE
CJ5
   63    67     1     0     0
SMALL
bcc


@<TRIPOS>ATOM
      1 O01        -0.3000   -0.1150    0.1950 o         1 CJ5     -0.607100
      2 C02         0.9430   -0.2050    0.2890 c         1 CJ5      0.769100
      3 N03         1.5760   -0.3830    1.5440 n         1 CJ5     -0.466100
      4 C04         0.8990   -0.2410    2.7700 ca        1 CJ5      0.064600
      5 C05        -0.4530   -0.6140    2.9390 ca        1 CJ5     -0.109000
      6 C06        -1.0520   -0.5190    4.1920 ca        1 CJ5     -0.113000
      7 C07        -0.3370   -0.0640    5.2980 ca        1 CJ5     -0.105000
      8 C08         0.9990    0.3040    5.1360 ca        1 CJ5     -0.143300
      9 C09         1.7920    0.8200    6.3310 c3        1 CJ5      0.686200
     10 F10         1.3760    0.3350    7.5470 f         1 CJ5     -0.237300
     11 F11         3.1350    0.5290    6.2960 f         1 CJ5     -0.237300
     12 F12         1.7520    2.1860    6.4850 f         1 CJ5     -0.237300
     13 C13         1.6210    0.2270    3.8920 ca        1 CJ5     -0.139000
     14 N14         1.7880   -0.1240   -0.8380 n         1 CJ5     -0.455100
     15 C15         1.3080   -0.2290   -2.1610 ca        1 CJ5      0.043600
     16 C16         0.0630    0.2990   -2.5590 ca        1 CJ5     -0.143000
     17 C17        -0.3390    0.2250   -3.8860 ca        1 CJ5     -0.114000
     18 C18         2.1340   -0.8210   -3.1430 ca        1 CJ5     -0.143000
     19 C19         1.7380   -0.8760   -4.4720 ca        1 CJ5     -0.114000
     20 C20         0.4880   -0.3600   -4.8680 ca        1 CJ5      0.110600
     21 N21         0.0980   -0.3370   -6.2290 nh        1 CJ5     -0.699300
     22 C22        -0.0710   -1.5340   -6.9650 ca        1 CJ5      0.888900
     23 N23         0.6050   -2.6790   -6.5670 nb        1 CJ5     -0.756000
     24 C24         0.4620   -3.7480   -7.3680 ca        1 CJ5      0.478200
     25 C25        -0.3060   -3.7590   -8.5350 ca        1 CJ5     -0.456600
     26 C26        -0.9750   -2.5390   -8.8780 ca        1 CJ5      0.702200
     27 N27        -1.6800   -2.4950  -10.0950 nh        1 CJ5     -0.788600
     28 C28        -2.5580   -1.4370  -10.3890 cc        1 CJ5      0.502200
     29 N29        -3.8770   -1.6030  -10.7830 nd        1 CJ5     -0.551800
     30 N30        -4.3360   -0.3880  -11.0530 na        1 CJ5     -0.004600
     31 C31        -3.3850    0.6210  -10.8480 cd        1 CJ5     -0.095600
     32 C32        -3.6180    2.0650  -11.0620 c3        1 CJ5     -0.003400
     33 C33        -3.9910    2.4130  -12.5060 c3        1 CJ5     -0.076400
     34 C34        -4.9520    3.5930  -12.4400 c3        1 CJ5     -0.082400
     35 C35        -5.4160    3.7310  -10.9950 c3        1 CJ5     -0.082400
     36 C36        -4.7360    2.6370  -10.1840 c3        1 CJ5     -0.076400
     37 C37        -2.2140   -0.0250  -10.4170 cc        1 CJ5     -0.251300
     38 N38        -0.8810   -1.4320   -8.0850 nb        1 CJ5     -0.788000
     39 H031        2.5590   -0.2180    1.5950 hn        1 CJ5      0.311500
     40 H051       -1.0440   -0.9720    2.0790 ha        1 CJ5      0.178000
     41 H061       -2.1070   -0.8100    4.3080 ha        1 CJ5      0.146000
     42 H071       -0.8130    0.0020    6.2880 ha        1 CJ5      0.153000
     43 H131        2.6790    0.5260    3.8040 ha        1 CJ5      0.147000
     44 H141        2.7360   -0.4160   -0.7260 hn        1 CJ5      0.308500
     45 H161       -0.6110    0.7600   -1.8180 ha        1 CJ5      0.150500
     46 H171       -1.3220    0.6400   -4.1600 ha        1 CJ5      0.148000
     47 H181        3.1140   -1.2440   -2.8690 ha        1 CJ5      0.150500
     48 H191        2.4140   -1.3350   -5.2110 ha        1 CJ5      0.148000
     49 H211       -0.5850    0.3670   -6.4370 hn        1 CJ5      0.434800
     50 H241        1.0030   -4.6550   -7.0400 h4        1 CJ5      0.026100
     51 H251       -0.3840   -4.6570   -9.1550 ha        1 CJ5      0.154000
     52 H271       -1.9970   -3.3960  -10.3970 hn        1 CJ5      0.432800
     53 H301       -5.2660   -0.2680  -11.3800 hn        1 CJ5      0.322700
     54 H321       -2.6550    2.5930  -10.8040 hc        1 CJ5      0.071700
     55 H332       -4.4800    1.5450  -13.0150 hc        1 CJ5      0.047200
     56 H331       -3.0760    2.6690  -13.0940 hc        1 CJ5      0.047200
     57 H341       -5.8210    3.4290  -13.1230 hc        1 CJ5      0.044200
     58 H342       -4.4400    4.5300  -12.7740 hc        1 CJ5      0.044200
     59 H351       -5.1430    4.7390  -10.5950 hc        1 CJ5      0.044200
     60 H352       -6.5280    3.6370  -10.9250 hc        1 CJ5      0.044200
     61 H362       -4.3140    3.0420   -9.2320 hc        1 CJ5      0.047200
     62 H361       -5.4750    1.8440   -9.9070 hc        1 CJ5      0.047200
     63 H371       -1.2630    0.4180  -10.1460 ha        1 CJ5      0.180000
@<TRIPOS>BOND
     1    1    2 2   
     2    2    3 1   
     3    2   14 1   
     4    3    4 1   
     5    3   39 1   
     6    4    5 ar  
     7    4   13 ar  
     8    5    6 ar  
     9    5   40 1   
    10    6    7 ar  
    11    6   41 1   
    12    7    8 ar  
    13    7   42 1   
    14    8    9 1   
    15    8   13 ar  
    16    9   10 1   
    17    9   11 1   
    18    9   12 1   
    19   13   43 1   
    20   14   15 1   
    21   14   44 1   
    22   15   16 ar  
    23   15   18 ar  
    24   16   17 ar  
    25   16   45 1   
    26   17   20 ar  
    27   17   46 1   
    28   18   19 ar  
    29   18   47 1   
    30   19   20 ar  
    31   19   48 1   
    32   20   21 1   
    33   21   22 1   
    34   21   49 1   
    35   22   23 ar  
    36   22   38 ar  
    37   23   24 ar  
    38   24   25 ar  
    39   24   50 1   
    40   25   26 ar  
    41   25   51 1   
    42   26   27 1   
    43   26   38 ar  
    44   27   28 1   
    45   27   52 1   
    46   28   29 2   
    47   28   37 1   
    48   29   30 1   
    49   30   31 1   
    50   30   53 1   
    51   31   32 1   
    52   31   37 2   
    53   32   33 1   
    54   32   36 1   
    55   32   54 1   
    56   33   34 1   
    57   33   55 1   
    58   33   56 1   
    59   34   35 1   
    60   34   57 1   
    61   34   58 1   
    62   35   36 1   
    63   35   59 1   
    64   35   60 1   
    65   36   61 1   
    66   36   62 1   
    67   37   63 1   
@<TRIPOS>SUBSTRUCTURE
     1 CJ5         1 TEMP              0 ****  ****    0 ROOT
