@<TRIPOS>MOLECULE
CJ5
   63    67     1     0     0
SMALL
bcc


@<TRIPOS>ATOM
      1 O01        -0.3030   -0.1140    0.1930 o         1 CJ5     -0.607100
      2 C02         0.9390   -0.2040    0.2890 c         1 CJ5      0.769100
      3 N03         1.5710   -0.3810    1.5450 ns        1 CJ5     -0.466100
      4 C04         0.8920   -0.2390    2.7700 ca        1 CJ5      0.064600
      5 C05        -0.4600   -0.6120    2.9370 ca        1 CJ5     -0.109000
      6 C06        -1.0620   -0.5160    4.1880 ca        1 CJ5     -0.113000
      7 C07        -0.3490   -0.0600    5.2960 ca        1 CJ5     -0.105000
      8 C08         0.9870    0.3080    5.1350 ca        1 CJ5     -0.143300
      9 C09         1.7770    0.8260    6.3320 c3        1 CJ5      0.686200
     10 F10         1.3600    0.3410    7.5470 f         1 CJ5     -0.237300
     11 F11         3.1210    0.5370    6.2980 f         1 CJ5     -0.237300
     12 F12         1.7360    2.1920    6.4850 f         1 CJ5     -0.237300
     13 C13         1.6120    0.2310    3.8930 ca        1 CJ5     -0.139000
     14 N14         1.7870   -0.1240   -0.8360 ns        1 CJ5     -0.455100
     15 C15         1.3080   -0.2280   -2.1600 ca        1 CJ5      0.043600
     16 C16         0.0650    0.3000   -2.5600 ca        1 CJ5     -0.143000
     17 C17        -0.3350    0.2260   -3.8880 ca        1 CJ5     -0.114000
     18 C18         2.1360   -0.8210   -3.1410 ca        1 CJ5     -0.143000
     19 C19         1.7420   -0.8760   -4.4700 ca        1 CJ5     -0.114000
     20 C20         0.4930   -0.3600   -4.8690 ca        1 CJ5      0.110600
     21 N21         0.1050   -0.3360   -6.2300 nu        1 CJ5     -0.699300
     22 C22        -0.0630   -1.5340   -6.9660 ca        1 CJ5      0.888900
     23 N23         0.6130   -2.6780   -6.5680 nb        1 CJ5     -0.756000
     24 C24         0.4710   -3.7470   -7.3690 ca        1 CJ5      0.478200
     25 C25        -0.2970   -3.7580   -8.5360 ca        1 CJ5     -0.456600
     26 C26        -0.9660   -2.5390   -8.8800 ca        1 CJ5      0.702200
     27 N27        -1.6710   -2.4950  -10.0970 nu        1 CJ5     -0.788600
     28 C28        -2.5500   -1.4380  -10.3910 cc        1 CJ5      0.502200
     29 N29        -3.8690   -1.6050  -10.7840 nd        1 CJ5     -0.551800
     30 N30        -4.3300   -0.3900  -11.0540 na        1 CJ5     -0.004600
     31 C31        -3.3790    0.6200  -10.8480 cd        1 CJ5     -0.095600
     32 C32        -3.6140    2.0630  -11.0620 c3        1 CJ5     -0.003400
     33 C33        -3.9870    2.4120  -12.5060 c3        1 CJ5     -0.076400
     34 C34        -4.9490    3.5900  -12.4390 c3        1 CJ5     -0.082400
     35 C35        -5.4140    3.7270  -10.9950 c3        1 CJ5     -0.082400
     36 C36        -4.7320    2.6330  -10.1840 c3        1 CJ5     -0.076400
     37 C37        -2.2080   -0.0250  -10.4180 cc        1 CJ5     -0.251300
     38 N38        -0.8730   -1.4320   -8.0870 nb        1 CJ5     -0.788000
     39 H031        2.5540   -0.2170    1.5970 hn        1 CJ5      0.311500
     40 H051       -1.0500   -0.9710    2.0760 ha        1 CJ5      0.178000
     41 H061       -2.1170   -0.8080    4.3030 ha        1 CJ5      0.146000
     42 H071       -0.8270    0.0070    6.2850 ha        1 CJ5      0.153000
     43 H131        2.6690    0.5300    3.8070 ha        1 CJ5      0.147000
     44 H141        2.7340   -0.4160   -0.7230 hn        1 CJ5      0.308500
     45 H161       -0.6110    0.7610   -1.8200 ha        1 CJ5      0.150500
     46 H171       -1.3180    0.6410   -4.1630 ha        1 CJ5      0.148000
     47 H181        3.1150   -1.2440   -2.8660 ha        1 CJ5      0.150500
     48 H191        2.4190   -1.3350   -5.2080 ha        1 CJ5      0.148000
     49 H211       -0.5780    0.3670   -6.4390 hn        1 CJ5      0.434800
     50 H241        1.0120   -4.6550   -7.0400 h4        1 CJ5      0.026100
     51 H251       -0.3740   -4.6560   -9.1570 ha        1 CJ5      0.154000
     52 H271       -1.9880   -3.3970  -10.3990 hn        1 CJ5      0.432800
     53 H301       -5.2600   -0.2710  -11.3800 hn        1 CJ5      0.322700
     54 H321       -2.6520    2.5920  -10.8040 hc        1 CJ5      0.071700
     55 H332       -3.0720    2.6690  -13.0940 hc        1 CJ5      0.047200
     56 H331       -4.4750    1.5430  -13.0150 hc        1 CJ5      0.047200
     57 H341       -5.8180    3.4260  -13.1230 hc        1 CJ5      0.044200
     58 H342       -4.4380    4.5290  -12.7720 hc        1 CJ5      0.044200
     59 H351       -6.5260    3.6320  -10.9240 hc        1 CJ5      0.044200
     60 H352       -5.1420    4.7360  -10.5940 hc        1 CJ5      0.044200
     61 H362       -4.3110    3.0400   -9.2310 hc        1 CJ5      0.047200
     62 H361       -5.4700    1.8400   -9.9070 hc        1 CJ5      0.047200
     63 H371       -1.2570    0.4180  -10.1470 ha        1 CJ5      0.180000
@<TRIPOS>BOND
     1    1    2 2   
     2    2    3 1   
     3    2   14 1   
     4    3    4 1   
     5    3   39 1   
     6    4    5 ar  
     7    4   13 ar  
     8    5    6 ar  
     9    5   40 1   
    10    6    7 ar  
    11    6   41 1   
    12    7    8 ar  
    13    7   42 1   
    14    8    9 1   
    15    8   13 ar  
    16    9   10 1   
    17    9   11 1   
    18    9   12 1   
    19   13   43 1   
    20   14   15 1   
    21   14   44 1   
    22   15   16 ar  
    23   15   18 ar  
    24   16   17 ar  
    25   16   45 1   
    26   17   20 ar  
    27   17   46 1   
    28   18   19 ar  
    29   18   47 1   
    30   19   20 ar  
    31   19   48 1   
    32   20   21 1   
    33   21   22 1   
    34   21   49 1   
    35   22   23 ar  
    36   22   38 ar  
    37   23   24 ar  
    38   24   25 ar  
    39   24   50 1   
    40   25   26 ar  
    41   25   51 1   
    42   26   27 1   
    43   26   38 ar  
    44   27   28 1   
    45   27   52 1   
    46   28   29 2   
    47   28   37 1   
    48   29   30 1   
    49   30   31 1   
    50   30   53 1   
    51   31   32 1   
    52   31   37 2   
    53   32   33 1   
    54   32   36 1   
    55   32   54 1   
    56   33   34 1   
    57   33   55 1   
    58   33   56 1   
    59   34   35 1   
    60   34   57 1   
    61   34   58 1   
    62   35   36 1   
    63   35   59 1   
    64   35   60 1   
    65   36   61 1   
    66   36   62 1   
    67   37   63 1   
@<TRIPOS>SUBSTRUCTURE
     1 CJ5         1 TEMP              0 ****  ****    0 ROOT
