@<TRIPOS>MOLECULE
CJB
   33    34     1     0     0
SMALL
bcc


@<TRIPOS>ATOM
      1 N1          1.3410   -0.2030    1.0690 n         1 CJB     -0.365000
      2 O2         -0.5840    0.3380    2.2730 o         1 CJB     -0.632500
      3 C2          0.6200    0.1300    2.3060 c         1 CJB      0.820500
      4 N3          1.3450    0.2010    3.5890 n         1 CJB     -0.586500
      5 C4          2.7620   -0.0010    3.6270 c         1 CJB      0.715700
      6 O4          3.3780    0.1380    4.6930 o         1 CJB     -0.605500
      7 C5          3.4940   -0.3330    2.3890 cc        1 CJB     -0.312200
      8 C6          2.7700   -0.4090    1.1030 cd        1 CJB      0.058600
      9 C1'         0.6720   -0.1440   -0.1610 c3        1 CJB      0.328500
     10 O5'        -0.1490    1.1010   -0.2050 os        1 CJB     -0.426600
     11 C5'        -1.0260    1.1710   -1.3950 c3        1 CJB      0.079100
     12 C6'        -1.9390    2.3530   -1.2570 c3        1 CJB      0.137400
     13 O6'        -1.1800    3.5190   -1.1890 oh        1 CJB     -0.593800
     14 C4'        -1.8680   -0.0720   -1.5700 c3        1 CJB      0.075100
     15 O4'        -2.5430    0.0030   -2.8320 oh        1 CJB     -0.585800
     16 C3'        -1.0500   -1.3270   -1.5340 c3        1 CJB      0.075100
     17 O3'        -1.9310   -2.4500   -1.5250 oh        1 CJB     -0.598800
     18 C2'        -0.1670   -1.3940   -0.3270 c3        1 CJB      0.113100
     19 O2'         0.7070   -2.5380   -0.4490 oh        1 CJB     -0.597800
     20 HN3         0.8780    0.4150    4.3840 hn        1 CJB      0.353500
     21 H5          4.4440   -0.4690    2.4150 ha        1 CJB      0.181000
     22 H6          3.2720   -0.6390    0.2490 h4        1 CJB      0.165000
     23 H1'         1.3330   -0.1100   -0.8760 h2        1 CJB      0.067700
     24 H5'        -0.4690    1.2920   -2.1930 h1        1 CJB      0.051700
     25 H6'        -2.4820    2.2600   -0.4200 h1        1 CJB      0.070200
     26 H6'A       -2.5760    2.3990   -2.0810 h1        1 CJB      0.070200
     27 HO6'       -1.6770    4.1970   -1.3730 ho        1 CJB      0.412000
     28 H4'        -2.5490   -0.1070   -0.8400 h1        1 CJB      0.115700
     29 HO4'       -1.9940   -0.2700   -3.4780 ho        1 CJB      0.404000
     30 H3'        -0.4970   -1.3650   -2.3310 h1        1 CJB      0.046700
     31 HO3'       -1.8730   -2.8930   -2.3340 ho        1 CJB      0.426000
     32 H2'        -0.7280   -1.5070    0.4710 h1        1 CJB      0.106700
     33 HO2'        0.2640   -3.2840   -0.1970 ho        1 CJB      0.431000
@<TRIPOS>BOND
     1    1    3 1   
     2    1    8 1   
     3    1    9 1   
     4    2    3 2   
     5    3    4 1   
     6    4    5 1   
     7    4   20 1   
     8    5    6 2   
     9    5    7 1   
    10    7    8 2   
    11    7   21 1   
    12    8   22 1   
    13    9   10 1   
    14    9   18 1   
    15    9   23 1   
    16   10   11 1   
    17   11   12 1   
    18   11   14 1   
    19   11   24 1   
    20   12   13 1   
    21   12   25 1   
    22   12   26 1   
    23   13   27 1   
    24   14   15 1   
    25   14   16 1   
    26   14   28 1   
    27   15   29 1   
    28   16   17 1   
    29   16   18 1   
    30   16   30 1   
    31   17   31 1   
    32   18   19 1   
    33   18   32 1   
    34   19   33 1   
@<TRIPOS>SUBSTRUCTURE
     1 CJB         1 TEMP              0 ****  ****    0 ROOT
