@<TRIPOS>MOLECULE
CJB
   33    34     1     0     0
SMALL
bcc


@<TRIPOS>ATOM
      1 N1         -0.0990   -0.1820   -0.0630 n         1 CJB     -0.378000
      2 O2          1.9320    0.0460   -1.1840 o         1 CJB     -0.628500
      3 C2          1.3110    0.0490   -0.1010 c         1 CJB      0.806500
      4 N3          1.9880    0.2230    1.1130 n         1 CJB     -0.585500
      5 C4          1.3320    0.2770    2.3580 c         1 CJB      0.713700
      6 O4          2.0080    0.4450    3.3850 o         1 CJB     -0.597500
      7 C5         -0.1290    0.1300    2.3240 cc        1 CJB     -0.308200
      8 C6         -0.7760   -0.0540    1.1480 cd        1 CJB      0.049600
      9 C1'        -0.8400   -0.1510   -1.3140 c3        1 CJB      0.268500
     10 O5'        -1.7320    0.9780   -1.2460 os        1 CJB     -0.448600
     11 C5'        -2.4140    1.2120   -2.4820 c3        1 CJB      0.106100
     12 C6'        -3.2350    2.4870   -2.2650 c3        1 CJB      0.140400
     13 O6'        -2.4030    3.6180   -2.1530 oh        1 CJB     -0.588800
     14 C4'        -3.3250    0.0180   -2.8030 c3        1 CJB      0.122100
     15 O4'        -3.9180    0.2730   -4.0620 oh        1 CJB     -0.590800
     16 C3'        -2.4850   -1.2690   -2.8550 c3        1 CJB      0.109100
     17 O3'        -3.4000   -2.3380   -3.0150 oh        1 CJB     -0.603800
     18 C2'        -1.6840   -1.4360   -1.5510 c3        1 CJB      0.082100
     19 O2'        -0.8590   -2.5650   -1.7630 oh        1 CJB     -0.592800
     20 HN3         2.9770    0.3500    1.0660 hn        1 CJB      0.355500
     21 H5         -0.6520    0.1860    3.2870 ha        1 CJB      0.183000
     22 H6         -1.8790   -0.1280    1.0770 h4        1 CJB      0.173000
     23 H1'        -0.1100   -0.0180   -2.1710 h2        1 CJB      0.116700
     24 H5'        -1.6660    1.3670   -3.3070 h1        1 CJB      0.080700
     25 H6'        -3.8800    2.3770   -1.3540 h1        1 CJB      0.066700
     26 H6'A       -3.8690    2.6670   -3.1760 h1        1 CJB      0.066700
     27 HO6'       -1.8310    3.4770   -1.3870 ho        1 CJB      0.409000
     28 H4'        -4.1250   -0.0880   -2.0180 h1        1 CJB      0.061700
     29 HO4'       -4.4130   -0.5250   -4.2970 ho        1 CJB      0.428000
     30 H3'        -1.7780   -1.2380   -3.7310 h1        1 CJB      0.071700
     31 HO3'       -2.8750   -3.1500   -3.0380 ho        1 CJB      0.430000
     32 H2'        -2.3850   -1.6160   -0.6910 h1        1 CJB      0.060700
     33 HO2'       -0.3670   -2.7270   -0.9490 ho        1 CJB      0.421000
@<TRIPOS>BOND
     1    1    3 1   
     2    1    8 1   
     3    1    9 1   
     4    2    3 2   
     5    3    4 1   
     6    4    5 1   
     7    4   20 1   
     8    5    6 2   
     9    5    7 1   
    10    7    8 2   
    11    7   21 1   
    12    8   22 1   
    13    9   10 1   
    14    9   18 1   
    15    9   23 1   
    16   10   11 1   
    17   11   12 1   
    18   11   14 1   
    19   11   24 1   
    20   12   13 1   
    21   12   25 1   
    22   12   26 1   
    23   13   27 1   
    24   14   15 1   
    25   14   16 1   
    26   14   28 1   
    27   15   29 1   
    28   16   17 1   
    29   16   18 1   
    30   16   30 1   
    31   17   31 1   
    32   18   19 1   
    33   18   32 1   
    34   19   33 1   
@<TRIPOS>SUBSTRUCTURE
     1 CJB         1 TEMP              0 ****  ****    0 ROOT
