@<TRIPOS>MOLECULE
CJB
   33    34     1     0     0
SMALL
bcc


@<TRIPOS>ATOM
      1 N1          1.2390   -0.0160    0.0440 n         1 CJB     -0.366000
      2 O2          1.7890   -0.0410    2.3090 o         1 CJB     -0.635500
      3 C2          2.1640   -0.1370    1.1220 c         1 CJB      0.820500
      4 N3          3.5120   -0.3610    0.8110 n         1 CJB     -0.584500
      5 C4          3.9830   -0.5180   -0.5060 c         1 CJB      0.716700
      6 O4          5.1960   -0.7100   -0.6890 o         1 CJB     -0.606500
      7 C5          2.9710   -0.4470   -1.5660 cc        1 CJB     -0.319200
      8 C6          1.6690   -0.2140   -1.2610 cd        1 CJB      0.064600
      9 C1'        -0.1620    0.1940    0.3430 c3        1 CJB      0.310500
     10 O5'        -0.8750   -0.9410   -0.1930 os        1 CJB     -0.446600
     11 C5'        -2.2490   -0.9600    0.2000 c3        1 CJB      0.108100
     12 C6'        -2.8210   -2.2650   -0.3600 c3        1 CJB      0.140400
     13 O6'        -2.2990   -3.3840    0.3170 oh        1 CJB     -0.588800
     14 C4'        -2.9660    0.2620   -0.3950 c3        1 CJB      0.085100
     15 O4'        -4.2980    0.2480    0.0910 oh        1 CJB     -0.587800
     16 C3'        -2.2540    1.5430    0.0670 c3        1 CJB      0.066100
     17 O3'        -2.7820    2.6730   -0.6110 oh        1 CJB     -0.603800
     18 C2'        -0.7620    1.4790   -0.3030 c3        1 CJB      0.118100
     19 O2'        -0.0720    2.5860    0.2370 oh        1 CJB     -0.581800
     20 HN3         4.1490   -0.4110    1.5780 hn        1 CJB      0.354500
     21 H5          3.3220   -0.5910   -2.5950 ha        1 CJB      0.180000
     22 H6          0.8740   -0.1700   -2.0300 h4        1 CJB      0.168000
     23 H1'        -0.2940    0.2410    1.4670 h2        1 CJB      0.118700
     24 H5'        -2.3280   -0.9510    1.3220 h1        1 CJB      0.080700
     25 H6'        -3.9280   -2.2870   -0.1690 h1        1 CJB      0.063700
     26 H6'A       -2.6110   -2.3350   -1.4600 h1        1 CJB      0.063700
     27 HO6'       -1.3400   -3.3700    0.1940 ho        1 CJB      0.412000
     28 H4'        -2.9550    0.2070   -1.5180 h1        1 CJB      0.063700
     29 HO4'       -4.8000    0.8530   -0.4700 ho        1 CJB      0.410000
     30 H3'        -2.3690    1.6660    1.1790 h1        1 CJB      0.072700
     31 HO3'       -3.6040    2.9070   -0.1630 ho        1 CJB      0.415000
     32 H2'        -0.6510    1.4570   -1.4220 h1        1 CJB      0.060700
     33 HO2'       -0.5150    3.3760   -0.1050 ho        1 CJB      0.426000
@<TRIPOS>BOND
     1    1    3 1   
     2    1    8 1   
     3    1    9 1   
     4    2    3 2   
     5    3    4 1   
     6    4    5 1   
     7    4   20 1   
     8    5    6 2   
     9    5    7 1   
    10    7    8 2   
    11    7   21 1   
    12    8   22 1   
    13    9   10 1   
    14    9   18 1   
    15    9   23 1   
    16   10   11 1   
    17   11   12 1   
    18   11   14 1   
    19   11   24 1   
    20   12   13 1   
    21   12   25 1   
    22   12   26 1   
    23   13   27 1   
    24   14   15 1   
    25   14   16 1   
    26   14   28 1   
    27   15   29 1   
    28   16   17 1   
    29   16   18 1   
    30   16   30 1   
    31   17   31 1   
    32   18   19 1   
    33   18   32 1   
    34   19   33 1   
@<TRIPOS>SUBSTRUCTURE
     1 CJB         1 TEMP              0 ****  ****    0 ROOT
