@<TRIPOS>MOLECULE
CJB
   33    34     1     0     0
SMALL
bcc


@<TRIPOS>ATOM
      1 N1         -0.0850   -0.2510   -0.0270 n         1 CJB     -0.376000
      2 O2          1.9610   -0.1080   -1.1360 o         1 CJB     -0.629500
      3 C2          1.3330   -0.0700   -0.0580 c         1 CJB      0.806500
      4 N3          2.0080    0.0910    1.1590 n         1 CJB     -0.585500
      5 C4          1.3490    0.1740    2.4000 c         1 CJB      0.714700
      6 O4          2.0250    0.3300    3.4290 o         1 CJB     -0.601500
      7 C5         -0.1160    0.0700    2.3600 cc        1 CJB     -0.311200
      8 C6         -0.7630   -0.0970    1.1800 cd        1 CJB      0.053600
      9 C1'        -0.8190   -0.1810   -1.2810 c3        1 CJB      0.266500
     10 O5'        -1.7150    0.9420   -1.1820 os        1 CJB     -0.433600
     11 C5'        -2.3720    1.2200   -2.4220 c3        1 CJB      0.147100
     12 C6'        -3.1780    2.5020   -2.1970 c3        1 CJB      0.136400
     13 O6'        -2.3080    3.5840   -2.4810 oh        1 CJB     -0.594800
     14 C4'        -3.2980    0.0400   -2.7670 c3        1 CJB      0.118100
     15 O4'        -3.9050    0.3270   -4.0130 oh        1 CJB     -0.591800
     16 C3'        -2.4640   -1.2480   -2.8580 c3        1 CJB      0.109100
     17 O3'        -3.3850   -2.3080   -3.0480 oh        1 CJB     -0.604800
     18 C2'        -1.6610   -1.4590   -1.5620 c3        1 CJB      0.081100
     19 O2'        -0.8370   -2.5810   -1.8130 oh        1 CJB     -0.593800
     20 HN3         3.0010    0.1900    1.1150 hn        1 CJB      0.354500
     21 H5         -0.6410    0.1440    3.3200 ha        1 CJB      0.181000
     22 H6         -1.8670   -0.1360    1.1040 h4        1 CJB      0.173000
     23 H1'        -0.0840   -0.0210   -2.1290 h2        1 CJB      0.116700
     24 H5'        -1.6140    1.3780   -3.2380 h1        1 CJB      0.087700
     25 H6'        -3.5410    2.5530   -1.1370 h1        1 CJB      0.048700
     26 H6'A       -4.0480    2.5120   -2.9080 h1        1 CJB      0.048700
     27 HO6'       -2.7780    4.3880   -2.2310 ho        1 CJB      0.406000
     28 H4'        -4.0900   -0.0800   -1.9760 h1        1 CJB      0.059700
     29 HO4'       -4.3880   -0.4700   -4.2710 ho        1 CJB      0.427000
     30 H3'        -1.7590   -1.1950   -3.7340 h1        1 CJB      0.071700
     31 HO3'       -2.8650   -3.1220   -3.0890 ho        1 CJB      0.430000
     32 H2'        -2.3590   -1.6700   -0.7060 h1        1 CJB      0.059700
     33 HO2'       -0.3160   -2.7490   -1.0180 ho        1 CJB      0.422000
@<TRIPOS>BOND
     1    1    3 1   
     2    1    8 1   
     3    1    9 1   
     4    2    3 2   
     5    3    4 1   
     6    4    5 1   
     7    4   20 1   
     8    5    6 2   
     9    5    7 1   
    10    7    8 2   
    11    7   21 1   
    12    8   22 1   
    13    9   10 1   
    14    9   18 1   
    15    9   23 1   
    16   10   11 1   
    17   11   12 1   
    18   11   14 1   
    19   11   24 1   
    20   12   13 1   
    21   12   25 1   
    22   12   26 1   
    23   13   27 1   
    24   14   15 1   
    25   14   16 1   
    26   14   28 1   
    27   15   29 1   
    28   16   17 1   
    29   16   18 1   
    30   16   30 1   
    31   17   31 1   
    32   18   19 1   
    33   18   32 1   
    34   19   33 1   
@<TRIPOS>SUBSTRUCTURE
     1 CJB         1 TEMP              0 ****  ****    0 ROOT
