@<TRIPOS>MOLECULE
CJB
   33    34     1     0     0
SMALL
bcc


@<TRIPOS>ATOM
      1 N1         -0.1060   -0.1880   -0.0570 n         1 CJB     -0.378000
      2 O2          1.9320    0.0130   -1.1720 o         1 CJB     -0.628500
      3 C2          1.3070    0.0280   -0.0910 c         1 CJB      0.806500
      4 N3          1.9810    0.2030    1.1240 ns        1 CJB     -0.585500
      5 C4          1.3210    0.2710    2.3670 c         1 CJB      0.713700
      6 O4          1.9960    0.4380    3.3950 o         1 CJB     -0.597500
      7 C5         -0.1410    0.1380    2.3290 cc        1 CJB     -0.308200
      8 C6         -0.7860   -0.0470    1.1510 cd        1 CJB      0.049600
      9 C1'        -0.8420   -0.1580   -1.3110 c3        1 CJB      0.268500
     10 O5'        -1.7220    0.9810   -1.2530 os        1 CJB     -0.448600
     11 C5'        -2.3970    1.2140   -2.4920 c3        1 CJB      0.106100
     12 C6'        -3.2070    2.4990   -2.2870 c3        1 CJB      0.140400
     13 O6'        -2.3630    3.6220   -2.1780 oh        1 CJB     -0.588800
     14 C4'        -3.3200    0.0280   -2.8090 c3        1 CJB      0.122100
     15 O4'        -3.9050    0.2810   -4.0730 oh        1 CJB     -0.590800
     16 C3'        -2.4920   -1.2680   -2.8510 c3        1 CJB      0.109100
     17 O3'        -3.4170   -2.3280   -3.0070 oh        1 CJB     -0.603800
     18 C2'        -1.6980   -1.4360   -1.5430 c3        1 CJB      0.082100
     19 O2'        -0.8830   -2.5740   -1.7450 oh        1 CJB     -0.592800
     20 HN3         2.9710    0.3190    1.0800 hn        1 CJB      0.355500
     21 H5         -0.6670    0.2050    3.2890 ha        1 CJB      0.183000
     22 H6         -1.8890   -0.1100    1.0760 h4        1 CJB      0.173000
     23 H1'        -0.1070   -0.0370   -2.1660 h2        1 CJB      0.116700
     24 H5'        -1.6450    1.3570   -3.3160 h1        1 CJB      0.080700
     25 H6'        -3.8350    2.6790   -3.2000 h1        1 CJB      0.066700
     26 H6'A       -3.8560    2.4010   -1.3770 h1        1 CJB      0.066700
     27 HO6'       -1.7960    3.4800   -1.4100 ho        1 CJB      0.409000
     28 H4'        -4.1230   -0.0650   -2.0270 h1        1 CJB      0.061700
     29 HO4'       -4.4080   -0.5130   -4.3040 ho        1 CJB      0.428000
     30 H3'        -1.7820   -1.2500   -3.7250 h1        1 CJB      0.071700
     31 HO3'       -2.9020   -3.1460   -3.0230 ho        1 CJB      0.430000
     32 H2'        -2.4040   -1.6030   -0.6840 h1        1 CJB      0.060700
     33 HO2'       -0.3960   -2.7360   -0.9280 ho        1 CJB      0.421000
@<TRIPOS>BOND
     1    1    3 1   
     2    1    8 1   
     3    1    9 1   
     4    2    3 2   
     5    3    4 1   
     6    4    5 1   
     7    4   20 1   
     8    5    6 2   
     9    5    7 1   
    10    7    8 2   
    11    7   21 1   
    12    8   22 1   
    13    9   10 1   
    14    9   18 1   
    15    9   23 1   
    16   10   11 1   
    17   11   12 1   
    18   11   14 1   
    19   11   24 1   
    20   12   13 1   
    21   12   25 1   
    22   12   26 1   
    23   13   27 1   
    24   14   15 1   
    25   14   16 1   
    26   14   28 1   
    27   15   29 1   
    28   16   17 1   
    29   16   18 1   
    30   16   30 1   
    31   17   31 1   
    32   18   19 1   
    33   18   32 1   
    34   19   33 1   
@<TRIPOS>SUBSTRUCTURE
     1 CJB         1 TEMP              0 ****  ****    0 ROOT
