@<TRIPOS>MOLECULE
CJC
   50    54     1     0     0
SMALL
bcc


@<TRIPOS>ATOM
      1 O47         0.2420    0.2660    0.6020 o         1 CJC     -0.572500
      2 C28         1.4020   -0.0300    0.2850 c         1 CJC      0.559200
      3 C27         2.3510   -0.7920    1.1570 cc        1 CJC      0.412200
      4 N29         1.9100    0.3530   -0.9620 ns        1 CJC     -0.443100
      5 C22         3.2100    0.0330   -1.3310 ca        1 CJC     -0.063700
      6 C23         4.0590   -0.7060   -0.4190 ca        1 CJC      0.552300
      7 N26         3.5660   -1.1090    0.8520 nd        1 CJC     -0.551700
      8 N24         5.3470   -1.0340   -0.7500 nb        1 CJC     -0.586000
      9 C25         5.8080   -0.6480   -1.9370 ca        1 CJC      0.422200
     10 C20         5.0490    0.0690   -2.9000 ca        1 CJC     -0.144400
     11 C21         3.7420    0.4120   -2.5880 ca        1 CJC     -0.063000
     12 S19         5.7630    0.3400   -4.4120 ss        1 CJC     -0.171200
     13 C10         5.9110    2.0570   -4.6100 ca        1 CJC      0.751300
     14 N9          6.6620    2.4160   -5.7050 nb        1 CJC     -0.859000
     15 C8          6.8320    3.7410   -5.9760 ca        1 CJC      0.656200
     16 N13         7.5880    4.1770   -7.1290 nh        1 CJC     -0.667300
     17 C14         9.0430    4.1430   -6.8960 c3        1 CJC      0.142800
     18 C15         9.6470    2.9330   -7.6410 c3        1 CJC     -0.126400
     19 C16         8.4720    2.2850   -8.4020 c3        1 CJC      0.083500
     20 N18         8.0120    1.0140   -7.7620 nz        1 CJC     -0.864600
     21 C17         7.3570    3.3800   -8.3330 c3        1 CJC      0.137800
     22 C3          6.2640    4.7160   -5.1290 ca        1 CJC     -0.271400
     23 C2          5.4900    4.2160   -3.9850 ca        1 CJC      0.479800
     24 N11         5.3050    2.8890   -3.7270 nb        1 CJC     -0.692000
     25 N1          5.0140    5.3180   -3.2810 na        1 CJC     -0.258100
     26 C5          5.4510    6.4890   -3.9220 cc        1 CJC     -0.009300
     27 C4          6.2130    6.1500   -5.0530 cd        1 CJC     -0.032800
     28 Cl1         6.9230    7.2210   -6.1100 cl        1 CJC     -0.017400
     29 C6          5.1300    7.8570   -3.4520 c3        1 CJC     -0.038200
     30 C7          4.3900    7.9180   -2.1400 c3        1 CJC     -0.107100
     31 H1          1.9520   -1.1010    2.1440 h4        1 CJC      0.079800
     32 H2          1.3270    0.8520   -1.5990 hn        1 CJC      0.339500
     33 H3          6.8570   -0.9300   -2.1500 h4        1 CJC      0.043100
     34 H4          3.1240    0.9770   -3.3050 ha        1 CJC      0.158000
     35 H5          9.2920    4.1090   -5.8020 h1        1 CJC      0.092700
     36 H6          9.4540    5.1010   -7.3190 h1        1 CJC      0.092700
     37 H7         10.4140    3.2780   -8.3800 hc        1 CJC      0.086200
     38 H8         10.1520    2.2370   -6.9280 hc        1 CJC      0.086200
     39 H9          8.7460    2.0520   -9.4680 hx        1 CJC      0.113700
     40 H10         8.8050    0.3980   -7.5860 hn        1 CJC      0.467133
     41 H11         7.3410    0.5420   -8.3690 hn        1 CJC      0.467133
     42 H13         6.3180    2.9640   -8.3850 h1        1 CJC      0.100700
     43 H14         7.5080    4.0690   -9.2130 h1        1 CJC      0.100700
     44 H15         4.4740    5.2890   -2.4510 hn        1 CJC      0.331700
     45 H16         4.5210    8.3620   -4.2540 hc        1 CJC      0.083200
     46 H17         6.0980    8.4260   -3.3660 hc        1 CJC      0.083200
     47 H18         4.2240    8.9880   -1.8590 hc        1 CJC      0.049367
     48 H19         3.3900    7.4250   -2.2130 hc        1 CJC      0.049367
     49 H20         4.9740    7.4330   -1.3210 hc        1 CJC      0.049367
     50 H183        7.5360    1.2480   -6.8480 hn        1 CJC      0.467133
@<TRIPOS>BOND
     1    1    2 2   
     2    2    3 1   
     3    2    4 1   
     4    3    7 2   
     5    3   31 1   
     6    4    5 1   
     7    4   32 1   
     8    5    6 ar  
     9    5   11 ar  
    10    6    7 1   
    11    6    8 ar  
    12    8    9 ar  
    13    9   10 ar  
    14    9   33 1   
    15   10   11 ar  
    16   10   12 1   
    17   11   34 1   
    18   12   13 1   
    19   13   14 ar  
    20   13   24 ar  
    21   14   15 ar  
    22   15   16 1   
    23   15   22 ar  
    24   16   17 1   
    25   16   21 1   
    26   17   18 1   
    27   17   35 1   
    28   17   36 1   
    29   18   19 1   
    30   18   37 1   
    31   18   38 1   
    32   19   20 1   
    33   19   21 1   
    34   19   39 1   
    35   20   40 1   
    36   20   41 1   
    37   20   50 1   
    38   21   42 1   
    39   21   43 1   
    40   22   23 ar  
    41   22   27 1   
    42   23   24 ar  
    43   23   25 1   
    44   25   26 1   
    45   25   44 1   
    46   26   27 2   
    47   26   29 1   
    48   27   28 1   
    49   29   30 1   
    50   29   45 1   
    51   29   46 1   
    52   30   47 1   
    53   30   48 1   
    54   30   49 1   
@<TRIPOS>SUBSTRUCTURE
     1 CJC         1 TEMP              0 ****  ****    0 ROOT
