@<TRIPOS>MOLECULE
CJC
   50    54     1     0     0
SMALL
bcc


@<TRIPOS>ATOM
      1 O47         0.2350    0.2870    0.6060 o         1 CJC     -0.572500
      2 C28         1.3940   -0.0120    0.2890 c         1 CJC      0.559200
      3 C27         2.3410   -0.7750    1.1620 cc        1 CJC      0.412200
      4 N29         1.9030    0.3680   -0.9580 n         1 CJC     -0.443100
      5 C22         3.2020    0.0440   -1.3260 ca        1 CJC     -0.063700
      6 C23         4.0490   -0.6960   -0.4130 ca        1 CJC      0.551300
      7 N26         3.5560   -1.0960    0.8580 nd        1 CJC     -0.551700
      8 N24         5.3370   -1.0280   -0.7440 nb        1 CJC     -0.586000
      9 C25         5.7990   -0.6440   -1.9310 ca        1 CJC      0.422200
     10 C20         5.0420    0.0720   -2.8950 ca        1 CJC     -0.144400
     11 C21         3.7360    0.4190   -2.5840 ca        1 CJC     -0.063000
     12 S19         5.7570    0.3390   -4.4080 ss        1 CJC     -0.171200
     13 C10         5.9090    2.0560   -4.6090 ca        1 CJC      0.751300
     14 N9          6.6610    2.4120   -5.7040 nb        1 CJC     -0.859000
     15 C8          6.8350    3.7350   -5.9770 ca        1 CJC      0.656200
     16 N13         7.5930    4.1680   -7.1300 nh        1 CJC     -0.667300
     17 C14         9.0470    4.1310   -6.8960 c3        1 CJC      0.142800
     18 C15         9.6490    2.9180   -7.6390 c3        1 CJC     -0.126400
     19 C16         8.4730    2.2710   -8.3990 c3        1 CJC      0.083500
     20 N18         8.0100    1.0030   -7.7570 n4        1 CJC     -0.864600
     21 C17         7.3610    3.3690   -8.3330 c3        1 CJC      0.137800
     22 C3          6.2680    4.7130   -5.1320 ca        1 CJC     -0.271400
     23 C2          5.4930    4.2170   -3.9880 ca        1 CJC      0.479800
     24 N11         5.3040    2.8910   -3.7270 nb        1 CJC     -0.692000
     25 N1          5.0180    5.3210   -3.2860 na        1 CJC     -0.258100
     26 C5          5.4580    6.4900   -3.9290 cc        1 CJC     -0.009300
     27 C4          6.2210    6.1480   -5.0580 cd        1 CJC     -0.032800
     28 CL1         6.9340    7.2150   -6.1170 cl        1 CJC     -0.017400
     29 C6          5.1400    7.8590   -3.4610 c3        1 CJC     -0.038200
     30 C7          4.3960    7.9250   -2.1520 c3        1 CJC     -0.107100
     31 H1          1.9410   -1.0820    2.1500 h4        1 CJC      0.079800
     32 H2          1.3220    0.8670   -1.5960 hn        1 CJC      0.339500
     33 H3          6.8480   -0.9290   -2.1440 h4        1 CJC      0.043100
     34 H4          3.1190    0.9850   -3.3020 ha        1 CJC      0.158000
     35 H5          9.2950    4.0980   -5.8020 h1        1 CJC      0.092700
     36 H6          9.4610    5.0880   -7.3210 h1        1 CJC      0.092700
     37 H7         10.4170    3.2600   -8.3770 hc        1 CJC      0.086200
     38 H8         10.1520    2.2220   -6.9240 hc        1 CJC      0.086200
     39 H9          8.7470    2.0360   -9.4640 hx        1 CJC      0.113700
     40 H10         7.3390    0.5310   -8.3640 hn        1 CJC      0.467133
     41 H11         8.8020    0.3850   -7.5790 hn        1 CJC      0.467133
     42 H13         6.3210    2.9550   -8.3850 h1        1 CJC      0.100700
     43 H14         7.5130    4.0570   -9.2140 h1        1 CJC      0.100700
     44 H15         4.4780    5.2950   -2.4560 hn        1 CJC      0.331700
     45 H16         6.1100    8.4250   -3.3730 hc        1 CJC      0.083200
     46 H17         4.5350    8.3660   -4.2650 hc        1 CJC      0.083200
     47 H18         4.9760    7.4400   -1.3300 hc        1 CJC      0.049700
     48 H19         3.3960    7.4340   -2.2270 hc        1 CJC      0.049700
     49 H20         4.2330    8.9960   -1.8730 hc        1 CJC      0.049700
     50 H183        7.5340    1.2400   -6.8440 hn        1 CJC      0.467133
@<TRIPOS>BOND
     1    1    2 2   
     2    2    3 1   
     3    2    4 1   
     4    3    7 2   
     5    3   31 1   
     6    4    5 1   
     7    4   32 1   
     8    5    6 ar  
     9    5   11 ar  
    10    6    7 1   
    11    6    8 ar  
    12    8    9 ar  
    13    9   10 ar  
    14    9   33 1   
    15   10   11 ar  
    16   10   12 1   
    17   11   34 1   
    18   12   13 1   
    19   13   14 ar  
    20   13   24 ar  
    21   14   15 ar  
    22   15   16 1   
    23   15   22 ar  
    24   16   17 1   
    25   16   21 1   
    26   17   18 1   
    27   17   35 1   
    28   17   36 1   
    29   18   19 1   
    30   18   37 1   
    31   18   38 1   
    32   19   20 1   
    33   19   21 1   
    34   19   39 1   
    35   20   40 1   
    36   20   41 1   
    37   20   50 1   
    38   21   42 1   
    39   21   43 1   
    40   22   23 ar  
    41   22   27 1   
    42   23   24 ar  
    43   23   25 1   
    44   25   26 1   
    45   25   44 1   
    46   26   27 2   
    47   26   29 1   
    48   27   28 1   
    49   29   30 1   
    50   29   45 1   
    51   29   46 1   
    52   30   47 1   
    53   30   48 1   
    54   30   49 1   
@<TRIPOS>SUBSTRUCTURE
     1 CJC         1 TEMP              0 ****  ****    0 ROOT
