@<TRIPOS>MOLECULE
CJC
   49    42     1     0     0
SMALL
bcc


@<TRIPOS>ATOM
      1 O47         1.7510   -5.1250    6.8820 o         1 CJC     -0.327000
      2 C28         0.8780   -4.7110    6.1490 c1        1 CJC      0.288000
      3 C27        -0.4830   -4.5010    6.6710 c1        1 CJC     -0.100000
      4 N29         1.1660   -4.4290    4.7890 n3        1 CJC     -0.292000
      5 C22         0.1230   -3.9260    3.9190 c2        1 CJC      0.017000
      6 C23        -1.1840   -3.7330    4.4220 c1        1 CJC     -0.029000
      7 N26        -1.4830   -4.0270    5.8280 n1        1 CJC     -0.042000
      8 N24        -2.1850   -3.2620    3.5880 n1        1 CJC     -0.069000
      9 C25        -1.9070   -2.9780    2.2500 c1        1 CJC     -0.040000
     10 C20        -0.6070   -3.1680    1.7420 c1        1 CJC     -0.279000
     11 C21         0.4020   -3.6400    2.5740 c1        1 CJC     -0.111000
     12 S19        -0.3640   -2.6970    0.0090 ss        1 CJC      0.447000
     13 C10        -0.1550   -0.9070   -0.1050 c2        1 CJC     -0.108000
     14 N9          0.5010   -0.4700   -1.2310 n2        1 CJC     -0.225000
     15 C8          0.4290    0.8160   -1.5920 c1        1 CJC      0.191000
     16 N13         1.1060    1.2870   -2.8430 n2        1 CJC     -0.189000
     17 C14         2.3720    1.0360   -2.7690 c3        1 CJC     -0.070000
     18 C15         2.8010    0.6930   -4.2100 c3        1 CJC     -0.184000
     19 C16         1.4780    0.5070   -5.0020 c3        1 CJC     -0.046000
     20 N18         1.5110   -0.7790   -5.7820 n3        1 CJC     -0.346000
     21 C17         0.5560    0.4550   -4.1000 c3        1 CJC     -0.067000
     22 C3         -0.3120    1.7140   -0.8250 c1        1 CJC     -0.170000
     23 C2         -0.9600    1.2800    0.2870 c1        1 CJC      0.078000
     24 N11        -0.8840   -0.0260    0.6500 n1        1 CJC     -0.208000
     25 N1         -1.5390    2.3950    0.9120 n1        1 CJC     -0.180000
     26 C5         -1.2370    3.5010    0.1700 c1        1 CJC     -0.024000
     27 C4         -0.4780    3.0970   -0.9080 c1        1 CJC     -0.113000
     28 CL1         0.3370    4.3870   -1.7060 cl        1 CJC      0.033000
     29 C6         -1.6000    4.8680    0.7310 c2        1 CJC     -0.110000
     30 C7         -2.7670    5.4320   -0.0340 c3        1 CJC     -0.220000
     31 H1         -0.6830   -4.6750    7.6380 ha        1 CJC      0.195000
     32 H2          1.9660   -4.6320    4.4510 hn        1 CJC      0.251000
     33 H3         -2.5720   -2.6670    1.7010 ha        1 CJC      0.185000
     34 H4          1.3060   -3.7710    2.2220 ha        1 CJC      0.156000
     35 H5          2.5300    0.2800   -2.1840 h1        1 CJC      0.107000
     36 H6          2.8260    1.7780   -2.4670 h1        1 CJC      0.107000
     37 H7          3.3240   -0.1350   -4.2200 hc        1 CJC      0.098000
     38 H8          3.3180    1.4200   -4.5850 hc        1 CJC      0.098000
     39 H9          1.3270    1.2790   -5.6140 h1        1 CJC      0.057000
     40 H10         0.7900   -0.8170   -6.3340 hn        1 CJC      0.150000
     41 H11         2.2690   -0.8140   -6.2730 hn        1 CJC      0.150000
     42 H13         0.3910   -0.4650   -3.8440 h1        1 CJC      0.107500
     43 H14        -0.2420    0.8500   -4.4260 h1        1 CJC      0.107500
     44 H15        -2.0480    2.3820    1.7050 DU        1 CJC      0.268000
     45 H16        -1.8450    4.7780    1.6770 ha        1 CJC      0.108000
     46 H17        -0.8430    5.4640    0.6500 ha        1 CJC      0.108000
     47 H18        -3.5000    4.7660   -0.0540 hc        1 CJC      0.081333
     48 H19        -2.4990    5.6340   -0.9200 hc        1 CJC      0.081333
     49 H20        -3.0810    6.2500    0.4080 hc        1 CJC      0.081333
@<TRIPOS>BOND
     1    1    2 1   
     2    2    4 1   
     3    3    7 1   
     4    3   31 1   
     5    4    5 1   
     6    4   32 1   
     7    5    6 1   
     8    5   11 1   
     9    6    8 1   
    10    9   10 1   
    11    9   33 1   
    12   10   12 1   
    13   11   34 1   
    14   12   13 1   
    15   13   14 1   
    16   13   24 1   
    17   14   15 1   
    18   15   22 1   
    19   16   17 1   
    20   16   21 1   
    21   17   18 1   
    22   17   35 1   
    23   17   36 1   
    24   18   19 1   
    25   18   37 1   
    26   18   38 1   
    27   19   20 1   
    28   19   21 1   
    29   19   39 1   
    30   20   40 1   
    31   20   41 1   
    32   21   42 1   
    33   21   43 1   
    34   22   23 1   
    35   25   26 1   
    36   26   27 1   
    37   29   30 1   
    38   29   45 1   
    39   29   46 1   
    40   30   47 1   
    41   30   48 1   
    42   30   49 1   
@<TRIPOS>SUBSTRUCTURE
     1 CJC         1 TEMP              0 ****  ****    0 ROOT
