@<TRIPOS>MOLECULE
CJC
   49    53     1     0     0
SMALL
bcc


@<TRIPOS>ATOM
      1 O47        -6.5170   -0.9620    2.4720 o         1 CJC     -0.603500
      2 C28        -6.0720   -0.3480    1.4880 c         1 CJC      0.561200
      3 C27        -6.9040    0.1240    0.3410 cc        1 CJC      0.384200
      4 N29        -4.7090   -0.0560    1.4000 n         1 CJC     -0.437100
      5 C22        -4.1970    0.6260    0.3020 ca        1 CJC     -0.052700
      6 C23        -5.0790    1.0440   -0.7630 ca        1 CJC      0.512300
      7 N26        -6.4680    0.7610   -0.6960 nd        1 CJC     -0.545700
      8 N24        -4.6010    1.7190   -1.8590 nb        1 CJC     -0.587000
      9 C25        -3.2990    1.9650   -1.9220 ca        1 CJC      0.402200
     10 C20        -2.3490    1.5990   -0.9210 ca        1 CJC     -0.123400
     11 C21        -2.8150    0.9320    0.1990 ca        1 CJC     -0.092000
     12 S19        -0.7810    2.1640   -1.1910 ss        1 CJC     -0.095200
     13 C10         0.3340    0.9110   -0.7410 ca        1 CJC      0.739300
     14 N9          1.6400    1.3430   -0.7630 nb        1 CJC     -0.757000
     15 C8          2.6270    0.4480   -0.4950 ca        1 CJC      0.700200
     16 N13         4.0110    0.7940   -0.5700 nh        1 CJC     -0.702300
     17 C14         4.3780    1.9930   -1.3300 c3        1 CJC      0.162800
     18 C15         4.8450    3.0870   -0.3600 c3        1 CJC     -0.143400
     19 C16         4.9740    2.4080    1.0260 c3        1 CJC      0.145500
     20 N18         4.1540    2.9480    2.0850 n3        1 CJC     -0.904800
     21 C17         4.6650    0.9040    0.7400 c3        1 CJC      0.163800
     22 C3          2.2840   -0.9010   -0.1740 ca        1 CJC     -0.306400
     23 C2          0.8640   -1.2290   -0.1610 ca        1 CJC      0.465800
     24 N11        -0.1260   -0.3280   -0.4420 nb        1 CJC     -0.733000
     25 N1          0.7330   -2.5780    0.1720 na        1 CJC     -0.268100
     26 C5          2.0140   -3.1260    0.3330 cc        1 CJC     -0.054300
     27 C4          2.9770   -2.1230    0.1360 cd        1 CJC     -0.012800
     28 CL1         4.6280   -2.3410    0.2260 cl        1 CJC     -0.043400
     29 C6          2.2650   -4.5420    0.6850 c3        1 CJC     -0.028200
     30 C7          1.1080   -5.4680    0.4070 c3        1 CJC     -0.101100
     31 H1         -7.9850   -0.1050    0.4090 h4        1 CJC      0.066800
     32 H2         -4.0930   -0.3380    2.1300 hn        1 CJC      0.337500
     33 H3         -2.9580    2.4960   -2.8330 h4        1 CJC      0.044100
     34 H4         -2.1280    0.6340    1.0080 ha        1 CJC      0.160000
     35 H5          5.2350    1.6760   -1.9890 h1        1 CJC      0.068200
     36 H6          3.5580    2.3660   -1.9960 h1        1 CJC      0.068200
     37 H7          5.8310    3.4970   -0.6840 hc        1 CJC      0.054200
     38 H8          4.1130    3.9310   -0.3440 hc        1 CJC      0.054200
     39 H9          6.0430    2.4850    1.3770 h1        1 CJC      0.068700
     40 H10         4.3640    3.9170    2.2260 hn        1 CJC      0.352300
     41 H11         3.1800    2.8540    1.8700 hn        1 CJC      0.352300
     42 H13         4.0610    0.4260    1.5540 h1        1 CJC      0.073700
     43 H14         5.6410    0.3510    0.6540 h1        1 CJC      0.073700
     44 H15        -0.1120   -3.0900    0.1880 hn        1 CJC      0.315700
     45 H16         3.1680   -4.8850    0.1060 hc        1 CJC      0.070200
     46 H17         2.5340   -4.5930    1.7770 hc        1 CJC      0.070200
     47 H18         0.2390   -5.2420    1.0720 hc        1 CJC      0.042033
     48 H19         0.7760   -5.3880   -0.6560 hc        1 CJC      0.042033
     49 H20         1.4210   -6.5240    0.5970 hc        1 CJC      0.042033
@<TRIPOS>BOND
     1    1    2 2   
     2    2    3 1   
     3    2    4 1   
     4    3    7 2   
     5    3   31 1   
     6    4    5 1   
     7    4   32 1   
     8    5    6 ar  
     9    5   11 ar  
    10    6    7 1   
    11    6    8 ar  
    12    8    9 ar  
    13    9   10 ar  
    14    9   33 1   
    15   10   11 ar  
    16   10   12 1   
    17   11   34 1   
    18   12   13 1   
    19   13   14 ar  
    20   13   24 ar  
    21   14   15 ar  
    22   15   16 1   
    23   15   22 ar  
    24   16   17 1   
    25   16   21 1   
    26   17   18 1   
    27   17   35 1   
    28   17   36 1   
    29   18   19 1   
    30   18   37 1   
    31   18   38 1   
    32   19   20 1   
    33   19   21 1   
    34   19   39 1   
    35   20   40 1   
    36   20   41 1   
    37   21   42 1   
    38   21   43 1   
    39   22   23 ar  
    40   22   27 1   
    41   23   24 ar  
    42   23   25 1   
    43   25   26 1   
    44   25   44 1   
    45   26   27 2   
    46   26   29 1   
    47   27   28 1   
    48   29   30 1   
    49   29   45 1   
    50   29   46 1   
    51   30   47 1   
    52   30   48 1   
    53   30   49 1   
@<TRIPOS>SUBSTRUCTURE
     1 CJC         1 TEMP              0 ****  ****    0 ROOT
