@<TRIPOS>MOLECULE
CJC
   50    54     1     0     0
SMALL
bcc


@<TRIPOS>ATOM
      1 O47         0.1910   -1.9770    0.0380 o         1 CJC     -0.571500
      2 C28         1.2810   -1.3960   -0.0450 c         1 CJC      0.559200
      3 C27         2.0680   -0.8980    1.1270 cc        1 CJC      0.412200
      4 N29         1.8610   -1.1640   -1.2990 n         1 CJC     -0.443100
      5 C22         3.0810   -0.5110   -1.4090 ca        1 CJC     -0.059700
      6 C23         3.7730   -0.0640   -0.2160 ca        1 CJC      0.551300
      7 N26         3.2060   -0.2880    1.0670 nd        1 CJC     -0.553700
      8 N24         4.9780    0.5830   -0.2900 nb        1 CJC     -0.588000
      9 C25         5.5120    0.7830   -1.4930 ca        1 CJC      0.433200
     10 C20         4.9120    0.3820   -2.7130 ca        1 CJC     -0.136400
     11 C21         3.6790   -0.2560   -2.6670 ca        1 CJC     -0.084000
     12 S19         5.6910    0.5400   -4.2120 ss        1 CJC     -0.174200
     13 C10         5.9410    2.2370   -4.4730 ca        1 CJC      0.750300
     14 N9          6.6210    2.5210   -5.6340 nb        1 CJC     -0.860000
     15 C8          6.8600    3.8250   -5.9500 ca        1 CJC      0.655200
     16 N13         7.5510    4.1860   -7.1680 nh        1 CJC     -0.667300
     17 C14         9.0140    4.0500   -7.0490 c3        1 CJC      0.142800
     18 C15         9.4690    2.7890   -7.8160 c3        1 CJC     -0.126400
     19 C16         8.1930    2.2150   -8.4650 c3        1 CJC      0.083500
     20 N18         7.6970    0.9930   -7.7600 n4        1 CJC     -0.865600
     21 C17         7.1690    3.3890   -8.3330 c3        1 CJC      0.138800
     22 C3          6.4250    4.8540   -5.0890 ca        1 CJC     -0.270400
     23 C2          5.7180    4.4330   -3.8730 ca        1 CJC      0.479800
     24 N11         5.4740    3.1270   -3.5620 nb        1 CJC     -0.686000
     25 N1          5.3720    5.5780   -3.1620 na        1 CJC     -0.256100
     26 C5          5.8250    6.7040   -3.8700 cc        1 CJC     -0.008300
     27 C4          6.4710    6.2910   -5.0480 cd        1 CJC     -0.034800
     28 CL1         7.1580    7.2900   -6.1880 cl        1 CJC     -0.018400
     29 C6          5.6310    8.1000   -3.4140 c3        1 CJC     -0.038200
     30 C7          4.9200    8.2420   -2.0930 c3        1 CJC     -0.107100
     31 H1          1.6140   -1.0820    2.1220 h4        1 CJC      0.078800
     32 H2          1.3890   -1.4660   -2.1230 hn        1 CJC      0.340500
     33 H3          6.4870    1.3080   -1.4920 h4        1 CJC      0.042100
     34 H4          3.1730   -0.5630   -3.5960 ha        1 CJC      0.157000
     35 H5          9.4570    4.9700   -7.5210 h1        1 CJC      0.092700
     36 H6          9.3460    4.0130   -5.9770 h1        1 CJC      0.092700
     37 H7          9.9820    2.0700   -7.1320 hc        1 CJC      0.086200
     38 H8         10.1950    3.0680   -8.6210 hc        1 CJC      0.086200
     39 H9          8.3630    1.9440   -9.5430 hx        1 CJC      0.112700
     40 H10         8.4570    0.3250   -7.6300 hn        1 CJC      0.466800
     41 H11         6.9500    0.5580   -8.3020 hn        1 CJC      0.466800
     42 H13         6.1020    3.0490   -8.2940 h1        1 CJC      0.100700
     43 H14         7.2970    4.0510   -9.2360 h1        1 CJC      0.100700
     44 H15         4.8860    5.6030   -2.2990 hn        1 CJC      0.334700
     45 H16         6.6470    8.5840   -3.3500 hc        1 CJC      0.083200
     46 H17         5.0560    8.6450   -4.2140 hc        1 CJC      0.083200
     47 H18         5.4840    7.7400   -1.2710 hc        1 CJC      0.050033
     48 H19         4.8300    9.3270   -1.8370 hc        1 CJC      0.050033
     49 H20         3.8890    7.8140   -2.1380 hc        1 CJC      0.050033
     50 H183        7.3120    1.2790   -6.8180 hn        1 CJC      0.466800
@<TRIPOS>BOND
     1    1    2 2   
     2    2    3 1   
     3    2    4 1   
     4    3    7 2   
     5    3   31 1   
     6    4    5 1   
     7    4   32 1   
     8    5    6 ar  
     9    5   11 ar  
    10    6    7 1   
    11    6    8 ar  
    12    8    9 ar  
    13    9   10 ar  
    14    9   33 1   
    15   10   11 ar  
    16   10   12 1   
    17   11   34 1   
    18   12   13 1   
    19   13   14 ar  
    20   13   24 ar  
    21   14   15 ar  
    22   15   16 1   
    23   15   22 ar  
    24   16   17 1   
    25   16   21 1   
    26   17   18 1   
    27   17   35 1   
    28   17   36 1   
    29   18   19 1   
    30   18   37 1   
    31   18   38 1   
    32   19   20 1   
    33   19   21 1   
    34   19   39 1   
    35   20   40 1   
    36   20   41 1   
    37   20   50 1   
    38   21   42 1   
    39   21   43 1   
    40   22   23 ar  
    41   22   27 1   
    42   23   24 ar  
    43   23   25 1   
    44   25   26 1   
    45   25   44 1   
    46   26   27 2   
    47   26   29 1   
    48   27   28 1   
    49   29   30 1   
    50   29   45 1   
    51   29   46 1   
    52   30   47 1   
    53   30   48 1   
    54   30   49 1   
@<TRIPOS>SUBSTRUCTURE
     1 CJC         1 TEMP              0 ****  ****    0 ROOT
