@<TRIPOS>MOLECULE
CJH
   42    43     1     0     0
SMALL
bcc


@<TRIPOS>ATOM
      1 CAA         0.0300    0.0310   -0.1030 c3        1 CJH     -0.100100
      2 CAO         1.5390    0.0590   -0.1940 c3        1 CJH      0.128400
      3 OAQ         2.0170   -0.0030    1.1550 os        1 CJH     -0.332900
      4 CAV         3.3900    0.0110    1.3110 ca        1 CJH      0.128100
      5 CAN         3.8240   -0.0510    2.6480 ca        1 CJH     -0.150000
      6 CAH         4.3100    0.0800    0.2590 ca        1 CJH     -0.206000
      7 CAG         5.6730    0.0860    0.5560 ca        1 CJH     -0.096000
      8 CAK         6.1170    0.0280    1.8720 ca        1 CJH     -0.158000
      9 CAX         5.1930   -0.0420    2.9290 cp        1 CJH      0.003000
     10 CAW         5.6580   -0.1070    4.3120 cp        1 CJH     -0.070000
     11 CAM         6.7530    0.6590    4.7340 ca        1 CJH     -0.089500
     12 CAJ         7.2000    0.6040    6.0460 ca        1 CJH     -0.172000
     13 CAL         5.0210   -0.9340    5.2450 ca        1 CJH     -0.089500
     14 CAI         5.4560   -1.0060    6.5640 ca        1 CJH     -0.172000
     15 CAU         6.5580   -0.2350    6.9910 ca        1 CJH      0.076600
     16 NAP         7.0450   -0.2470    8.3070 ns        1 CJH     -0.465100
     17 CAS         6.6290   -1.0610    9.3530 c         1 CJH      0.705300
     18 OAD         5.7190   -1.9000    9.2570 o         1 CJH     -0.565100
     19 CAT         7.3650   -0.8590   10.6410 ce        1 CJH     -0.165900
     20 CAF         8.7780   -0.8450   10.5770 cg        1 CJH      0.202500
     21 NAC         9.9400   -0.8360   10.5020 n1        1 CJH     -0.366800
     22 CAR         6.7030   -0.7380   11.8260 c2        1 CJH      0.200900
     23 CAB         7.3570   -0.6300   13.1540 c3        1 CJH     -0.119900
     24 OAE         5.3360   -0.6900   11.7870 oh        1 CJH     -0.463100
     25 HAA        -0.3130   -0.9060    0.3960 hc        1 CJH      0.048700
     26 HAAA       -0.3990    0.0780   -1.1320 hc        1 CJH      0.048700
     27 HAAB       -0.3410    0.9000    0.4900 hc        1 CJH      0.048700
     28 HAO         1.9270   -0.8230   -0.7690 h1        1 CJH      0.037700
     29 HAOA        1.8990    1.0070   -0.6740 h1        1 CJH      0.037700
     30 HAN         3.0790   -0.0970    3.4550 ha        1 CJH      0.152000
     31 HAH         3.9800    0.1270   -0.7870 ha        1 CJH      0.136000
     32 HAG         6.4040    0.1380   -0.2660 ha        1 CJH      0.131000
     33 HAK         7.1940    0.0250    2.0910 ha        1 CJH      0.135000
     34 HAM         7.2640    1.3210    4.0170 ha        1 CJH      0.138500
     35 HAJ         8.0620    1.2210    6.3420 ha        1 CJH      0.152500
     36 HAL         4.1620   -1.5480    4.9310 ha        1 CJH      0.138500
     37 HAI         4.9290   -1.6730    7.2660 ha        1 CJH      0.152500
     38 HNAP        7.8010    0.3760    8.4900 hn        1 CJH      0.321500
     39 HAB         7.0870   -1.5190   13.7790 hc        1 CJH      0.075700
     40 HABA        8.4700   -0.5900   13.0580 hc        1 CJH      0.075700
     41 HABB        7.0110    0.2960   13.6790 hc        1 CJH      0.075700
     42 HOAE        5.0010   -0.7070   12.6970 ho        1 CJH      0.432000
@<TRIPOS>BOND
     1    1    2 1   
     2    1   25 1   
     3    1   26 1   
     4    1   27 1   
     5    2    3 1   
     6    2   28 1   
     7    2   29 1   
     8    3    4 1   
     9    4    5 ar  
    10    4    6 ar  
    11    5    9 ar  
    12    5   30 1   
    13    6    7 ar  
    14    6   31 1   
    15    7    8 ar  
    16    7   32 1   
    17    8    9 ar  
    18    8   33 1   
    19    9   10 1   
    20   10   11 ar  
    21   10   13 ar  
    22   11   12 ar  
    23   11   34 1   
    24   12   15 ar  
    25   12   35 1   
    26   13   14 ar  
    27   13   36 1   
    28   14   15 ar  
    29   14   37 1   
    30   15   16 1   
    31   16   17 1   
    32   16   38 1   
    33   17   18 2   
    34   17   19 1   
    35   19   20 1   
    36   19   22 2   
    37   20   21 3   
    38   22   23 1   
    39   22   24 1   
    40   23   39 1   
    41   23   40 1   
    42   23   41 1   
    43   24   42 1   
@<TRIPOS>SUBSTRUCTURE
     1 CJH         1 TEMP              0 ****  ****    0 ROOT
