@<TRIPOS>MOLECULE
CJH
   42    43     1     0     0
SMALL
bcc


@<TRIPOS>ATOM
      1 CAA         0.2090   -0.8100   -0.1910 c3        1 CJH     -0.100100
      2 CAO         1.6130   -0.2520   -0.2090 c3        1 CJH      0.128400
      3 OAQ         2.1220   -0.4230    1.1200 os        1 CJH     -0.331900
      4 CAV         3.4140    0.0180    1.3340 ca        1 CJH      0.129100
      5 CAN         3.8860   -0.1780    2.6450 ca        1 CJH     -0.149000
      6 CAH         4.2240    0.6140    0.3610 ca        1 CJH     -0.205000
      7 CAG         5.5140    1.0150    0.7100 ca        1 CJH     -0.096000
      8 CAK         5.9930    0.8270    2.0020 ca        1 CJH     -0.157000
      9 CAX         5.1800    0.2290    2.9790 cp        1 CJH     -0.001000
     10 CAW         5.6820    0.0340    4.3380 cp        1 CJH     -0.063000
     11 CAM         7.0060   -0.3680    4.5590 ca        1 CJH     -0.092000
     12 CAJ         7.4890   -0.5580    5.8450 ca        1 CJH     -0.166000
     13 CAL         4.8520    0.2440    5.4450 ca        1 CJH     -0.092000
     14 CAI         5.3200    0.0650    6.7430 ca        1 CJH     -0.166000
     15 CAU         6.6500   -0.3440    6.9680 ca        1 CJH      0.069600
     16 NAP         7.2010   -0.5360    8.2480 n         1 CJH     -0.450100
     17 CAS         6.5260   -0.5590    9.4550 c         1 CJH      0.713300
     18 OAD         5.2870   -0.3770    9.5310 o         1 CJH     -0.648100
     19 CAT         7.3190   -0.8050   10.6840 ce        1 CJH     -0.256900
     20 CAF         8.7190   -0.9840   10.5750 cg        1 CJH      0.206500
     21 NAC         9.8710   -1.1300   10.4880 n1        1 CJH     -0.377800
     22 CAR         6.7470   -0.8650   11.9320 c2        1 CJH      0.269900
     23 CAB         7.5530   -1.1120   13.1620 c3        1 CJH     -0.092900
     24 OAE         5.4380   -0.7180   12.2210 oh        1 CJH     -0.484100
     25 HAA         0.2210   -1.8900    0.0920 hc        1 CJH      0.049367
     26 HAAA       -0.4210   -0.2610    0.5490 hc        1 CJH      0.049367
     27 HAAB       -0.2400   -0.7020   -1.2070 hc        1 CJH      0.049367
     28 HAO         1.6130    0.8390   -0.4700 h1        1 CJH      0.037700
     29 HAOA        2.2630   -0.8110   -0.9320 h1        1 CJH      0.037700
     30 HAN         3.2310   -0.6560    3.3880 ha        1 CJH      0.152000
     31 HAH         3.8640    0.7700   -0.6650 ha        1 CJH      0.137000
     32 HAG         6.1560    1.4860   -0.0480 ha        1 CJH      0.132000
     33 HAK         7.0090    1.1550    2.2660 ha        1 CJH      0.135000
     34 HAM         7.6730   -0.5460    3.7000 ha        1 CJH      0.140000
     35 HAJ         8.5340   -0.8790    5.9800 ha        1 CJH      0.153000
     36 HAL         3.8100    0.5650    5.2920 ha        1 CJH      0.140000
     37 HAI         4.6340    0.2450    7.5870 ha        1 CJH      0.153000
     38 HNAP        8.1810   -0.7230    8.2590 hn        1 CJH      0.327500
     39 HAB         8.0860   -2.0910   13.0700 hc        1 CJH      0.079700
     40 HABA        6.8970   -1.1350   14.0680 hc        1 CJH      0.079700
     41 HABB        8.3120   -0.2990   13.2800 hc        1 CJH      0.079700
     42 HOAE        4.8990   -0.5550   11.4210 ho        1 CJH      0.483000
@<TRIPOS>BOND
     1    1    2 1   
     2    1   25 1   
     3    1   26 1   
     4    1   27 1   
     5    2    3 1   
     6    2   28 1   
     7    2   29 1   
     8    3    4 1   
     9    4    5 ar  
    10    4    6 ar  
    11    5    9 ar  
    12    5   30 1   
    13    6    7 ar  
    14    6   31 1   
    15    7    8 ar  
    16    7   32 1   
    17    8    9 ar  
    18    8   33 1   
    19    9   10 1   
    20   10   11 ar  
    21   10   13 ar  
    22   11   12 ar  
    23   11   34 1   
    24   12   15 ar  
    25   12   35 1   
    26   13   14 ar  
    27   13   36 1   
    28   14   15 ar  
    29   14   37 1   
    30   15   16 1   
    31   16   17 1   
    32   16   38 1   
    33   17   18 2   
    34   17   19 1   
    35   19   20 1   
    36   19   22 2   
    37   20   21 3   
    38   22   23 1   
    39   22   24 1   
    40   23   39 1   
    41   23   40 1   
    42   23   41 1   
    43   24   42 1   
@<TRIPOS>SUBSTRUCTURE
     1 CJH         1 TEMP              0 ****  ****    0 ROOT
