@<TRIPOS>MOLECULE
CJH
   43    44     1     0     0
SMALL
bcc


@<TRIPOS>ATOM
      1 CAA         0.3170   -1.1790    0.4750 c3        1 CJH     -0.102100
      2 CAO         1.7910   -0.8900    0.3090 c3        1 CJH      0.127400
      3 OAQ         2.2880   -0.6210    1.6310 os        1 CJH     -0.328900
      4 CAV         3.6290   -0.3280    1.7280 ca        1 CJH      0.140100
      5 CAN         4.0750   -0.0700    3.0380 ca        1 CJH     -0.139000
      6 CAH         4.5190   -0.2760    0.6470 ca        1 CJH     -0.176000
      7 CAG         5.8580    0.0330    0.8850 ca        1 CJH     -0.087000
      8 CAK         6.3140    0.2840    2.1760 ca        1 CJH     -0.143000
      9 CAX         5.4210    0.2350    3.2580 cp        1 CJH     -0.059000
     10 CAW         5.8930    0.5030    4.6140 cp        1 CJH      0.053000
     11 CAM         7.1530    0.0470    5.0340 ca        1 CJH     -0.109000
     12 CAJ         7.6120    0.2960    6.3220 ca        1 CJH     -0.093000
     13 CAL         5.0920    1.2220    5.5180 ca        1 CJH     -0.109000
     14 CAI         5.5310    1.4820    6.8100 ca        1 CJH     -0.093000
     15 CAU         6.7980    1.0180    7.2120 ca        1 CJH     -0.081400
     16 NAP         7.2770    1.3160    8.5660 n4        1 CJH     -0.520200
     17 CAS         6.4540    0.6060    9.6220 c         1 CJH      0.594300
     18 OAD         5.4710    1.2400   10.0160 o         1 CJH     -0.511100
     19 CAT         6.8990   -0.6880   10.0680 ce        1 CJH     -0.289900
     20 CAF         8.0870   -1.2360    9.5290 cg        1 CJH      0.167500
     21 NAC         9.0630   -1.6940    9.0920 n1        1 CJH     -0.303800
     22 CAR         6.1910   -1.4270   11.0150 c2        1 CJH      0.351900
     23 CAB         6.6510   -2.7640   11.4710 c3        1 CJH     -0.111900
     24 OAE         5.0580   -1.0460   11.6110 oh        1 CJH     -0.431100
     25 HAA        -0.1240   -1.3960   -0.5270 hc        1 CJH      0.055367
     26 HAAA       -0.2060   -0.3010    0.9230 hc        1 CJH      0.055367
     27 HAAB        0.1630   -2.0600    1.1430 hc        1 CJH      0.055367
     28 HAO         1.9600    0.0100   -0.3390 h1        1 CJH      0.044700
     29 HAOA        2.3350   -1.7740   -0.1170 h1        1 CJH      0.044700
     30 HAN         3.3550   -0.1260    3.8680 ha        1 CJH      0.151000
     31 HAH         4.1790   -0.4730   -0.3800 ha        1 CJH      0.153000
     32 HAG         6.5620    0.0790    0.0390 ha        1 CJH      0.149000
     33 HAK         7.3720    0.5350    2.3440 ha        1 CJH      0.137000
     34 HAM         7.7880   -0.5250    4.3350 ha        1 CJH      0.173500
     35 HAJ         8.6040   -0.0800    6.6230 ha        1 CJH      0.160500
     36 HAL         4.1030    1.5920    5.1970 ha        1 CJH      0.173500
     37 HAI         4.8860    2.0460    7.5050 ha        1 CJH      0.160500
     38 HNAP        7.1870    2.3320    8.7200 hn        1 CJH      0.466800
     39 HAB         5.9600   -3.1840   12.2460 hc        1 CJH      0.108367
     40 HABA        7.6810   -2.6790   11.9050 hc        1 CJH      0.108367
     41 HABB        6.6890   -3.4650   10.5970 hc        1 CJH      0.108367
     42 HOAE        4.7390   -0.1680   11.3200 ho        1 CJH      0.482000
     43 HAP2        8.2640    1.0480    8.6470 hn        1 CJH      0.466800
@<TRIPOS>BOND
     1    1    2 1   
     2    1   25 1   
     3    1   26 1   
     4    1   27 1   
     5    2    3 1   
     6    2   28 1   
     7    2   29 1   
     8    3    4 1   
     9    4    5 ar  
    10    4    6 ar  
    11    5    9 ar  
    12    5   30 1   
    13    6    7 ar  
    14    6   31 1   
    15    7    8 ar  
    16    7   32 1   
    17    8    9 ar  
    18    8   33 1   
    19    9   10 1   
    20   10   11 ar  
    21   10   13 ar  
    22   11   12 ar  
    23   11   34 1   
    24   12   15 ar  
    25   12   35 1   
    26   13   14 ar  
    27   13   36 1   
    28   14   15 ar  
    29   14   37 1   
    30   15   16 1   
    31   16   17 1   
    32   16   38 1   
    33   16   43 1   
    34   17   18 2   
    35   17   19 1   
    36   19   20 1   
    37   19   22 2   
    38   20   21 3   
    39   22   23 1   
    40   22   24 1   
    41   23   39 1   
    42   23   40 1   
    43   23   41 1   
    44   24   42 1   
@<TRIPOS>SUBSTRUCTURE
     1 CJH         1 TEMP              0 ****  ****    0 ROOT
