@<TRIPOS>MOLECULE
CJH
   42    43     1     0     0
SMALL
bcc


@<TRIPOS>ATOM
      1 CAA         7.7530    2.2820    1.1770 c3        1 CJH     -0.100100
      2 CAO         7.2010    1.0690    0.4640 c3        1 CJH      0.128400
      3 OAQ         5.7760    1.1550    0.5840 os        1 CJH     -0.331900
      4 CAV         5.0570    0.1270    0.0060 ca        1 CJH      0.129100
      5 CAN         3.6620    0.2350    0.1580 ca        1 CJH     -0.150000
      6 CAH         5.6230   -0.9510   -0.6840 ca        1 CJH     -0.206000
      7 CAG         4.7800   -1.9230   -1.2220 ca        1 CJH     -0.096000
      8 CAK         3.4000   -1.8300   -1.0790 ca        1 CJH     -0.158000
      9 CAX         2.8320   -0.7470   -0.3870 cp        1 CJH      0.003000
     10 CAW         1.3820   -0.6460   -0.2390 cp        1 CJH     -0.070000
     11 CAM         0.6090   -1.7880    0.0140 ca        1 CJH     -0.089500
     12 CAJ        -0.7680   -1.7000    0.1580 ca        1 CJH     -0.172000
     13 CAL         0.7340    0.5910   -0.3440 ca        1 CJH     -0.089500
     14 CAI        -0.6460    0.6980   -0.2080 ca        1 CJH     -0.172000
     15 CAU        -1.4260   -0.4490    0.0480 ca        1 CJH      0.076600
     16 NAP        -2.8220   -0.4180    0.1880 n         1 CJH     -0.465100
     17 CAS        -3.6400    0.7030    0.2290 c         1 CJH      0.705300
     18 OAD        -3.2240    1.8680    0.1130 o         1 CJH     -0.565100
     19 CAT        -5.0960    0.4170    0.4250 ce        1 CJH     -0.165900
     20 CAF        -5.4400   -0.4680    1.4740 cg        1 CJH      0.202500
     21 NAC        -5.7020   -1.1980    2.3420 n1        1 CJH     -0.365800
     22 CAR        -6.0480    1.0140   -0.3460 c2        1 CJH      0.200900
     23 CAB        -7.5120    0.8580   -0.1550 c3        1 CJH     -0.119900
     24 OAE        -5.6240    1.7980   -1.3840 oh        1 CJH     -0.463100
     25 HAA         7.3710    3.2190    0.7050 hc        1 CJH      0.048700
     26 HAAA        7.4450    2.2790    2.2490 hc        1 CJH      0.048700
     27 HAAB        8.8670    2.2670    1.1140 hc        1 CJH      0.048700
     28 HAO         7.4840    1.0720   -0.6210 h1        1 CJH      0.037200
     29 HAOA        7.5590    0.1190    0.9430 h1        1 CJH      0.037200
     30 HAN         3.2450    1.0890    0.7110 ha        1 CJH      0.152000
     31 HAH         6.7100   -1.0430   -0.8070 ha        1 CJH      0.136000
     32 HAG         5.2170   -2.7730   -1.7680 ha        1 CJH      0.131000
     33 HAK         2.7480   -2.5990   -1.5160 ha        1 CJH      0.135000
     34 HAM         1.1000   -2.7690    0.1090 ha        1 CJH      0.138500
     35 HAJ        -1.3430   -2.6170    0.3620 ha        1 CJH      0.152500
     36 HAL         1.3250    1.4980   -0.5470 ha        1 CJH      0.138500
     37 HAI        -1.1170    1.6910   -0.3020 ha        1 CJH      0.152500
     38 HNAP       -3.2600   -1.3040    0.3200 hn        1 CJH      0.321500
     39 HAB        -7.9630    1.8460    0.1160 hc        1 CJH      0.075700
     40 HABA       -7.9860    0.4960   -1.1030 hc        1 CJH      0.075700
     41 HABB       -7.7420    0.1280    0.6600 hc        1 CJH      0.075700
     42 HOAE       -6.3970    2.2360   -1.7740 ho        1 CJH      0.432000
@<TRIPOS>BOND
     1    1    2 1   
     2    1   25 1   
     3    1   26 1   
     4    1   27 1   
     5    2    3 1   
     6    2   28 1   
     7    2   29 1   
     8    3    4 1   
     9    4    5 ar  
    10    4    6 ar  
    11    5    9 ar  
    12    5   30 1   
    13    6    7 ar  
    14    6   31 1   
    15    7    8 ar  
    16    7   32 1   
    17    8    9 ar  
    18    8   33 1   
    19    9   10 1   
    20   10   11 ar  
    21   10   13 ar  
    22   11   12 ar  
    23   11   34 1   
    24   12   15 ar  
    25   12   35 1   
    26   13   14 ar  
    27   13   36 1   
    28   14   15 ar  
    29   14   37 1   
    30   15   16 1   
    31   16   17 1   
    32   16   38 1   
    33   17   18 2   
    34   17   19 1   
    35   19   20 1   
    36   19   22 2   
    37   20   21 3   
    38   22   23 1   
    39   22   24 1   
    40   23   39 1   
    41   23   40 1   
    42   23   41 1   
    43   24   42 1   
@<TRIPOS>SUBSTRUCTURE
     1 CJH         1 TEMP              0 ****  ****    0 ROOT
