@<TRIPOS>MOLECULE
CJH
   42    36     1     0     0
SMALL
bcc


@<TRIPOS>ATOM
      1 CAA        -2.3360    4.3820    5.0400 c3        1 CJH     -0.218000
      2 CAO        -2.5830    4.6380    3.5700 c3        1 CJH     -0.022000
      3 OAQ        -3.1660    3.4950    2.9860 os        1 CJH     -0.216000
      4 CAV        -2.6630    3.1880    1.7110 c2        1 CJH      0.083000
      5 CAN        -1.9400    2.0210    1.5130 c2        1 CJH     -0.151000
      6 CAH        -2.9300    4.0260    0.6410 c1        1 CJH     -0.205000
      7 CAG        -2.4750    3.6990   -0.6280 c1        1 CJH     -0.125000
      8 CAK        -1.7530    2.5330   -0.8250 c1        1 CJH     -0.125000
      9 CAX        -1.4850    1.6940    0.2450 c1        1 CJH      0.001000
     10 CAW        -0.7630    0.5260    0.0480 c1        1 CJH     -0.066000
     11 CAM        -1.3870   -0.5910   -0.4870 c1        1 CJH     -0.125000
     12 CAJ        -0.6450   -1.7250   -0.7820 c1        1 CJH     -0.125000
     13 CAL         0.6030    0.5080    0.2870 c1        1 CJH     -0.089000
     14 CAI         1.3440   -0.6260   -0.0080 c1        1 CJH     -0.183000
     15 CAU         0.7200   -1.7420   -0.5420 c1        1 CJH      0.081000
     16 NAP         1.4620   -2.9350   -0.7540 n         1 CJH     -0.314000
     17 CAS         1.8220   -3.3220   -2.0730 c2        1 CJH      0.386000
     18 OAD         1.4950   -2.6310   -3.0190 o         1 CJH     -0.374000
     19 CAT         2.4850   -4.6630   -2.3120 c2        1 CJH     -0.259000
     20 CAF         1.7440   -5.9420   -1.9880 c1        1 CJH     -0.106000
     21 NAC         1.1850   -6.9050   -1.7450 n1        1 CJH     -0.043000
     22 CAR         3.7370   -4.7170   -2.8120 c1        1 CJH      0.217000
     23 CAB         4.4780   -3.4390   -3.1350 c2        1 CJH     -0.201000
     24 OAE         4.3530   -5.9640   -3.0330 oh        1 CJH     -0.236000
     25 HAA        -1.3790    4.4770    5.2320 hc        1 CJH      0.088333
     26 HAAA       -2.6260    3.4750    5.2670 hc        1 CJH      0.088333
     27 HAAB       -2.8420    5.0300    5.5740 hc        1 CJH      0.088333
     28 HAO        -1.7330    4.8340    3.1250 h1        1 CJH      0.077000
     29 HAOA       -3.1890    5.4010    3.4680 h1        1 CJH      0.077000
     30 HAN        -1.7520    1.4300    2.2670 ha        1 CJH      0.151000
     31 HAH        -3.4380    4.8480    0.7790 ha        1 CJH      0.136000
     32 HAG        -2.6630    4.2890   -1.3810 ha        1 CJH      0.145000
     33 HAK        -1.4330    2.3020   -1.7180 ha        1 CJH      0.145000
     34 HAM        -2.3480   -0.5790   -0.6560 ha        1 CJH      0.145000
     35 HAJ        -1.0850   -2.5120   -1.1590 ha        1 CJH      0.145000
     36 HAL         1.0430    1.2950    0.6640 ha        1 CJH      0.139000
     37 HAI         2.3060   -0.6380    0.1610 ha        1 CJH      0.133000
     38 HNAP        1.7350   -3.4340   -0.0420 hn        1 CJH      0.238000
     39 HAB         3.8980   -2.8500   -3.6610 ha        1 CJH      0.126667
     40 HABA        4.7310   -2.9890   -2.3020 ha        1 CJH      0.126667
     41 HABB        5.2840   -3.6510   -3.6510 ha        1 CJH      0.126667
     42 HOAE        4.1860   -6.2340   -3.8640 ho        1 CJH      0.240000
@<TRIPOS>BOND
     1    1    2 1   
     2    1   25 1   
     3    1   26 1   
     4    1   27 1   
     5    2    3 1   
     6    2   28 1   
     7    2   29 1   
     8    3    4 1   
     9    4    5 1   
    10    4    6 1   
    11    5    9 1   
    12    5   30 1   
    13    6   31 1   
    14    7    8 1   
    15    7   32 1   
    16    8   33 1   
    17   10   13 1   
    18   11   12 1   
    19   11   34 1   
    20   12   35 1   
    21   13   36 1   
    22   14   15 1   
    23   14   37 1   
    24   15   16 1   
    25   16   17 1   
    26   16   38 1   
    27   17   18 1   
    28   17   19 1   
    29   19   20 1   
    30   19   22 1   
    31   20   21 1   
    32   22   24 1   
    33   23   39 1   
    34   23   40 1   
    35   23   41 1   
    36   24   42 1   
@<TRIPOS>SUBSTRUCTURE
     1 CJH         1 TEMP              0 ****  ****    0 ROOT
