@<TRIPOS>MOLECULE
CJO
   43    42     1     0     0
SMALL
bcc


@<TRIPOS>ATOM
      1 N1          0.8200    2.8370    1.7510 n3        1 CJO     -0.338000
      2 CA1        -0.3910    2.4460    1.0550 c3        1 CJO     -0.008000
      3 CB1        -1.0710    3.7170    0.4750 c3        1 CJO      0.029000
      4 CG1        -2.3290    4.0380    1.2700 c3        1 CJO     -0.238000
      5 OG1        -0.2000    4.7770    0.5570 oh        1 CJO     -0.324000
      6 C1         -0.0640    1.5420   -0.0250 c3        1 CJO     -0.006000
      7 N2         -0.7970    0.2400    0.1410 n3        1 CJO     -0.277000
      8 N3          1.3760    1.2070   -0.0030 n         1 CJO     -0.270000
      9 C2          1.4340    0.0200    0.4350 c2        1 CJO      0.279000
     10 O2          2.2820   -0.4310    1.1450 o         1 CJO     -0.344000
     11 CA2         0.1330   -0.7050   -0.0250 c3        1 CJO     -0.079000
     12 CA3         2.4860    2.1770   -0.0050 c3        1 CJO     -0.145000
     13 C3          3.7680    1.4730   -0.3250 c2        1 CJO      0.318000
     14 OXT         4.5890    1.2560    0.5680 o         1 CJO     -0.573000
     15 CB2        -0.1680   -2.0900    0.7760 c3        1 CJO     -0.109000
     16 CG2        -0.4810   -3.1890   -0.2080 c2        1 CJO     -0.084000
     17 CD1        -1.8120   -3.4790   -0.5410 c2        1 CJO     -0.080000
     18 CD2         0.5530   -3.8970   -0.8020 c1        1 CJO     -0.095000
     19 CE1        -2.0920   -4.4710   -1.4620 c1        1 CJO     -0.162000
     20 CE2         0.2680   -4.8940   -1.7280 c1        1 CJO     -0.217000
     21 CZ         -1.0500   -5.1820   -2.0580 c1        1 CJO      0.061000
     22 OH         -1.3230   -6.1440   -2.9720 oh        1 CJO     -0.263000
     23 O3          3.9910    1.0670   -1.5000 o         1 CJO     -0.573000
     24 HN1         0.9600    2.2610    2.5060 hn        1 CJO      0.152500
     25 HN1A        0.7400    3.6750    2.0300 hn        1 CJO      0.152500
     26 HA1        -1.0020    2.0000    1.6810 h1        1 CJO      0.093000
     27 HB1        -1.3030    3.5650   -0.4470 h1        1 CJO      0.087000
     28 HG1        -2.6980    3.2130    1.6480 hc        1 CJO      0.075000
     29 HG1A       -3.0170    4.4670    0.6560 hc        1 CJO      0.075000
     30 HG1B       -2.1110    4.6450    1.9790 hc        1 CJO      0.075000
     31 HOG1       -0.4690    5.4340   -0.0100 ho        1 CJO      0.189000
     32 HA2         0.1860   -1.0150   -0.9520 h1        1 CJO      0.125000
     33 HA3         2.5540    2.5750    0.8440 h1        1 CJO      0.091500
     34 HA3A        2.3170    2.8610   -0.6710 h1        1 CJO      0.091500
     35 HB2         0.6450   -2.3470    1.3170 hc        1 CJO      0.096000
     36 HB2A       -0.8730   -1.9700    1.3290 hc        1 CJO      0.096000
     37 HD1        -2.5560   -2.9710   -0.1130 ha        1 CJO      0.153000
     38 HD2         1.5150   -3.7840   -0.4540 ha        1 CJO      0.134000
     39 HE1        -3.0100   -4.6720   -1.6920 ha        1 CJO      0.141000
     40 HE2         1.0270   -5.4140   -2.1650 ha        1 CJO      0.123000
     41 HOH        -1.1140   -6.9480   -2.6320 ho        1 CJO      0.209000
     42 HC1        -0.2970    1.9450   -0.8780 h2        1 CJO      0.148000
     43 HN2        -1.4150    0.1650   -0.4970 hn        1 CJO      0.191000
@<TRIPOS>BOND
     1    1    2 1   
     2    1   24 1   
     3    1   25 1   
     4    2    3 1   
     5    2    6 1   
     6    2   26 1   
     7    3    4 1   
     8    3    5 1   
     9    3   27 1   
    10    4   28 1   
    11    4   29 1   
    12    4   30 1   
    13    5   31 1   
    14    6    7 1   
    15    6    8 1   
    16    6   42 1   
    17    7   11 1   
    18    7   43 1   
    19    8    9 1   
    20    8   12 1   
    21    9   10 1   
    22    9   11 1   
    23   11   15 1   
    24   11   32 1   
    25   12   13 1   
    26   12   33 1   
    27   12   34 1   
    28   13   14 1   
    29   13   23 1   
    30   15   16 1   
    31   15   35 1   
    32   15   36 1   
    33   16   17 1   
    34   16   18 1   
    35   17   19 1   
    36   17   37 1   
    37   18   38 1   
    38   19   39 1   
    39   20   21 1   
    40   20   40 1   
    41   21   22 1   
    42   22   41 1   
@<TRIPOS>SUBSTRUCTURE
     1 CJO         1 TEMP              0 ****  ****    0 ROOT
