@<TRIPOS>MOLECULE
CJO
   43    44     1     0     0
SMALL
bcc


@<TRIPOS>ATOM
      1 N1          1.3410    2.6780   -2.0490 n3        1 CJO     -0.898800
      2 CA1         1.6180    2.4740   -0.6460 c3        1 CJO      0.147500
      3 CB1         0.9100    3.5090    0.2640 c3        1 CJO      0.153100
      4 CG1         1.6150    4.8530    0.1960 c3        1 CJO     -0.088100
      5 OG1        -0.4420    3.7530   -0.1000 oh        1 CJO     -0.617800
      6 C1          1.3170    1.0290   -0.0950 c3        1 CJO      0.220900
      7 N2         -0.1120    0.6680   -0.3130 n3        1 CJO     -0.809200
      8 N3          2.2020    0.0330   -0.7660 n         1 CJO     -0.400800
      9 C2          1.3590   -0.7340   -1.6250 c         1 CJO      0.663500
     10 O2          1.7400   -1.5280   -2.4920 o         1 CJO     -0.609500
     11 CA2        -0.1290   -0.3640   -1.3580 c3        1 CJO      0.077500
     12 CA3         3.0400   -0.7310    0.1430 c3        1 CJO     -0.077000
     13 C3          2.3460   -1.3690    1.3810 c         1 CJO      0.895600
     14 OXT         3.1030   -1.8960    2.2350 o         1 CJO     -0.843800
     15 CB2        -0.8480   -1.6700   -1.0000 c3        1 CJO     -0.050100
     16 CG2        -2.1650   -1.4590   -0.3470 ca        1 CJO     -0.098300
     17 CD1        -3.3350   -1.3130   -1.0990 ca        1 CJO     -0.091000
     18 CD2        -2.2330   -1.4300    1.0540 ca        1 CJO     -0.091000
     19 CE1        -4.5680   -1.1390   -0.4740 ca        1 CJO     -0.191500
     20 CE2        -3.4560   -1.2550    1.6950 ca        1 CJO     -0.191500
     21 CZ         -4.6200   -1.1100    0.9270 ca        1 CJO      0.104100
     22 OH         -5.8660   -0.9400    1.4970 oh        1 CJO     -0.513100
     23 O3          1.0810   -1.3270    1.4730 o         1 CJO     -0.843800
     24 HN1         1.6710    1.8970   -2.5830 hn        1 CJO      0.351300
     25 HN1A        0.3540    2.7760   -2.1960 hn        1 CJO      0.351300
     26 HA1         2.7320    2.6280   -0.5100 h1        1 CJO      0.066700
     27 HB1         0.9350    3.1220    1.3230 h1        1 CJO      0.031700
     28 HG1         1.6410    5.2230   -0.8560 hc        1 CJO      0.038700
     29 HG1A        1.0700    5.5980    0.8230 hc        1 CJO      0.038700
     30 HG1B        2.6590    4.7480    0.5740 hc        1 CJO      0.038700
     31 HOG1       -0.8930    2.9010   -0.1200 ho        1 CJO      0.422000
     32 HA2        -0.5810    0.0920   -2.2810 h1        1 CJO      0.065700
     33 HA3         3.5250   -1.5570   -0.4450 h1        1 CJO      0.056700
     34 HA3A        3.8420   -0.0360    0.5130 h1        1 CJO      0.056700
     35 HB2        -0.9650   -2.2650   -1.9440 hc        1 CJO      0.080200
     36 HB2A       -0.1810   -2.2510   -0.2960 hc        1 CJO      0.080200
     37 HD1        -3.2830   -1.3350   -2.1970 ha        1 CJO      0.160500
     38 HD2        -1.2990   -1.5480    1.6410 ha        1 CJO      0.160500
     39 HE1        -5.4910   -1.0230   -1.0560 ha        1 CJO      0.132000
     40 HE2        -3.5080   -1.2300    2.7920 ha        1 CJO      0.132000
     41 HOH        -5.7440   -0.9120    2.4560 ho        1 CJO      0.411000
     42 HC1         1.5400    1.0400    1.0160 h2        1 CJO      0.088700
     43 HN2        -0.4630    0.2730    0.5470 hn        1 CJO      0.388800
@<TRIPOS>BOND
     1    1    2 1   
     2    1   24 1   
     3    1   25 1   
     4    2    3 1   
     5    2    6 1   
     6    2   26 1   
     7    3    4 1   
     8    3    5 1   
     9    3   27 1   
    10    4   28 1   
    11    4   29 1   
    12    4   30 1   
    13    5   31 1   
    14    6    7 1   
    15    6    8 1   
    16    6   42 1   
    17    7   11 1   
    18    7   43 1   
    19    8    9 1   
    20    8   12 1   
    21    9   10 2   
    22    9   11 1   
    23   11   15 1   
    24   11   32 1   
    25   12   13 1   
    26   12   33 1   
    27   12   34 1   
    28   13   14 1   
    29   13   23 1   
    30   15   16 1   
    31   15   35 1   
    32   15   36 1   
    33   16   17 ar  
    34   16   18 ar  
    35   17   19 ar  
    36   17   37 1   
    37   18   20 ar  
    38   18   38 1   
    39   19   21 ar  
    40   19   39 1   
    41   20   21 ar  
    42   20   40 1   
    43   21   22 1   
    44   22   41 1   
@<TRIPOS>SUBSTRUCTURE
     1 CJO         1 TEMP              0 ****  ****    0 ROOT
