@<TRIPOS>MOLECULE
CJP
   38    40     1     0     0
SMALL
bcc


@<TRIPOS>ATOM
      1 O23        -0.0930   -0.2200   -0.3270 o         1 CJP     -0.607800
      2 S20         1.2480   -0.0430    0.0200 s6        1 CJP      1.458000
      3 O22         1.5730    0.0440    1.3710 o         1 CJP     -0.607800
      4 C21         2.1750   -1.2430   -0.7120 c3        1 CJP     -0.391300
      5 N9          1.8200    1.3560   -0.7750 na        1 CJP     -0.204900
      6 C4          1.0870    2.1130   -1.7310 ca        1 CJP     -0.030200
      7 C5         -0.1610    1.8640   -2.3250 ca        1 CJP     -0.109000
      8 C6         -0.6430    2.7950   -3.2370 ca        1 CJP     -0.101000
      9 C1          0.0760    3.9560   -3.5620 ca        1 CJP     -0.105000
     10 C8          3.0100    2.0670   -0.5320 cc        1 CJP      0.137700
     11 C7          3.0470    3.2460   -1.2870 cd        1 CJP     -0.252400
     12 C16         4.0670    4.2930   -1.2420 c3        1 CJP      0.215000
     13 N17         4.8000    4.3820   -2.5560 n4        1 CJP     -0.848600
     14 C3          1.8260    3.3000   -2.0680 ca        1 CJP     -0.085800
     15 C2          1.3100    4.2170   -2.9810 ca        1 CJP     -0.133000
     16 C10         4.0570    1.6070    0.3800 ca        1 CJP     -0.137800
     17 C15         5.0190    0.6960   -0.0810 ca        1 CJP     -0.112000
     18 C14         6.0380    0.2550    0.7550 ca        1 CJP     -0.129000
     19 C13         6.1020    0.7230    2.0760 ca        1 CJP      0.052400
     20 CL1         7.3330    0.1830    3.0980 cl        1 CJP     -0.030400
     21 C12         5.1520    1.6310    2.5520 ca        1 CJP     -0.116000
     22 C11         4.1330    2.0780    1.7020 ca        1 CJP      0.070400
     23 CL2         2.9990    3.1830    2.2980 cl        1 CJP     -0.036400
     24 H1          1.8810   -2.2550   -0.3180 h1        1 CJP      0.134700
     25 H2          3.2730   -1.1560   -0.5170 h1        1 CJP      0.134700
     26 H3          2.0500   -1.3140   -1.8220 h1        1 CJP      0.134700
     27 H4         -0.7590    0.9720   -2.0670 ha        1 CJP      0.190000
     28 H5         -1.6240    2.6200   -3.7110 ha        1 CJP      0.160000
     29 H6         -0.3540    4.6700   -4.2820 ha        1 CJP      0.152000
     30 H7          3.5910    5.3040   -1.0670 hx        1 CJP      0.112700
     31 H8          4.8310    4.0930   -0.4350 hx        1 CJP      0.112700
     32 H9          5.4550    5.1660   -2.5480 hn        1 CJP      0.455133
     33 H10         5.3110    3.5130   -2.7320 hn        1 CJP      0.455133
     34 H12         1.8530    5.1420   -3.2190 ha        1 CJP      0.115000
     35 H13         4.9650    0.3210   -1.1150 ha        1 CJP      0.141000
     36 H14         6.7850   -0.4660    0.3850 ha        1 CJP      0.168000
     37 H15         5.1940    1.9870    3.5960 ha        1 CJP      0.184000
     38 H173        4.1170    4.5110   -3.3130 hn        1 CJP      0.455133
@<TRIPOS>BOND
     1    1    2 2   
     2    2    3 2   
     3    2    4 1   
     4    2    5 1   
     5    4   24 1   
     6    4   25 1   
     7    4   26 1   
     8    5    6 1   
     9    5   10 1   
    10    6    7 ar  
    11    6   14 ar  
    12    7    8 ar  
    13    7   27 1   
    14    8    9 ar  
    15    8   28 1   
    16    9   15 ar  
    17    9   29 1   
    18   10   11 2   
    19   10   16 1   
    20   11   12 1   
    21   11   14 1   
    22   12   13 1   
    23   12   30 1   
    24   12   31 1   
    25   13   32 1   
    26   13   33 1   
    27   13   38 1   
    28   14   15 ar  
    29   15   34 1   
    30   16   17 ar  
    31   16   22 ar  
    32   17   18 ar  
    33   17   35 1   
    34   18   19 ar  
    35   18   36 1   
    36   19   20 1   
    37   19   21 ar  
    38   21   22 ar  
    39   21   37 1   
    40   22   23 1   
@<TRIPOS>SUBSTRUCTURE
     1 CJP         1 TEMP              0 ****  ****    0 ROOT
