@<TRIPOS>MOLECULE
CJP
   38    40     1     0     0
SMALL
bcc


@<TRIPOS>ATOM
      1 O23        -0.0910   -0.2190   -0.3140 o         1 CJP     -0.607800
      2 S20         1.2500   -0.0410    0.0290 s6        1 CJP      1.458000
      3 O22         1.5800    0.0500    1.3790 o         1 CJP     -0.607800
      4 C21         2.1750   -1.2430   -0.7030 c3        1 CJP     -0.391300
      5 N9          1.8210    1.3560   -0.7710 na        1 CJP     -0.204900
      6 C4          1.0850    2.1110   -1.7270 ca        1 CJP     -0.030200
      7 C5         -0.1640    1.8600   -2.3160 ca        1 CJP     -0.109000
      8 C6         -0.6480    2.7890   -3.2290 ca        1 CJP     -0.101000
      9 C1          0.0700    3.9500   -3.5590 ca        1 CJP     -0.105000
     10 C8          3.0120    2.0680   -0.5330 cc        1 CJP      0.137700
     11 C7          3.0470    3.2440   -1.2910 cd        1 CJP     -0.252400
     12 C16         4.0670    4.2920   -1.2500 c3        1 CJP      0.215000
     13 N17         4.7960    4.3780   -2.5670 nz        1 CJP     -0.848600
     14 C3          1.8240    3.2970   -2.0680 ca        1 CJP     -0.085800
     15 C2          1.3060    4.2120   -2.9820 ca        1 CJP     -0.133000
     16 C10         4.0610    1.6090    0.3780 ca        1 CJP     -0.137800
     17 C15         5.0210    0.6970   -0.0840 ca        1 CJP     -0.112000
     18 C14         6.0430    0.2580    0.7510 ca        1 CJP     -0.129000
     19 C13         6.1100    0.7290    2.0700 ca        1 CJP      0.052400
     20 Cl1         7.3440    0.1910    3.0910 cl        1 CJP     -0.030400
     21 C12         5.1620    1.6380    2.5460 ca        1 CJP     -0.116000
     22 C11         4.1400    2.0830    1.6980 ca        1 CJP      0.070400
     23 Cl2         3.0080    3.1900    2.2950 cl        1 CJP     -0.036400
     24 H1          1.8830   -2.2540   -0.3050 h1        1 CJP      0.134700
     25 H2          3.2750   -1.1560   -0.5110 h1        1 CJP      0.134700
     26 H3          2.0470   -1.3170   -1.8120 h1        1 CJP      0.134700
     27 H4         -0.7620    0.9700   -2.0550 ha        1 CJP      0.190000
     28 H5         -1.6300    2.6140   -3.7010 ha        1 CJP      0.160000
     29 H6         -0.3610    4.6620   -4.2800 ha        1 CJP      0.152000
     30 H7          3.5920    5.3030   -1.0760 hx        1 CJP      0.112700
     31 H8          4.8330    4.0930   -0.4450 hx        1 CJP      0.112700
     32 H9          5.4520    5.1620   -2.5620 hn        1 CJP      0.455133
     33 H10         4.1120    4.5050   -3.3210 hn        1 CJP      0.455133
     34 H12         1.8490    5.1360   -3.2230 ha        1 CJP      0.115000
     35 H13         4.9650    0.3190   -1.1170 ha        1 CJP      0.141000
     36 H14         6.7890   -0.4640    0.3810 ha        1 CJP      0.168000
     37 H15         5.2070    1.9960    3.5900 ha        1 CJP      0.184000
     38 H173        5.3080    3.5080   -2.7410 hn        1 CJP      0.455133
@<TRIPOS>BOND
     1    1    2 2   
     2    2    3 2   
     3    2    4 1   
     4    2    5 1   
     5    4   24 1   
     6    4   25 1   
     7    4   26 1   
     8    5    6 1   
     9    5   10 1   
    10    6    7 ar  
    11    6   14 ar  
    12    7    8 ar  
    13    7   27 1   
    14    8    9 ar  
    15    8   28 1   
    16    9   15 ar  
    17    9   29 1   
    18   10   11 2   
    19   10   16 1   
    20   11   12 1   
    21   11   14 1   
    22   12   13 1   
    23   12   30 1   
    24   12   31 1   
    25   13   32 1   
    26   13   33 1   
    27   13   38 1   
    28   14   15 ar  
    29   15   34 1   
    30   16   17 ar  
    31   16   22 ar  
    32   17   18 ar  
    33   17   35 1   
    34   18   19 ar  
    35   18   36 1   
    36   19   20 1   
    37   19   21 ar  
    38   21   22 ar  
    39   21   37 1   
    40   22   23 1   
@<TRIPOS>SUBSTRUCTURE
     1 CJP         1 TEMP              0 ****  ****    0 ROOT
