@<TRIPOS>MOLECULE
CJZ
   28    27     1     0     0
SMALL
bcc


@<TRIPOS>ATOM
      1 OAA         0.3550   -2.3220    0.0640 o         1 CJZ     -0.268000
      2 OAB         0.0440   -0.1800   -0.1770 oh        1 CJZ     -0.300000
      3 OAC         6.2400    5.3360   -1.4570 oh        1 CJZ     -0.227000
      4 CLAD        7.1150    2.9590    0.0340 cl        1 CJZ      0.015000
      5 CLAE        3.2020    6.1030   -1.3900 cl        1 CJZ     -0.013000
      6 CAF         5.0370    0.0120    2.4690 c3        1 CJZ     -0.260000
      7 CAG         0.5180   -2.3010    3.3670 c1        1 CJZ      0.246000
      8 CAH         3.6040    0.0630    2.4690 c1        1 CJZ     -0.031000
      9 CAI         1.2720   -1.3210    2.9140 c2        1 CJZ     -0.453000
     10 CAJ         4.6440    2.2150   -0.3990 c1        1 CJZ     -0.136000
     11 CAK         3.3340    3.8170   -2.7420 c2        1 CJZ     -0.157000
     12 CAM         0.6510   -1.2110    0.4950 c2        1 CJZ      0.326000
     13 CAN         3.8930    1.3040   -0.1670 c1        1 CJZ     -0.057000
     14 CAO         5.5650    3.2410   -0.6210 c2        1 CJZ     -0.014000
     15 CAP         3.9400    4.6420   -1.8830 c2        1 CJZ     -0.114000
     16 CAQ         5.2600    4.3840   -1.2970 c2        1 CJZ      0.090000
     17 CAR         2.7520   -0.1690    1.3370 c2        1 CJZ      0.018000
     18 CAS         1.5840   -0.8660    1.5890 c2        1 CJZ     -0.094000
     19 HOAC        5.8440    6.1090   -1.8870 ho        1 CJZ      0.233000
     20 HAF         5.3480   -0.7800    3.2070 hc        1 CJZ      0.127333
     21 HAG         5.4150    0.9930    2.8730 hc        1 CJZ      0.127333
     22 HAH         5.5360   -0.1930    1.4880 hc        1 CJZ      0.127333
     23 HAI         1.8020   -0.7340    3.7210 ha        1 CJZ      0.239000
     24 HAJ         0.1500    0.6440    0.3200 ho        1 CJZ      0.233000
     25 HAK         3.8090    2.8800   -3.0670 ha        1 CJZ      0.142500
     26 HNAL        2.3430    4.0260   -3.1690 ha        1 CJZ      0.142500
     27 HAL2        2.3750    0.1320   -0.6790 hn        1 CJZ      0.240000
     28 NAL         3.0760    0.2560    0.0290 n3        1 CJZ     -0.180000
@<TRIPOS>BOND
     1    1   12 1   
     2    2   12 1   
     3    2   24 1   
     4    3   16 1   
     5    3   19 1   
     6    4   14 1   
     7    5   15 1   
     8    6    8 1   
     9    6   20 1   
    10    6   21 1   
    11    6   22 1   
    12    7    9 1   
    13    8   17 1   
    14    9   18 1   
    15    9   23 1   
    16   10   13 1   
    17   10   14 1   
    18   11   15 1   
    19   11   25 1   
    20   11   26 1   
    21   12   18 1   
    22   13   28 1   
    23   14   16 1   
    24   15   16 1   
    25   17   18 1   
    26   17   28 1   
    27   27   28 1   
@<TRIPOS>SUBSTRUCTURE
     1 CJZ         1 TEMP              0 ****  ****    0 ROOT
