@<TRIPOS>MOLECULE
CJZ
   27    27     1     0     0
SMALL
bcc


@<TRIPOS>ATOM
      1 OAA         0.8950   -2.9610    1.3650 os        1 CJZ     -0.219000
      2 OAB         1.0870   -2.1710   -0.7320 o         1 CJZ     -0.229000
      3 OAC         6.6240    3.9380   -1.9730 oh        1 CJZ     -0.261000
      4 ClAD        5.5510    1.8840   -3.7620 cl        1 CJZ     -0.056000
      5 ClAE        4.7520    6.0730   -0.8370 cl        1 CJZ     -0.133000
      6 CAF         3.0830    1.5180    2.8600 c3        1 CJZ     -0.167000
      7 CAG         1.2370   -2.6200    2.6140 c1        1 CJZ      0.058000
      8 CAH         3.1230    1.3290    1.4250 c1        1 CJZ     -0.315000
      9 CAI         1.9780   -1.3490    2.5620 c2        1 CJZ     -0.395000
     10 CAJ         3.3590    2.1820   -2.2640 c2        1 CJZ     -0.223000
     11 CAK         3.9460    3.8470    0.3850 c2        1 CJZ     -0.200000
     12 CAM         1.3730   -1.9680    0.4310 c2        1 CJZ      0.270000
     13 CAN         3.0820    1.2180   -1.4070 c1        1 CJZ      0.035000
     14 CAO         4.7170    2.6490   -2.4730 c2        1 CJZ     -0.048000
     15 CAP         4.6230    4.3430   -0.6470 c2        1 CJZ     -0.138000
     16 CAQ         5.3030    3.6070   -1.7130 c2        1 CJZ      0.079000
     17 CAR         2.6950    0.2470    0.7080 c2        1 CJZ     -0.136000
     18 CAS         2.0890   -0.9230    1.2580 c2        1 CJZ      0.053000
     19 HOAC        6.8480    4.7010   -1.4220 ho        1 CJZ      0.216000
     20 HAF         2.0810    1.2700    3.3050 hc        1 CJZ      0.062000
     21 HAG         3.3150    2.5840    3.1140 hc        1 CJZ      0.062000
     22 HAH         3.8520    0.8710    3.3610 hc        1 CJZ      0.062000
     23 HAI         2.3790   -0.8720    3.4510 ha        1 CJZ      0.162000
     24 HAJ         2.5650    2.6610   -2.8550 ha        1 CJZ      0.149000
     25 HAK         3.7590    2.7200    0.6210 ha        1 CJZ      0.192500
     26 HNAL        3.4690    4.5120    1.1210 ha        1 CJZ      0.192500
     27 NAL         2.8840    0.2200   -0.7020 n2        1 CJZ     -0.073000
@<TRIPOS>BOND
     1    1    7 1   
     2    1   12 1   
     3    2   12 1   
     4    3   16 1   
     5    3   19 1   
     6    4   14 1   
     7    5   15 1   
     8    6    8 1   
     9    6   20 1   
    10    6   21 1   
    11    6   22 1   
    12    7    9 1   
    13    8   17 1   
    14    9   18 1   
    15    9   23 1   
    16   10   13 1   
    17   10   14 1   
    18   10   24 1   
    19   11   15 1   
    20   11   25 1   
    21   11   26 1   
    22   12   18 1   
    23   13   27 1   
    24   14   16 1   
    25   15   16 1   
    26   17   18 1   
    27   17   27 1   
@<TRIPOS>SUBSTRUCTURE
     1 CJZ         1 TEMP              0 ****  ****    0 ROOT
