@<TRIPOS>MOLECULE
CJZ
   27    26     1     0     0
SMALL
bcc


@<TRIPOS>ATOM
      1 OAA         0.0820    0.0900    0.9970 o         1 CJZ     -0.559500
      2 OAB         1.7230    0.8920   -0.2780 o         1 CJZ     -0.559500
      3 OAC         5.2050    5.1910   -2.0290 oh        1 CJZ     -0.258000
      4 CLAD        6.5530    2.8650   -0.8960 cl        1 CJZ     -0.039000
      5 CLAE        2.8320    5.1220   -3.9110 cl        1 CJZ     -0.093000
      6 CAF         4.7020   -0.2980    3.8280 c2        1 CJZ     -0.192000
      7 CAG         2.4300   -0.9080    4.1540 c1        1 CJZ      0.058000
      8 CAH         4.4700   -0.9220    2.6670 c2        1 CJZ     -0.095000
      9 CAI         1.7640   -0.6160    3.0550 c2        1 CJZ     -0.397000
     10 CAJ         4.2140    1.6690   -1.4460 c2        1 CJZ     -0.232000
     11 CAK         1.9840    3.5350   -1.9590 c2        1 CJZ     -0.138000
     12 CAM         1.3030    0.2940    0.7560 c2        1 CJZ      0.361000
     13 CAN         4.2210    0.8280   -0.4260 c1        1 CJZ      0.147000
     14 CAO         4.9530    2.9050   -1.5040 c2        1 CJZ     -0.016000
     15 CAP         3.0440    4.1430   -2.4990 c2        1 CJZ     -0.121000
     16 CAQ         4.4170    4.0510   -2.0070 c2        1 CJZ      0.024000
     17 CAR         3.6600   -0.3330    1.5770 c2        1 CJZ     -0.045000
     18 CAS         2.3150   -0.2050    1.7750 c2        1 CJZ     -0.050000
     19 HOAC        4.7590    5.8440   -2.5890 ho        1 CJZ      0.215000
     20 HAF         4.3700    0.7300    4.0310 ha        1 CJZ      0.118000
     21 HAG         5.2570   -0.7790    4.6430 ha        1 CJZ      0.118000
     22 HAH         4.8520   -1.9380    2.4690 ha        1 CJZ      0.129000
     23 HAI         0.6470   -0.6550    3.0490 ha        1 CJZ      0.223000
     24 HAJ         3.5190    1.4540   -2.2790 ha        1 CJZ      0.179000
     25 HAK         2.0590    2.8810   -1.0660 ha        1 CJZ      0.171000
     26 HNAL        0.9740    3.6230   -2.3830 ha        1 CJZ      0.171000
     27 NAL         4.3800   -0.0810    0.3970 n2        1 CJZ     -0.119000
@<TRIPOS>BOND
     1    1   12 1   
     2    2   12 1   
     3    3   16 1   
     4    3   19 1   
     5    4   14 1   
     6    5   15 1   
     7    6    8 1   
     8    6   20 1   
     9    6   21 1   
    10    7    9 1   
    11    8   17 1   
    12    8   22 1   
    13    9   18 1   
    14    9   23 1   
    15   10   13 1   
    16   10   14 1   
    17   10   24 1   
    18   11   15 1   
    19   11   25 1   
    20   11   26 1   
    21   12   18 1   
    22   13   27 1   
    23   14   16 1   
    24   15   16 1   
    25   17   18 1   
    26   17   27 1   
@<TRIPOS>SUBSTRUCTURE
     1 CJZ         1 TEMP              0 ****  ****    0 ROOT
