@<TRIPOS>MOLECULE
CJZ
   27    24     1     0     0
SMALL
bcc


@<TRIPOS>ATOM
      1 OAA        -1.7430   -2.7670   -1.6090 o         1 CJZ     -0.568000
      2 OAB         0.2350   -3.6740   -1.7460 o         1 CJZ     -0.568000
      3 OAC        -1.5540    4.6310   -0.9810 oh        1 CJZ     -0.245000
      4 CLAD        0.7520    4.6240    0.8640 cl        1 CJZ     -0.050000
      5 CLAE       -2.4980    2.5890   -2.9680 cl        1 CJZ     -0.009000
      6 CAF         0.9510   -1.9890    2.6540 c1        1 CJZ     -0.156500
      7 CAG         0.0740   -3.0280    2.3850 c1        1 CJZ     -0.156500
      8 CAH         1.2640   -1.0720    1.6630 c1        1 CJZ     -0.159000
      9 CAI        -0.4900   -3.1500    1.1250 c1        1 CJZ     -0.093000
     10 CAJ         0.8300    2.0380    0.0340 c1        1 CJZ     -0.101000
     11 CAK        -0.6190    1.1330   -1.6530 c1        1 CJZ     -0.112000
     12 NAL         1.0640   -0.2880   -0.6280 n3        1 CJZ     -0.224000
     13 CAM        -0.5830   -2.9270   -1.1470 c2        1 CJZ      0.360000
     14 CAN         0.4060    0.9660   -0.7350 c1        1 CJZ      0.033000
     15 CAO         0.2290    3.2780   -0.1140 c2        1 CJZ     -0.139000
     16 CAP        -1.2210    2.3740   -1.8010 c1        1 CJZ     -0.076000
     17 CAQ        -0.7970    3.4460   -1.0320 c2        1 CJZ      0.061000
     18 CAR         0.7000   -1.1940    0.4020 c2        1 CJZ      0.034000
     19 CAS        -0.1770   -2.2330    0.1330 c2        1 CJZ     -0.133000
     20 HOAC       -1.1810    5.2440   -1.5070 ho        1 CJZ      0.218000
     21 HAF         1.3480   -1.9030    3.5410 ha        1 CJZ      0.107500
     22 HAG        -0.1470   -3.6730    3.0830 ha        1 CJZ      0.107500
     23 HAH         1.8820   -0.3400    1.8520 ha        1 CJZ      0.115000
     24 HAI        -1.1030   -3.8850    0.9340 ha        1 CJZ      0.154000
     25 HAJ         1.5720    1.9270    0.6590 ha        1 CJZ      0.153000
     26 HAK        -0.9180    0.3780   -2.1940 ha        1 CJZ      0.217000
     27 HNAL        1.7270   -0.5070   -1.2140 hn        1 CJZ      0.230000
@<TRIPOS>BOND
     1    1   13 1   
     2    2   13 1   
     3    3   17 1   
     4    3   20 1   
     5    4   15 1   
     6    5   16 1   
     7    6    7 1   
     8    6   21 1   
     9    7   22 1   
    10    8   18 1   
    11    8   23 1   
    12    9   19 1   
    13    9   24 1   
    14   10   15 1   
    15   10   25 1   
    16   11   14 1   
    17   11   26 1   
    18   12   14 1   
    19   12   18 1   
    20   12   27 1   
    21   13   19 1   
    22   15   17 1   
    23   16   17 1   
    24   18   19 1   
@<TRIPOS>SUBSTRUCTURE
     1 CJZ         1 TEMP              0 ****  ****    0 ROOT
