@<TRIPOS>MOLECULE
CJZ
   27    28     1     0     0
SMALL
bcc


@<TRIPOS>ATOM
      1 OAA        -3.8310    0.7890    2.8910 o         1 CJZ     -0.825800
      2 OAB        -2.1990    2.1520    2.2340 o         1 CJZ     -0.825800
      3 OAC         4.1990   -0.9060   -0.7230 oh        1 CJZ     -0.494100
      4 CLAD        4.1150    1.7420    0.5620 cl        1 CJZ     -0.110400
      5 CLAE        1.9020   -2.6980   -1.5970 cl        1 CJZ     -0.110400
      6 CAF        -3.5770   -0.4450   -1.9470 ca        1 CJZ     -0.140000
      7 CAG        -4.6010   -0.4760   -1.0030 ca        1 CJZ     -0.171000
      8 CAH        -2.3500    0.1250   -1.6310 ca        1 CJZ     -0.175000
      9 CAI        -4.3890    0.0730    0.2590 ca        1 CJZ     -0.091000
     10 CAJ         1.4980    1.3870    0.2350 ca        1 CJZ     -0.170000
     11 CAK         0.4930   -0.6030   -0.7270 ca        1 CJZ     -0.170000
     12 CAM        -3.0500    1.2390    2.0100 c         1 CJZ      0.911200
     13 CAN         0.3290    0.6890   -0.1750 ca        1 CJZ      0.189600
     14 CAO         2.7620    0.8390    0.0550 ca        1 CJZ      0.014400
     15 CAP         1.7640   -1.1360   -0.9110 ca        1 CJZ      0.014400
     16 CAQ         2.9180   -0.4300   -0.5330 ca        1 CJZ      0.059100
     17 CAR        -2.1210    0.6790   -0.3500 ca        1 CJZ      0.132600
     18 CAS        -3.1670    0.6560    0.6070 ca        1 CJZ     -0.149600
     19 HOAC        4.1290   -1.8470   -0.9450 ho        1 CJZ      0.417000
     20 HAF        -3.7360   -0.8700   -2.9480 ha        1 CJZ      0.108000
     21 HAG        -5.5690   -0.9310   -1.2520 ha        1 CJZ      0.111000
     22 HAH        -1.5570    0.1570   -2.3940 ha        1 CJZ      0.122000
     23 HAI        -5.1800    0.0480    1.0280 ha        1 CJZ      0.156000
     24 HAJ         1.4010    2.3770    0.7120 ha        1 CJZ      0.162500
     25 HAK        -0.3910   -1.2020   -1.0010 ha        1 CJZ      0.162500
     26 HNAL       -0.9730    1.9840    0.7060 hn        1 CJZ      0.484800
     27 NAL        -0.8990    1.3350   -0.0730 nh        1 CJZ     -0.613000
@<TRIPOS>BOND
     1    1   12 1   
     2    2   12 1   
     3    3   16 1   
     4    3   19 1   
     5    4   14 1   
     6    5   15 1   
     7    6    7 ar  
     8    6    8 ar  
     9    6   20 1   
    10    7    9 ar  
    11    7   21 1   
    12    8   17 ar  
    13    8   22 1   
    14    9   18 ar  
    15    9   23 1   
    16   10   13 ar  
    17   10   14 ar  
    18   10   24 1   
    19   11   13 ar  
    20   11   15 ar  
    21   11   25 1   
    22   12   18 1   
    23   13   27 1   
    24   14   16 ar  
    25   15   16 ar  
    26   17   18 ar  
    27   17   27 1   
    28   26   27 1   
@<TRIPOS>SUBSTRUCTURE
     1 CJZ         1 TEMP              0 ****  ****    0 ROOT
