@<TRIPOS>MOLECULE
CK1
   19    15     1     0     0
SMALL
bcc


@<TRIPOS>ATOM
      1 CL7A       -4.4490    1.6220   -2.3890 cl        1 CK1      0.057000
      2 C3A        -3.0380    0.7160   -1.9120 c2        1 CK1     -0.393000
      3 C4A        -2.0540    1.1260   -0.9280 c1        1 CK1     -0.102000
      4 S2A        -2.5670   -0.6290   -2.5260 ss        1 CK1      0.629000
      5 C1A        -1.2250   -1.0100   -1.8470 c1        1 CK1     -0.368000
      6 CL6A       -0.2330   -2.3900   -2.2380 cl        1 CK1      0.060000
      7 C5A        -0.9000    0.0290   -0.8870 c2        1 CK1     -0.060000
      8 C4          0.2210    0.0610   -0.0740 c1        1 CK1      0.114000
      9 N3          0.2010   -0.5500    1.1200 n1        1 CK1     -0.219000
     10 C5          1.3590    0.6790   -0.5040 c1        1 CK1     -0.273000
     11 C6          2.4750    0.6750    0.2810 c1        1 CK1     -0.002000
     12 N1          2.4530    0.0640    1.4740 n1        1 CK1     -0.219000
     13 C2          1.3160   -0.5530    1.9030 c1        1 CK1      0.146000
     14 N7          1.2940   -1.2000    3.1660 n3        1 CK1     -0.323000
     15 H4A        -2.0920    1.9360   -0.3850 DU        1 CK1      0.182000
     16 H5          1.3750    1.1230   -1.3730 ha        1 CK1      0.160000
     17 H6          3.2900    1.1170   -0.0260 ha        1 CK1      0.164000
     18 HN71        2.0770   -1.3770    3.6030 hn        1 CK1      0.222000
     19 HN72        0.4960   -1.4390    3.5430 hn        1 CK1      0.222000
@<TRIPOS>BOND
     1    1    2 1   
     2    2    3 1   
     3    2    4 1   
     4    3    7 1   
     5    4    5 1   
     6    5    7 1   
     7    7    8 1   
     8    8   10 1   
     9    9   13 1   
    10   10   16 1   
    11   11   12 1   
    12   11   17 1   
    13   13   14 1   
    14   14   18 1   
    15   14   19 1   
@<TRIPOS>SUBSTRUCTURE
     1 CK1         1 TEMP              0 ****  ****    0 ROOT
