@<TRIPOS>MOLECULE
CK1
   19    20     1     0     0
SMALL
bcc


@<TRIPOS>ATOM
      1 CL7A        0.1970   -0.0390   -0.2750 cl        1 CK1     -0.022400
      2 C3A         1.8600    0.0050   -0.1270 cc        1 CK1     -0.045700
      3 C4A         2.5550   -0.0050    1.0670 cd        1 CK1     -0.103000
      4 S2A         2.8940    0.0720   -1.4500 ss        1 CK1      0.090200
      5 C1A         4.2780    0.0820   -0.5000 cc        1 CK1     -0.018700
      6 CL6A        5.8030    0.1750   -1.1780 cl        1 CK1     -0.016400
      7 C5A         3.9710    0.0310    0.8540 cd        1 CK1     -0.167500
      8 C4          4.9250    0.0140    1.9640 ca        1 CK1      0.550800
      9 N3          4.6750    0.8120    3.0310 nb        1 CK1     -0.746000
     10 C5          6.0460   -0.8420    1.9090 ca        1 CK1     -0.404600
     11 C6          6.9060   -0.8350    3.0220 ca        1 CK1      0.464200
     12 N1          6.7180   -0.0650    4.1010 nb        1 CK1     -0.746000
     13 C2          5.5990    0.7670    4.0670 ca        1 CK1      0.867900
     14 N7          5.4260    1.6650    5.1230 nh        1 CK1     -0.929500
     15 H4A         2.1050   -0.0290    2.0630 ha        1 CK1      0.180000
     16 H5          6.2340   -1.4880    1.0460 ha        1 CK1      0.160000
     17 H6          7.7970   -1.4900    3.0550 h4        1 CK1      0.027100
     18 HN71        5.9220    1.4710    5.9620 hn        1 CK1      0.429300
     19 HN72        4.5290    2.0800    5.2200 hn        1 CK1      0.429300
@<TRIPOS>BOND
     1    1    2 1   
     2    2    3 2   
     3    2    4 1   
     4    3    7 1   
     5    3   15 1   
     6    4    5 1   
     7    5    6 1   
     8    5    7 2   
     9    7    8 1   
    10    8    9 ar  
    11    8   10 ar  
    12    9   13 ar  
    13   10   11 ar  
    14   10   16 1   
    15   11   12 ar  
    16   11   17 1   
    17   12   13 ar  
    18   13   14 1   
    19   14   18 1   
    20   14   19 1   
@<TRIPOS>SUBSTRUCTURE
     1 CK1         1 TEMP              0 ****  ****    0 ROOT
