@<TRIPOS>MOLECULE
CK1
   20    21     1     0     0
SMALL
bcc


@<TRIPOS>ATOM
      1 CL7A        0.1640   -0.0180   -0.2060 cl        1 CK1      0.019600
      2 C3A         1.8260   -0.0110   -0.0860 cc        1 CK1     -0.059700
      3 C4A         2.5350   -0.0010    1.1040 cd        1 CK1     -0.101000
      4 S2A         2.8450   -0.0130   -1.4130 ss        1 CK1      0.230200
      5 C1A         4.2330   -0.0110   -0.4970 cc        1 CK1     -0.035700
      6 CL6A        5.7520    0.0300   -1.1890 cl        1 CK1      0.004600
      7 C5A         3.9450   -0.0110    0.8710 cd        1 CK1     -0.234500
      8 C4          4.9160   -0.0170    1.9530 ca        1 CK1      0.581800
      9 N3          4.6670    0.7550    3.0520 nb        1 CK1     -0.672000
     10 C5          6.0840   -0.8210    1.8800 ca        1 CK1     -0.292600
     11 C6          6.9830   -0.7860    2.9590 ca        1 CK1      0.460200
     12 N1          6.7750   -0.0290    4.0570 nb        1 CK1     -0.669000
     13 C2          5.6140    0.7000    4.0360 ca        1 CK1      0.689900
     14 N7          5.3500    1.5480    5.2380 n4        1 CK1     -0.815300
     15 H4A         2.0860    0.0080    2.1000 ha        1 CK1      0.177000
     16 H5          6.2740   -1.4600    1.0030 ha        1 CK1      0.202000
     17 H6          7.9160   -1.3870    2.9660 h4        1 CK1      0.075100
     18 HN71        4.4980    1.2120    5.7030 hn        1 CK1      0.480133
     19 HN72        5.2150    2.5220    4.9410 hn        1 CK1      0.480133
     20 H73         6.1450    1.4910    5.8890 hn        1 CK1      0.480133
@<TRIPOS>BOND
     1    1    2 1   
     2    2    3 2   
     3    2    4 1   
     4    3    7 1   
     5    3   15 1   
     6    4    5 1   
     7    5    6 1   
     8    5    7 2   
     9    7    8 1   
    10    8    9 ar  
    11    8   10 ar  
    12    9   13 ar  
    13   10   11 ar  
    14   10   16 1   
    15   11   12 ar  
    16   11   17 1   
    17   12   13 ar  
    18   13   14 1   
    19   14   18 1   
    20   14   19 1   
    21   14   20 1   
@<TRIPOS>SUBSTRUCTURE
     1 CK1         1 TEMP              0 ****  ****    0 ROOT
