@<TRIPOS>MOLECULE
CK1
   19    20     1     0     0
SMALL
bcc


@<TRIPOS>ATOM
      1 CL7A       -3.7540    1.5980    0.2800 cl        1 CK1     -0.021400
      2 C3A        -2.4120    0.6160    0.1150 cc        1 CK1     -0.044700
      3 C4A        -1.1010    1.0270    0.2560 cd        1 CK1     -0.102000
      4 S2A        -2.5170   -1.0200   -0.2520 ss        1 CK1      0.089200
      5 C1A        -0.8530   -1.2390   -0.2310 cc        1 CK1     -0.019700
      6 CL6A       -0.1620   -2.7240   -0.5640 cl        1 CK1     -0.018400
      7 C5A        -0.1850   -0.0570    0.0630 cd        1 CK1     -0.167500
      8 C4          1.2640    0.1220    0.1770 ca        1 CK1      0.549800
      9 N3          1.8190    1.2060   -0.4170 nb        1 CK1     -0.745000
     10 C5          2.0300   -0.8140    0.9060 ca        1 CK1     -0.403600
     11 C6          3.4160   -0.5840    0.9750 ca        1 CK1      0.463200
     12 N1          4.0230    0.4630    0.4050 nb        1 CK1     -0.745000
     13 C2          3.1920    1.3580   -0.2690 ca        1 CK1      0.864900
     14 N7          3.7700    2.5250   -0.7790 nh        1 CK1     -0.925500
     15 H4A        -0.7740    2.0460    0.4800 ha        1 CK1      0.182000
     16 H5          1.5680   -1.6790    1.3920 ha        1 CK1      0.160000
     17 H6          4.0800   -1.2840    1.5160 h4        1 CK1      0.027100
     18 HN71        4.7560    2.5110   -0.9050 hn        1 CK1      0.426800
     19 HN72        3.2460    3.0190   -1.4630 hn        1 CK1      0.426800
@<TRIPOS>BOND
     1    1    2 1   
     2    2    3 2   
     3    2    4 1   
     4    3    7 1   
     5    3   15 1   
     6    4    5 1   
     7    5    6 1   
     8    5    7 2   
     9    7    8 1   
    10    8    9 ar  
    11    8   10 ar  
    12    9   13 ar  
    13   10   11 ar  
    14   10   16 1   
    15   11   12 ar  
    16   11   17 1   
    17   12   13 ar  
    18   13   14 1   
    19   14   18 1   
    20   14   19 1   
@<TRIPOS>SUBSTRUCTURE
     1 CK1         1 TEMP              0 ****  ****    0 ROOT
