@<TRIPOS>MOLECULE
CK1
   19    20     1     0     0
SMALL
bcc


@<TRIPOS>ATOM
      1 Cl7A        0.1960   -0.0110   -0.2750 cl        1 CK1     -0.022400
      2 C3A         1.8590    0.0210   -0.1270 cc        1 CK1     -0.045700
      3 C4A         2.5540    0.0090    1.0670 cd        1 CK1     -0.103000
      4 S2A         2.8940    0.0770   -1.4500 ss        1 CK1      0.090200
      5 C1A         4.2780    0.0790   -0.4990 cc        1 CK1     -0.018700
      6 Cl6A        5.8030    0.1590   -1.1780 cl        1 CK1     -0.016400
      7 C5A         3.9700    0.0330    0.8540 cd        1 CK1     -0.167500
      8 C4          4.9250    0.0120    1.9640 ca        1 CK1      0.550800
      9 N3          4.6800    0.8140    3.0290 nb        1 CK1     -0.746000
     10 C5          6.0400   -0.8520    1.9120 ca        1 CK1     -0.404600
     11 C6          6.8990   -0.8490    3.0250 ca        1 CK1      0.464200
     12 N1          6.7170   -0.0750    4.1010 nb        1 CK1     -0.746000
     13 C2          5.6040    0.7650    4.0660 ca        1 CK1      0.867900
     14 N7          5.4380    1.6660    5.1200 nv        1 CK1     -0.929500
     15 H4A         2.1050   -0.0100    2.0640 ha        1 CK1      0.180000
     16 H5          6.2220   -1.5010    1.0490 ha        1 CK1      0.160000
     17 H6          7.7860   -1.5100    3.0580 h4        1 CK1      0.027100
     18 HN71        5.9310    1.4700    5.9590 hn        1 CK1      0.429300
     19 HN72        4.5440    2.0880    5.2160 hn        1 CK1      0.429300
@<TRIPOS>BOND
     1    1    2 1   
     2    2    3 2   
     3    2    4 1   
     4    3    7 1   
     5    3   15 1   
     6    4    5 1   
     7    5    6 1   
     8    5    7 2   
     9    7    8 1   
    10    8    9 ar  
    11    8   10 ar  
    12    9   13 ar  
    13   10   11 ar  
    14   10   16 1   
    15   11   12 ar  
    16   11   17 1   
    17   12   13 ar  
    18   13   14 1   
    19   14   18 1   
    20   14   19 1   
@<TRIPOS>SUBSTRUCTURE
     1 CK1         1 TEMP              0 ****  ****    0 ROOT
