@<TRIPOS>MOLECULE
CK2
   25    26     1     0     0
SMALL
bcc


@<TRIPOS>ATOM
      1 C7A         0.2060    0.0010    0.2060 c3        1 CK2     -0.155400
      2 C3A         1.6700   -0.0030    0.0040 cc        1 CK2      0.472700
      3 S4A         2.7400    0.0350    1.3340 ss        1 CK2     -0.058300
      4 N2A         2.2710   -0.0360   -1.1950 nd        1 CK2     -0.644000
      5 C1A         3.6480   -0.0300   -1.0460 cd        1 CK2      0.477600
      6 C6A         4.5240   -0.0620   -2.2400 c3        1 CK2     -0.141400
      7 C5A         4.0830    0.0080    0.2980 cc        1 CK2     -0.371900
      8 C4          5.4230    0.0240    0.8100 ca        1 CK2      0.617800
      9 N3          6.4940    0.0010   -0.0380 nb        1 CK2     -0.696000
     10 C5          5.6280    0.0630    2.2250 ca        1 CK2     -0.327600
     11 C6          6.9380    0.0780    2.7120 ca        1 CK2      0.467200
     12 N1          8.0210    0.0560    1.8970 nb        1 CK2     -0.681000
     13 C2          7.7240    0.0190    0.5640 ca        1 CK2      0.703900
     14 N7          8.8960   -0.0060   -0.3660 n4        1 CK2     -0.817300
     15 H7A1       -0.0380    0.0310    1.2970 hc        1 CK2      0.081033
     16 H7A2       -0.2520   -0.9180   -0.2420 hc        1 CK2      0.081033
     17 H7A3       -0.2540    0.8940   -0.2930 hc        1 CK2      0.081033
     18 H6A1        3.9300   -0.0890   -3.1890 hc        1 CK2      0.068367
     19 H6A2        5.1730   -0.9730   -2.2050 hc        1 CK2      0.068367
     20 H6A3        5.1710    0.8500   -2.2560 hc        1 CK2      0.068367
     21 H5          4.7690    0.0820    2.9150 ha        1 CK2      0.192000
     22 H6          7.1660    0.1090    3.7970 h4        1 CK2      0.073100
     23 HN71        8.8540    0.8150   -0.9800 hn        1 CK2      0.479467
     24 HN72        8.8550   -0.8610   -0.9340 hn        1 CK2      0.479467
     25 H73         9.7710    0.0090    0.1740 hn        1 CK2      0.479467
@<TRIPOS>BOND
     1    1    2 1   
     2    1   15 1   
     3    1   16 1   
     4    1   17 1   
     5    2    3 1   
     6    2    4 2   
     7    3    7 1   
     8    4    5 1   
     9    5    6 1   
    10    5    7 2   
    11    6   18 1   
    12    6   19 1   
    13    6   20 1   
    14    7    8 1   
    15    8    9 ar  
    16    8   10 ar  
    17    9   13 ar  
    18   10   11 ar  
    19   10   21 1   
    20   11   12 ar  
    21   11   22 1   
    22   12   13 ar  
    23   13   14 1   
    24   14   23 1   
    25   14   24 1   
    26   14   25 1   
@<TRIPOS>SUBSTRUCTURE
     1 CK2         1 TEMP              0 ****  ****    0 ROOT
