@<TRIPOS>MOLECULE
CK2
   24    25     1     0     0
SMALL
bcc


@<TRIPOS>ATOM
      1 C7A        -0.3700    0.2190    4.4740 c3        1 CK2     -0.135400
      2 C3A         0.0330    0.0930    3.0570 cc        1 CK2      0.415700
      3 S4A        -1.1190    0.2720    1.8020 ss        1 CK2     -0.100300
      4 N2A         1.2760   -0.1600    2.6400 nd        1 CK2     -0.646000
      5 C1A         1.3140   -0.2110    1.2480 cd        1 CK2      0.419600
      6 C6A         2.5880   -0.4810    0.5410 c3        1 CK2     -0.128400
      7 C5A         0.0740    0.0060    0.6320 cc        1 CK2     -0.287900
      8 C4         -0.2460    0.0180   -0.7840 ca        1 CK2      0.580800
      9 N3          0.7370    0.1990   -1.6970 nb        1 CK2     -0.752000
     10 C5         -1.6030   -0.1440   -1.1670 ca        1 CK2     -0.432600
     11 C6         -1.8900   -0.1000   -2.5390 ca        1 CK2      0.471200
     12 N1         -0.9590    0.0750   -3.4870 nb        1 CK2     -0.753000
     13 C2          0.3530    0.2000   -3.0340 ca        1 CK2      0.872900
     14 N7          1.3670    0.2730   -3.9930 nh        1 CK2     -0.927500
     15 H7A1        0.1950    1.0490    4.9700 hc        1 CK2      0.061367
     16 H7A2       -1.4640    0.4350    4.5480 hc        1 CK2      0.061367
     17 H7A3       -0.1520   -0.7300    5.0280 hc        1 CK2      0.061367
     18 H6A1        2.9100    0.4390   -0.0090 hc        1 CK2      0.061367
     19 H6A2        3.4010   -0.7770    1.2490 hc        1 CK2      0.061367
     20 H6A3        2.4410   -1.3060   -0.2000 hc        1 CK2      0.061367
     21 H5         -2.3920   -0.2980   -0.4230 ha        1 CK2      0.154000
     22 H6         -2.9270   -0.2070   -2.9070 h4        1 CK2      0.026100
     23 HN71        1.0920    0.5230   -4.9140 hn        1 CK2      0.428300
     24 HN72        2.2500    0.6090   -3.6870 hn        1 CK2      0.428300
@<TRIPOS>BOND
     1    1    2 1   
     2    1   15 1   
     3    1   16 1   
     4    1   17 1   
     5    2    3 1   
     6    2    4 2   
     7    3    7 1   
     8    4    5 1   
     9    5    6 1   
    10    5    7 2   
    11    6   18 1   
    12    6   19 1   
    13    6   20 1   
    14    7    8 1   
    15    8    9 ar  
    16    8   10 ar  
    17    9   13 ar  
    18   10   11 ar  
    19   10   21 1   
    20   11   12 ar  
    21   11   22 1   
    22   12   13 ar  
    23   13   14 1   
    24   14   23 1   
    25   14   24 1   
@<TRIPOS>SUBSTRUCTURE
     1 CK2         1 TEMP              0 ****  ****    0 ROOT
