@<TRIPOS>MOLECULE
CK2
   24    25     1     0     0
SMALL
bcc


@<TRIPOS>ATOM
      1 C7A         0.2190   -0.2600    0.1940 c3        1 CK2     -0.135400
      2 C3A         1.6770   -0.1320   -0.0130 cc        1 CK2      0.415700
      3 S4A         2.7600   -0.2310    1.3110 ss        1 CK2     -0.100300
      4 N2A         2.2630    0.0640   -1.1970 nd        1 CK2     -0.646000
      5 C1A         3.6460    0.1350   -1.0430 cd        1 CK2      0.419600
      6 C6A         4.5220    0.3510   -2.2180 c3        1 CK2     -0.128400
      7 C5A         4.0830   -0.0070    0.2810 cc        1 CK2     -0.287900
      8 C4          5.4400    0.0200    0.7960 ca        1 CK2      0.580800
      9 N3          6.4840   -0.1950   -0.0390 nb        1 CK2     -0.752000
     10 C5          5.6280    0.2570    2.1820 ca        1 CK2     -0.432600
     11 C6          6.9460    0.2500    2.6600 ca        1 CK2      0.471200
     12 N1          8.0170    0.0440    1.8820 nb        1 CK2     -0.753000
     13 C2          7.7530   -0.1550    0.5280 ca        1 CK2      0.872900
     14 N7          8.8460   -0.2630   -0.3370 nh        1 CK2     -0.927500
     15 H7A1       -0.3070    0.6670   -0.1490 hc        1 CK2      0.061367
     16 H7A2       -0.1850   -1.1260   -0.3890 hc        1 CK2      0.061367
     17 H7A3       -0.0060   -0.4200    1.2770 hc        1 CK2      0.061367
     18 H6A1        3.9320    0.5930   -3.1370 hc        1 CK2      0.061367
     19 H6A2        5.1200   -0.5750   -2.4110 hc        1 CK2      0.061367
     20 H6A3        5.2280    1.1940   -2.0130 hc        1 CK2      0.061367
     21 H5          4.7790    0.4380    2.8510 ha        1 CK2      0.154000
     22 H6          7.1640    0.4150    3.7320 h4        1 CK2      0.026100
     23 HN71        9.7220   -0.4830    0.0770 hn        1 CK2      0.428300
     24 HN72        8.6710   -0.6480   -1.2350 hn        1 CK2      0.428300
@<TRIPOS>BOND
     1    1    2 1   
     2    1   15 1   
     3    1   16 1   
     4    1   17 1   
     5    2    3 1   
     6    2    4 2   
     7    3    7 1   
     8    4    5 1   
     9    5    6 1   
    10    5    7 2   
    11    6   18 1   
    12    6   19 1   
    13    6   20 1   
    14    7    8 1   
    15    8    9 ar  
    16    8   10 ar  
    17    9   13 ar  
    18   10   11 ar  
    19   10   21 1   
    20   11   12 ar  
    21   11   22 1   
    22   12   13 ar  
    23   13   14 1   
    24   14   23 1   
    25   14   24 1   
@<TRIPOS>SUBSTRUCTURE
     1 CK2         1 TEMP              0 ****  ****    0 ROOT
