@<TRIPOS>MOLECULE
CK2
   24    21     1     0     0
SMALL
bcc


@<TRIPOS>ATOM
      1 C7A        -4.3730    0.1680   -0.8700 c3        1 CK2     -0.159000
      2 C3A        -2.8610    0.1170   -0.8850 c2        1 CK2     -0.256000
      3 S4A        -1.9360    0.2570    0.3430 ss        1 CK2      0.484000
      4 N2A        -2.0360    0.0050   -2.0450 n2        1 CK2     -0.120000
      5 C1A        -0.5340    0.0710   -1.5950 c1        1 CK2     -0.003000
      6 C6A         0.6690   -0.0100   -2.5090 c2        1 CK2     -0.152000
      7 C5A        -0.4970    0.2220   -0.1600 c2        1 CK2     -0.385000
      8 C4          0.6420    0.2300    0.6290 c1        1 CK2      0.145000
      9 N3          1.2580   -0.9230    0.9290 n1        1 CK2     -0.226000
     10 C5          1.0980    1.4040    1.1560 c1        1 CK2     -0.302000
     11 C6          2.1800    1.4020    1.9870 c1        1 CK2      0.006000
     12 N1          2.7940    0.2480    2.2860 n1        1 CK2     -0.227000
     13 C2          2.3380   -0.9230    1.7590 c1        1 CK2      0.154000
     14 N7          2.9940   -2.1420    2.0680 n3        1 CK2     -0.325000
     15 H7A1       -4.6730    0.7320   -0.1270 hc        1 CK2      0.100667
     16 H7A2       -4.6950    0.5430   -1.7160 hc        1 CK2      0.100667
     17 H7A3       -4.7290   -0.7380   -0.7570 hc        1 CK2      0.100667
     18 H6A1        0.3710    0.0020   -3.4420 ha        1 CK2      0.100667
     19 H6A2        1.1580   -0.8400   -2.3320 ha        1 CK2      0.100667
     20 H6A3        1.2570    0.7570   -2.3430 ha        1 CK2      0.100667
     21 H5          0.6500    2.2440    0.9380 ha        1 CK2      0.154000
     22 H6          2.5070    2.2410    2.3640 ha        1 CK2      0.163000
     23 HN71        3.7180   -2.1430    2.6270 hn        1 CK2      0.223500
     24 HN72        2.7030   -2.9250    1.6970 hn        1 CK2      0.223500
@<TRIPOS>BOND
     1    1    2 1   
     2    1   15 1   
     3    1   16 1   
     4    1   17 1   
     5    2    3 1   
     6    2    4 1   
     7    3    7 1   
     8    4    5 1   
     9    5    7 1   
    10    6   18 1   
    11    6   19 1   
    12    6   20 1   
    13    7    8 1   
    14    8   10 1   
    15    9   13 1   
    16   10   21 1   
    17   11   12 1   
    18   11   22 1   
    19   13   14 1   
    20   14   23 1   
    21   14   24 1   
@<TRIPOS>SUBSTRUCTURE
     1 CK2         1 TEMP              0 ****  ****    0 ROOT
