@<TRIPOS>MOLECULE
CK2
   24    25     1     0     0
SMALL
bcc


@<TRIPOS>ATOM
      1 C7A         0.2190   -0.2630    0.2090 c3        1 CK2     -0.135400
      2 C3A         1.6770   -0.1350   -0.0030 cc        1 CK2      0.415700
      3 S4A         2.7640   -0.2300    1.3180 ss        1 CK2     -0.100300
      4 N2A         2.2590    0.0590   -1.1900 nd        1 CK2     -0.646000
      5 C1A         3.6420    0.1320   -1.0400 cd        1 CK2      0.419600
      6 C6A         4.5140    0.3460   -2.2180 c3        1 CK2     -0.128400
      7 C5A         4.0840   -0.0080    0.2830 cc        1 CK2     -0.287900
      8 C4          5.4420    0.0210    0.7940 ca        1 CK2      0.580800
      9 N3          6.4840   -0.1980   -0.0430 nb        1 CK2     -0.752000
     10 C5          5.6340    0.2650    2.1780 ca        1 CK2     -0.432600
     11 C6          6.9540    0.2600    2.6520 ca        1 CK2      0.471200
     12 N1          8.0230    0.0500    1.8710 nb        1 CK2     -0.753000
     13 C2          7.7550   -0.1550    0.5190 ca        1 CK2      0.872900
     14 N7          8.8440   -0.2670   -0.3490 nv        1 CK2     -0.927500
     15 H7A1       -0.3090    0.6620   -0.1340 hc        1 CK2      0.061367
     16 H7A2       -0.1850   -1.1310   -0.3720 hc        1 CK2      0.061367
     17 H7A3       -0.0020   -0.4220    1.2930 hc        1 CK2      0.061367
     18 H6A1        5.2210    1.1890   -2.0170 hc        1 CK2      0.061367
     19 H6A2        3.9220    0.5860   -3.1350 hc        1 CK2      0.061367
     20 H6A3        5.1120   -0.5810   -2.4120 hc        1 CK2      0.061367
     21 H5          4.7870    0.4490    2.8480 ha        1 CK2      0.154000
     22 H6          7.1750    0.4300    3.7220 h4        1 CK2      0.026100
     23 HN71        9.7210   -0.4860    0.0630 hn        1 CK2      0.428300
     24 HN72        8.6660   -0.6570   -1.2450 hn        1 CK2      0.428300
@<TRIPOS>BOND
     1    1    2 1   
     2    1   15 1   
     3    1   16 1   
     4    1   17 1   
     5    2    3 1   
     6    2    4 2   
     7    3    7 1   
     8    4    5 1   
     9    5    6 1   
    10    5    7 2   
    11    6   18 1   
    12    6   19 1   
    13    6   20 1   
    14    7    8 1   
    15    8    9 ar  
    16    8   10 ar  
    17    9   13 ar  
    18   10   11 ar  
    19   10   21 1   
    20   11   12 ar  
    21   11   22 1   
    22   12   13 ar  
    23   13   14 1   
    24   14   23 1   
    25   14   24 1   
@<TRIPOS>SUBSTRUCTURE
     1 CK2         1 TEMP              0 ****  ****    0 ROOT
