@<TRIPOS>MOLECULE
CK3
   28    24     1     0     0
SMALL
bcc


@<TRIPOS>ATOM
      1 C7A        -4.1290   -2.2050   -2.4610 c3        1 CK3     -0.157000
      2 C3A        -2.8380   -1.3980   -2.1630 c2        1 CK3     -0.285000
      3 S4A        -1.8410   -1.6690   -1.0160 ss        1 CK3      0.569000
      4 N2A        -2.3290   -0.3300   -2.9410 n2        1 CK3     -0.114000
      5 C1A        -0.9600    0.1390   -2.3160 c1        1 CK3     -0.036000
      6 C6A        -0.1120    1.3500   -2.8030 c2        1 CK3     -0.158000
      7 C5A        -0.6900   -0.6770   -1.1650 c2        1 CK3     -0.397000
      8 C4          0.4200   -0.5460   -0.2840 c1        1 CK3      0.140000
      9 N3          0.3160    0.2110    0.8120 n1        1 CK3     -0.229000
     10 C5          1.5990   -1.1980   -0.5610 c1        1 CK3     -0.272000
     11 C6          2.6650   -1.0720    0.2850 c1        1 CK3      0.002000
     12 N1          2.5620   -0.3100    1.3890 n1        1 CK3     -0.220000
     13 C2          1.3860    0.3390    1.6630 c1        1 CK3      0.176000
     14 N7          1.2450    1.1310    2.9300 n3        1 CK3     -0.275000
     15 C8          2.3600    1.2970    3.7870 c2        1 CK3      0.022000
     16 N9          2.2580    2.0520    4.8720 n1        1 CK3     -0.124000
     17 O10         1.0580    2.6850    5.1710 o         1 CK3     -0.268000
     18 H7A1       -4.8680   -1.8470   -1.9290 hc        1 CK3      0.100333
     19 H7A2       -3.9850   -3.1510   -2.2290 hc        1 CK3      0.100333
     20 H7A3       -4.3450   -2.1320   -3.4020 hc        1 CK3      0.100333
     21 H6A1        0.1430    1.9030   -2.0360 ha        1 CK3      0.096333
     22 H6A2       -0.6490    1.8950   -3.4370 ha        1 CK3      0.096333
     23 H6A3        0.6970    1.0240   -3.2560 ha        1 CK3      0.096333
     24 H5          1.6760   -1.7690   -1.3870 ha        1 CK3      0.162000
     25 H6          3.5190   -1.5460    0.0810 ha        1 CK3      0.168000
     26 HN7         0.4190    1.5640    3.1320 hn        1 CK3      0.262000
     27 H8          3.2040    0.8550    3.5780 h5        1 CK3      0.205000
     28 H10         1.2190    3.4060    5.6860 ho        1 CK3      0.240000
@<TRIPOS>BOND
     1    1    2 1   
     2    1   18 1   
     3    1   19 1   
     4    1   20 1   
     5    2    3 1   
     6    2    4 1   
     7    3    7 1   
     8    4    5 1   
     9    5    7 1   
    10    6   21 1   
    11    6   22 1   
    12    6   23 1   
    13    7    8 1   
    14    8   10 1   
    15    9   13 1   
    16   10   24 1   
    17   11   12 1   
    18   11   25 1   
    19   13   14 1   
    20   14   15 1   
    21   14   26 1   
    22   15   16 1   
    23   15   27 1   
    24   17   28 1   
@<TRIPOS>SUBSTRUCTURE
     1 CK3         1 TEMP              0 ****  ****    0 ROOT
