@<TRIPOS>MOLECULE
CK3
   29    30     1     0     0
SMALL
bcc


@<TRIPOS>ATOM
      1 C7A         0.3910    0.5500    0.0530 c3        1 CK3     -0.154400
      2 C3A         1.8440    0.3270   -0.0950 cc        1 CK3      0.470700
      3 S4A         2.8550    0.1940    1.2750 ss        1 CK3     -0.061300
      4 N2A         2.4790    0.2120   -1.2700 nd        1 CK3     -0.644000
      5 C1A         3.8350    0.0090   -1.0690 cd        1 CK3      0.474600
      6 C6A         4.7420   -0.1480   -2.2290 c3        1 CK3     -0.140400
      7 C5A         4.2170   -0.0280    0.2900 cc        1 CK3     -0.367900
      8 C4          5.5240   -0.2180    0.8530 ca        1 CK3      0.614800
      9 N3          6.6120   -0.3950    0.0450 nb        1 CK3     -0.692000
     10 C5          5.6770   -0.2210    2.2730 ca        1 CK3     -0.332600
     11 C6          6.9570   -0.4080    2.8070 ca        1 CK3      0.466200
     12 N1          8.0530   -0.5850    2.0340 nb        1 CK3     -0.688000
     13 C2          7.8060   -0.5700    0.6880 ca        1 CK3      0.719900
     14 N7          8.9990   -0.7670   -0.2020 n4        1 CK3     -0.726700
     15 C8          9.8530    0.4410   -0.1800 c2        1 CK3      0.426100
     16 N9         10.1960    1.2170   -1.1620 n2        1 CK3     -0.318200
     17 O10         9.7700    0.9740   -2.3620 oh        1 CK3     -0.339500
     18 H7A1        0.0890    1.5050   -0.4520 hc        1 CK3      0.080033
     19 H7A2        0.1120    0.6100    1.1340 hc        1 CK3      0.080033
     20 H7A3       -0.1830   -0.2880   -0.4230 hc        1 CK3      0.080033
     21 H6A1        5.5210    0.6550   -2.2100 hc        1 CK3      0.068033
     22 H6A2        5.2440   -1.1470   -2.1820 hc        1 CK3      0.068033
     23 H6A3        4.1890   -0.0790   -3.2010 hc        1 CK3      0.068033
     24 H5          4.8060   -0.0800    2.9320 ha        1 CK3      0.190000
     25 H6          7.1420   -0.4220    3.9010 h4        1 CK3      0.070100
     26 HN7         9.5490   -1.5620    0.1560 hn        1 CK3      0.482300
     27 H8         10.2340    0.6970    0.8380 hx        1 CK3      0.122800
     28 H10        10.1560    1.6820   -2.9340 ho        1 CK3      0.501000
     29 H72         8.6770   -0.9830   -1.1580 hn        1 CK3      0.482300
@<TRIPOS>BOND
     1    1    2 1   
     2    1   18 1   
     3    1   19 1   
     4    1   20 1   
     5    2    3 1   
     6    2    4 2   
     7    3    7 1   
     8    4    5 1   
     9    5    6 1   
    10    5    7 2   
    11    6   21 1   
    12    6   22 1   
    13    6   23 1   
    14    7    8 1   
    15    8    9 ar  
    16    8   10 ar  
    17    9   13 ar  
    18   10   11 ar  
    19   10   24 1   
    20   11   12 ar  
    21   11   25 1   
    22   12   13 ar  
    23   13   14 1   
    24   14   15 1   
    25   14   26 1   
    26   14   29 1   
    27   15   16 2   
    28   15   27 1   
    29   16   17 1   
    30   17   28 1   
@<TRIPOS>SUBSTRUCTURE
     1 CK3         1 TEMP              0 ****  ****    0 ROOT
