@<TRIPOS>MOLECULE
CK3
   28    29     1     0     0
SMALL
bcc


@<TRIPOS>ATOM
      1 C7A         0.1870    0.2040    0.2660 c3        1 CK3     -0.137400
      2 C3A         1.6420    0.0950    0.0320 cc        1 CK3      0.419700
      3 S4A         2.7470    0.1890    1.3370 ss        1 CK3     -0.099300
      4 N2A         2.2090   -0.0810   -1.1650 nd        1 CK3     -0.647000
      5 C1A         3.5940   -0.1390   -1.0370 cd        1 CK3      0.425600
      6 C6A         4.4480   -0.3300   -2.2330 c3        1 CK3     -0.130400
      7 C5A         4.0550   -0.0080    0.2810 cc        1 CK3     -0.294900
      8 C4          5.4190   -0.0240    0.7740 ca        1 CK3      0.586800
      9 N3          6.4540    0.1010   -0.0890 nb        1 CK3     -0.747000
     10 C5          5.6270   -0.1640    2.1720 ca        1 CK3     -0.425600
     11 C6          6.9520   -0.1670    2.6260 ca        1 CK3      0.473200
     12 N1          8.0150   -0.0470    1.8150 nb        1 CK3     -0.751000
     13 C2          7.7320    0.0840    0.4610 ca        1 CK3      0.896900
     14 N7          8.7880    0.2110   -0.4520 nu        1 CK3     -0.824900
     15 C8         10.1350    0.2250   -0.0790 c2        1 CK3      0.591100
     16 N9         11.2020    0.3490   -0.8280 n2        1 CK3     -0.510200
     17 O10        11.0480    0.4860   -2.1290 oh        1 CK3     -0.371500
     18 H7A1       -0.0210    0.3470    1.3550 hc        1 CK3      0.062700
     19 H7A2       -0.3360   -0.7240   -0.0810 hc        1 CK3      0.062700
     20 H7A3       -0.2360    1.0740   -0.2980 hc        1 CK3      0.062700
     21 H6A1        3.8400   -0.5200   -3.1520 hc        1 CK3      0.062700
     22 H6A2        5.0670    0.5880   -2.4000 hc        1 CK3      0.062700
     23 H6A3        5.1340   -1.1990   -2.0730 hc        1 CK3      0.062700
     24 H5          4.7860   -0.2690    2.8670 ha        1 CK3      0.157000
     25 H6          7.1890   -0.2720    3.7010 h4        1 CK3      0.030100
     26 HN7         8.5530    0.3130   -1.4170 hn        1 CK3      0.465800
     27 H8         10.3540    0.1130    1.0080 h5        1 CK3      0.075800
     28 H10        11.9610    0.5600   -2.4730 ho        1 CK3      0.441000
@<TRIPOS>BOND
     1    1    2 1   
     2    1   18 1   
     3    1   19 1   
     4    1   20 1   
     5    2    3 1   
     6    2    4 2   
     7    3    7 1   
     8    4    5 1   
     9    5    6 1   
    10    5    7 2   
    11    6   21 1   
    12    6   22 1   
    13    6   23 1   
    14    7    8 1   
    15    8    9 ar  
    16    8   10 ar  
    17    9   13 ar  
    18   10   11 ar  
    19   10   24 1   
    20   11   12 ar  
    21   11   25 1   
    22   12   13 ar  
    23   13   14 1   
    24   14   15 1   
    25   14   26 1   
    26   15   16 2   
    27   15   27 1   
    28   16   17 1   
    29   17   28 1   
@<TRIPOS>SUBSTRUCTURE
     1 CK3         1 TEMP              0 ****  ****    0 ROOT
