@<TRIPOS>MOLECULE
CK3
   28    29     1     0     0
SMALL
bcc


@<TRIPOS>ATOM
      1 C7A         0.1800   -0.0130    0.2800 c3        1 CK3     -0.137400
      2 C3A         1.6380   -0.0100    0.0390 cc        1 CK3      0.419700
      3 S4A         2.7410    0.0110    1.3490 ss        1 CK3     -0.099300
      4 N2A         2.2090   -0.0220   -1.1690 nd        1 CK3     -0.647000
      5 C1A         3.5970   -0.0140   -1.0450 cd        1 CK3      0.425600
      6 C6A         4.4520   -0.0250   -2.2550 c3        1 CK3     -0.130400
      7 C5A         4.0550    0.0040    0.2800 cc        1 CK3     -0.294900
      8 C4          5.4180    0.0160    0.7760 ca        1 CK3      0.586800
      9 N3          6.4570    0.0600   -0.0900 nb        1 CK3     -0.747000
     10 C5          5.6220   -0.0190    2.1820 ca        1 CK3     -0.425600
     11 C6          6.9460   -0.0040    2.6380 ca        1 CK3      0.473200
     12 N1          8.0130    0.0390    1.8240 nb        1 CK3     -0.751000
     13 C2          7.7330    0.0700    0.4640 ca        1 CK3      0.896900
     14 N7          8.7930    0.1160   -0.4540 nh        1 CK3     -0.824900
     15 C8         10.1390    0.1330   -0.0790 c2        1 CK3      0.591100
     16 N9         11.2090    0.1750   -0.8330 n2        1 CK3     -0.510200
     17 O10        11.0600    0.2080   -2.1410 oh        1 CK3     -0.371500
     18 H7A1       -0.2880   -0.9270   -0.1670 hc        1 CK3      0.062700
     19 H7A2       -0.0310   -0.0010    1.3780 hc        1 CK3      0.062700
     20 H7A3       -0.2960    0.8860   -0.1880 hc        1 CK3      0.062700
     21 H6A1        5.0850    0.8970   -2.2750 hc        1 CK3      0.062367
     22 H6A2        3.8440   -0.0600   -3.1930 hc        1 CK3      0.062367
     23 H6A3        5.1230   -0.9200   -2.2330 hc        1 CK3      0.062367
     24 H5          4.7790   -0.0560    2.8820 ha        1 CK3      0.157000
     25 H6          7.1790   -0.0290    3.7190 h4        1 CK3      0.030100
     26 HN7         8.5600    0.1390   -1.4250 hn        1 CK3      0.465800
     27 H8         10.3550    0.1080    1.0140 h5        1 CK3      0.075800
     28 H10        11.9740    0.2360   -2.4880 ho        1 CK3      0.441000
@<TRIPOS>BOND
     1    1    2 1   
     2    1   18 1   
     3    1   19 1   
     4    1   20 1   
     5    2    3 1   
     6    2    4 2   
     7    3    7 1   
     8    4    5 1   
     9    5    6 1   
    10    5    7 2   
    11    6   21 1   
    12    6   22 1   
    13    6   23 1   
    14    7    8 1   
    15    8    9 ar  
    16    8   10 ar  
    17    9   13 ar  
    18   10   11 ar  
    19   10   24 1   
    20   11   12 ar  
    21   11   25 1   
    22   12   13 ar  
    23   13   14 1   
    24   14   15 1   
    25   14   26 1   
    26   15   16 2   
    27   15   27 1   
    28   16   17 1   
    29   17   28 1   
@<TRIPOS>SUBSTRUCTURE
     1 CK3         1 TEMP              0 ****  ****    0 ROOT
