@<TRIPOS>MOLECULE
CK3
   28    29     1     0     0
SMALL
bcc


@<TRIPOS>ATOM
      1 C7A         5.5320   -0.4280   -0.2620 c3        1 CK3     -0.137400
      2 C3A         4.0630   -0.5200   -0.1240 cc        1 CK3      0.419700
      3 S4A         3.0860    0.8820   -0.2270 ss        1 CK3     -0.099300
      4 N2A         3.3880   -1.6540    0.0840 nd        1 CK3     -0.647000
      5 C1A         2.0220   -1.3930    0.1620 cd        1 CK3      0.425600
      6 C6A         1.0620   -2.4980    0.3900 c3        1 CK3     -0.130400
      7 C5A         1.6870   -0.0400    0.0120 cc        1 CK3     -0.294900
      8 C4          0.3770    0.5820    0.0400 ca        1 CK3      0.586800
      9 N3         -0.7380   -0.1800   -0.0570 nb        1 CK3     -0.747000
     10 C5          0.3050    1.9950    0.1610 ca        1 CK3     -0.425600
     11 C6         -0.9710    2.5730    0.1760 ca        1 CK3      0.473200
     12 N1         -2.1080    1.8650    0.0840 nb        1 CK3     -0.751000
     13 C2         -1.9570    0.4890   -0.0310 ca        1 CK3      0.896900
     14 N7         -3.0980   -0.3210   -0.1290 nh        1 CK3     -0.824900
     15 C8         -4.4020    0.1790   -0.1300 c2        1 CK3      0.591100
     16 N9         -5.5380   -0.4660   -0.2280 n2        1 CK3     -0.510200
     17 O10        -5.5110   -1.7780   -0.3490 oh        1 CK3     -0.371500
     18 H7A1        6.0350   -0.8070    0.6640 hc        1 CK3      0.062700
     19 H7A2        5.8830   -1.0460   -1.1270 hc        1 CK3      0.062700
     20 H7A3        5.8390    0.6330   -0.4300 hc        1 CK3      0.062700
     21 H6A1        0.4150   -2.6230   -0.5150 hc        1 CK3      0.062700
     22 H6A2        1.5830   -3.4670    0.5920 hc        1 CK3      0.062700
     23 H6A3        0.4080   -2.2560    1.2650 hc        1 CK3      0.062700
     24 H5          1.2100    2.6080    0.2440 ha        1 CK3      0.157000
     25 H6         -1.1030    3.6670    0.2680 h4        1 CK3      0.030100
     26 HN7        -2.9560   -1.3050   -0.2200 hn        1 CK3      0.465800
     27 H8         -4.5160    1.2840   -0.0320 h5        1 CK3      0.075800
     28 H10        -6.4530   -2.0340   -0.4050 ho        1 CK3      0.441000
@<TRIPOS>BOND
     1    1    2 1   
     2    1   18 1   
     3    1   19 1   
     4    1   20 1   
     5    2    3 1   
     6    2    4 2   
     7    3    7 1   
     8    4    5 1   
     9    5    6 1   
    10    5    7 2   
    11    6   21 1   
    12    6   22 1   
    13    6   23 1   
    14    7    8 1   
    15    8    9 ar  
    16    8   10 ar  
    17    9   13 ar  
    18   10   11 ar  
    19   10   24 1   
    20   11   12 ar  
    21   11   25 1   
    22   12   13 ar  
    23   13   14 1   
    24   14   15 1   
    25   14   26 1   
    26   15   16 2   
    27   15   27 1   
    28   16   17 1   
    29   17   28 1   
@<TRIPOS>SUBSTRUCTURE
     1 CK3         1 TEMP              0 ****  ****    0 ROOT
