@<TRIPOS>MOLECULE
CK4
   37    32     1     0     0
SMALL
bcc


@<TRIPOS>ATOM
      1 F8B        -4.4120   -4.7680    3.6690 f         1 CK4     -0.167000
      2 C7B        -3.6090   -5.1490    2.6680 c3        1 CK4      0.469000
      3 F1B        -2.5890   -5.8630    3.1620 f         1 CK4     -0.167000
      4 F9B        -4.3010   -5.8990    1.8010 f         1 CK4     -0.167000
      5 C4B        -3.0710   -3.9260    1.9590 c2        1 CK4     -0.180000
      6 C5B        -2.8950   -3.9430    0.5840 c2        1 CK4     -0.068000
      7 C6B        -2.3980   -2.8240   -0.0650 c1        1 CK4     -0.120000
      8 C3B        -2.7490   -2.7900    2.6850 c1        1 CK4     -0.063000
      9 C2B        -2.2510   -1.6710    2.0360 c1        1 CK4     -0.179000
     10 C1B        -2.0750   -1.6880    0.6610 c1        1 CK4      0.090000
     11 N7         -1.6150   -0.5250   -0.0090 n3        1 CK4     -0.236000
     12 C2         -0.2230   -0.2880   -0.1420 c2        1 CK4      0.155000
     13 N1          0.6690   -1.2660    0.1830 n2        1 CK4     -0.206000
     14 C6          1.9860   -1.0310    0.0910 c1        1 CK4     -0.003000
     15 C5          2.4330    0.1870   -0.3290 c1        1 CK4     -0.266000
     16 N3          0.2230    0.9290   -0.5610 n1        1 CK4     -0.227000
     17 C4          1.5400    1.1660   -0.6540 c1        1 CK4      0.137000
     18 C5A         1.9930    2.4330   -0.9880 c1        1 CK4     -0.396000
     19 S4A         2.2280    3.5850   -0.0190 ss        1 CK4      0.562000
     20 C1A         2.2320    2.9230   -2.3250 c1        1 CK4     -0.034000
     21 C6A         2.1190    2.1140   -3.5990 c2        1 CK4     -0.158000
     22 N2A         2.6340    4.4370   -2.2300 n2        1 CK4     -0.113000
     23 C3A         2.6280    4.8200   -0.8540 c1        1 CK4     -0.281000
     24 C7A         2.8850    6.2110   -0.3170 c2        1 CK4     -0.158000
     25 H5B        -3.1220   -4.7420    0.0740 ha        1 CK4      0.153000
     26 H6B        -2.2740   -2.8360   -1.0320 ha        1 CK4      0.165000
     27 H3B        -2.8720   -2.7780    3.6530 ha        1 CK4      0.152000
     28 H2B        -2.0240   -0.8710    2.5470 ha        1 CK4      0.141000
     29 HN7        -2.2140    0.0700   -0.3530 hn        1 CK4      0.240000
     30 H6          2.6240   -1.7320    0.3240 ha        1 CK4      0.169000
     31 H5          3.3920    0.3590   -0.3960 ha        1 CK4      0.163000
     32 H6A1        2.9180    1.5560   -3.7030 ha        1 CK4      0.098833
     33 H6A2        2.0420    2.7210   -4.3650 ha        1 CK4      0.098833
     34 H6A3        1.3250    1.5420   -3.5530 ha        1 CK4      0.098833
     35 H7A1        3.5150    6.6770   -0.9060 ha        1 CK4      0.098833
     36 H7A2        3.2650    6.1480    0.5840 ha        1 CK4      0.098833
     37 H7A3        2.0410    6.7090   -0.2820 ha        1 CK4      0.098833
@<TRIPOS>BOND
     1    1    2 1   
     2    2    3 1   
     3    2    4 1   
     4    2    5 1   
     5    5    6 1   
     6    5    8 1   
     7    6    7 1   
     8    6   25 1   
     9    7   26 1   
    10    8   27 1   
    11    9   10 1   
    12    9   28 1   
    13   10   11 1   
    14   11   12 1   
    15   11   29 1   
    16   12   13 1   
    17   12   16 1   
    18   13   14 1   
    19   14   30 1   
    20   15   17 1   
    21   15   31 1   
    22   18   19 1   
    23   18   20 1   
    24   19   23 1   
    25   20   22 1   
    26   21   32 1   
    27   21   33 1   
    28   21   34 1   
    29   22   23 1   
    30   24   35 1   
    31   24   36 1   
    32   24   37 1   
@<TRIPOS>SUBSTRUCTURE
     1 CK4         1 TEMP              0 ****  ****    0 ROOT
