@<TRIPOS>MOLECULE
CK4
   37    39     1     0     0
SMALL
bcc


@<TRIPOS>ATOM
      1 F8B        -1.3130    0.2330   -6.6450 f         1 CK4     -0.238633
      2 C7B        -0.0120    0.3920   -6.2330 c3        1 CK4      0.690200
      3 F1B         0.3430    1.6300   -6.7130 f         1 CK4     -0.238633
      4 F9B         0.6950   -0.4840   -7.0220 f         1 CK4     -0.238633
      5 C4B         0.2090    0.2050   -4.7400 ca        1 CK4     -0.187300
      6 C5B         1.2490    0.8830   -4.1010 ca        1 CK4     -0.065500
      7 C6B         1.4600    0.7080   -2.7390 ca        1 CK4     -0.149000
      8 C3B        -0.6150   -0.6560   -4.0150 ca        1 CK4     -0.065500
      9 C2B        -0.4090   -0.8480   -2.6520 ca        1 CK4     -0.149000
     10 C1B         0.6300   -0.1610   -1.9890 ca        1 CK4      0.171600
     11 N7          0.9220   -0.3870   -0.6290 nh        1 CK4     -0.714300
     12 C2         -0.0380   -0.2340    0.3960 ca        1 CK4      0.874900
     13 N1         -1.3870   -0.2070    0.0730 nb        1 CK4     -0.736000
     14 C6         -2.2360   -0.1300    1.1110 ca        1 CK4      0.467200
     15 C5         -1.8240   -0.0750    2.4480 ca        1 CK4     -0.417600
     16 N3          0.4740   -0.1630    1.6870 nb        1 CK4     -0.744000
     17 C4         -0.4260   -0.0940    2.6960 ca        1 CK4      0.581800
     18 C5A         0.0310   -0.0180    4.0710 cc        1 CK4     -0.295900
     19 S4A        -0.9810    0.5500    5.3010 ss        1 CK4     -0.097300
     20 C1A         1.2820   -0.3700    4.5980 cd        1 CK4      0.424600
     21 C6A         2.4210   -0.9100    3.8200 c3        1 CK4     -0.129400
     22 N2A         1.3950   -0.1770    5.9730 nd        1 CK4     -0.646000
     23 C3A         0.2540    0.3130    6.4650 cc        1 CK4      0.420700
     24 C7A         0.0230    0.6410    7.8880 c3        1 CK4     -0.137400
     25 H5B         1.8950    1.5650   -4.6760 ha        1 CK4      0.152500
     26 H6B         2.2830    1.2540   -2.2520 ha        1 CK4      0.153500
     27 H3B        -1.4350   -1.1890   -4.5250 ha        1 CK4      0.152500
     28 H2B        -1.0650   -1.5440   -2.1050 ha        1 CK4      0.153500
     29 HN7         1.8580   -0.1490   -0.3600 hn        1 CK4      0.444800
     30 H6         -3.3090   -0.1110    0.8410 h4        1 CK4      0.031100
     31 H5         -2.5480   -0.0220    3.2690 ha        1 CK4      0.158000
     32 H6A1        2.8220   -0.1120    3.1450 hc        1 CK4      0.062033
     33 H6A2        3.2480   -1.2620    4.4850 hc        1 CK4      0.062033
     34 H6A3        2.0770   -1.7690    3.1920 hc        1 CK4      0.062033
     35 H7A1        0.7540    1.4150    8.2340 hc        1 CK4      0.063033
     36 H7A2       -1.0130    1.0360    8.0310 hc        1 CK4      0.063033
     37 H7A3        0.1520   -0.2700    8.5250 hc        1 CK4      0.063033
@<TRIPOS>BOND
     1    1    2 1   
     2    2    3 1   
     3    2    4 1   
     4    2    5 1   
     5    5    6 ar  
     6    5    8 ar  
     7    6    7 ar  
     8    6   25 1   
     9    7   10 ar  
    10    7   26 1   
    11    8    9 ar  
    12    8   27 1   
    13    9   10 ar  
    14    9   28 1   
    15   10   11 1   
    16   11   12 1   
    17   11   29 1   
    18   12   13 ar  
    19   12   16 ar  
    20   13   14 ar  
    21   14   15 ar  
    22   14   30 1   
    23   15   17 ar  
    24   15   31 1   
    25   16   17 ar  
    26   17   18 1   
    27   18   19 1   
    28   18   20 2   
    29   19   23 1   
    30   20   21 1   
    31   20   22 1   
    32   21   32 1   
    33   21   33 1   
    34   21   34 1   
    35   22   23 2   
    36   23   24 1   
    37   24   35 1   
    38   24   36 1   
    39   24   37 1   
@<TRIPOS>SUBSTRUCTURE
     1 CK4         1 TEMP              0 ****  ****    0 ROOT
