@<TRIPOS>MOLECULE
CK4
   38    40     1     0     0
SMALL
bcc


@<TRIPOS>ATOM
      1 F8B        -0.7050   -1.2180   -2.7990 f         1 CK4     -0.215633
      2 C7B         0.2160   -0.9420   -1.8210 c3        1 CK4      0.688200
      3 F1B        -0.5150   -0.8230   -0.6670 f         1 CK4     -0.215633
      4 F9B         0.6560    0.3270   -2.0960 f         1 CK4     -0.215633
      5 C4B         1.3510   -1.9700   -1.7320 ca        1 CK4     -0.118300
      6 C5B         1.9680   -2.2120   -0.5030 ca        1 CK4     -0.063500
      7 C6B         3.0120   -3.1320   -0.4160 ca        1 CK4     -0.097500
      8 C3B         1.7630   -2.6440   -2.8840 ca        1 CK4     -0.063500
      9 C2B         2.8040   -3.5670   -2.8170 ca        1 CK4     -0.097500
     10 C1B         3.4320   -3.7990   -1.5800 ca        1 CK4     -0.024400
     11 N7          4.5480   -4.7490   -1.5040 n4        1 CK4     -0.613100
     12 C2          4.0470   -6.1640   -1.4250 ca        1 CK4      0.720900
     13 N1          3.9300   -6.6880   -0.1670 nb        1 CK4     -0.683000
     14 C6          3.4670   -7.9600   -0.1300 ca        1 CK4      0.467200
     15 C5          3.1320   -8.6760   -1.2840 ca        1 CK4     -0.332600
     16 N3          3.7560   -6.7560   -2.6230 nb        1 CK4     -0.698000
     17 C4          3.2900   -8.0380   -2.5520 ca        1 CK4      0.612800
     18 C5A         2.9500   -8.7590   -3.7470 cc        1 CK4     -0.365900
     19 S4A         2.3060  -10.3260   -3.6820 ss        1 CK4     -0.057300
     20 C1A         3.0700   -8.3480   -5.0930 cd        1 CK4      0.469600
     21 C6A         3.5990   -7.0450   -5.5570 c3        1 CK4     -0.137400
     22 N2A         2.6450   -9.2920   -6.0130 nd        1 CK4     -0.643000
     23 C3A         2.2120  -10.3950   -5.3850 cc        1 CK4      0.467700
     24 C7A         1.6900  -11.5970   -6.0690 c3        1 CK4     -0.154400
     25 H5B         1.6250   -1.6810    0.4030 ha        1 CK4      0.187500
     26 H6B         3.4840   -3.3220    0.5630 ha        1 CK4      0.172500
     27 H3B         1.2590   -2.4510   -3.8480 ha        1 CK4      0.187500
     28 H2B         3.1120   -4.1070   -3.7290 ha        1 CK4      0.172500
     29 HN7         5.1350   -4.6510   -2.3450 hn        1 CK4      0.479300
     30 H6          3.3700   -8.3980    0.8840 h4        1 CK4      0.070100
     31 H5          2.7570   -9.7090   -1.2190 ha        1 CK4      0.189000
     32 H6A1        4.6500   -6.9160   -5.1960 hc        1 CK4      0.065033
     33 H6A2        3.5990   -6.9720   -6.6740 hc        1 CK4      0.065033
     34 H6A3        2.9680   -6.2150   -5.1510 hc        1 CK4      0.065033
     35 H7A1        0.7950  -11.3340   -6.6910 hc        1 CK4      0.080033
     36 H7A2        1.3940  -12.3740   -5.3220 hc        1 CK4      0.080033
     37 H7A3        2.4690  -12.0280   -6.7500 hc        1 CK4      0.080033
     38 H72         5.1140   -4.5490   -0.6650 hn        1 CK4      0.479300
@<TRIPOS>BOND
     1    1    2 1   
     2    2    3 1   
     3    2    4 1   
     4    2    5 1   
     5    5    6 ar  
     6    5    8 ar  
     7    6    7 ar  
     8    6   25 1   
     9    7   10 ar  
    10    7   26 1   
    11    8    9 ar  
    12    8   27 1   
    13    9   10 ar  
    14    9   28 1   
    15   10   11 1   
    16   11   12 1   
    17   11   29 1   
    18   11   38 1   
    19   12   13 ar  
    20   12   16 ar  
    21   13   14 ar  
    22   14   15 ar  
    23   14   30 1   
    24   15   17 ar  
    25   15   31 1   
    26   16   17 ar  
    27   17   18 1   
    28   18   19 1   
    29   18   20 2   
    30   19   23 1   
    31   20   21 1   
    32   20   22 1   
    33   21   32 1   
    34   21   33 1   
    35   21   34 1   
    36   22   23 2   
    37   23   24 1   
    38   24   35 1   
    39   24   36 1   
    40   24   37 1   
@<TRIPOS>SUBSTRUCTURE
     1 CK4         1 TEMP              0 ****  ****    0 ROOT
