@<TRIPOS>MOLECULE
CK4
   37    39     1     0     0
SMALL
bcc


@<TRIPOS>ATOM
      1 F8B         0.4640    0.0600    0.8380 f         1 CK4     -0.238633
      2 C7B         1.7400    0.0030    0.3330 c3        1 CK4      0.690200
      3 F1B         2.5450    0.1530    1.4370 f         1 CK4     -0.238633
      4 F9B         1.8830    1.1920   -0.3440 f         1 CK4     -0.238633
      5 C4B         2.0370   -1.2310   -0.5050 ca        1 CK4     -0.187300
      6 C5B         3.3390   -1.7310   -0.5690 ca        1 CK4     -0.065500
      7 C6B         3.6170   -2.8530   -1.3400 ca        1 CK4     -0.149000
      8 C3B         1.0130   -1.8520   -1.2220 ca        1 CK4     -0.065500
      9 C2B         1.2790   -2.9700   -2.0050 ca        1 CK4     -0.149000
     10 C1B         2.5870   -3.4950   -2.0710 ca        1 CK4      0.171600
     11 N7          2.9140   -4.5760   -2.9140 nh        1 CK4     -0.714300
     12 C2          2.2540   -5.8240   -2.8480 ca        1 CK4      0.874900
     13 N1          1.0290   -5.9190   -2.2060 nb        1 CK4     -0.737000
     14 C6          0.4350   -7.1220   -2.2510 ca        1 CK4      0.467200
     15 C5          0.9900   -8.2370   -2.8930 ca        1 CK4     -0.417600
     16 N3          2.8990   -6.8730   -3.4940 nb        1 CK4     -0.744000
     17 C4          2.2540   -8.0630   -3.5160 ca        1 CK4      0.581800
     18 C5A         2.8620   -9.2060   -4.1710 cc        1 CK4     -0.295900
     19 S4A         2.3620  -10.7840   -3.8240 ss        1 CK4     -0.097300
     20 C1A         3.8850   -9.2230   -5.1300 cd        1 CK4      0.424600
     21 C6A         4.5650   -8.0280   -5.6820 c3        1 CK4     -0.129400
     22 N2A         4.2380  -10.4990   -5.5630 nd        1 CK4     -0.646000
     23 C3A         3.4980  -11.4190   -4.9380 cc        1 CK4      0.420700
     24 C7A         3.6110  -12.8770   -5.1530 c3        1 CK4     -0.137400
     25 H5B         4.1440   -1.2400    0.0010 ha        1 CK4      0.152500
     26 H6B         4.6490   -3.2350   -1.3750 ha        1 CK4      0.153500
     27 H3B        -0.0130   -1.4530   -1.1670 ha        1 CK4      0.152500
     28 H2B         0.4560   -3.4330   -2.5710 ha        1 CK4      0.153500
     29 HN7         3.8830   -4.6310   -3.1610 hn        1 CK4      0.444800
     30 H6         -0.5420   -7.1850   -1.7370 h4        1 CK4      0.031100
     31 H5          0.4710   -9.2020   -2.9150 ha        1 CK4      0.158000
     32 H6A1        3.8050   -7.2850   -6.0290 hc        1 CK4      0.062033
     33 H6A2        5.2290   -8.2890   -6.5430 hc        1 CK4      0.062033
     34 H6A3        5.1890   -7.5540   -4.8830 hc        1 CK4      0.062033
     35 H7A1        2.8800  -13.4210   -4.5050 hc        1 CK4      0.063033
     36 H7A2        3.4030  -13.1320   -6.2230 hc        1 CK4      0.063033
     37 H7A3        4.6440  -13.2300   -4.9050 hc        1 CK4      0.063033
@<TRIPOS>BOND
     1    1    2 1   
     2    2    3 1   
     3    2    4 1   
     4    2    5 1   
     5    5    6 ar  
     6    5    8 ar  
     7    6    7 ar  
     8    6   25 1   
     9    7   10 ar  
    10    7   26 1   
    11    8    9 ar  
    12    8   27 1   
    13    9   10 ar  
    14    9   28 1   
    15   10   11 1   
    16   11   12 1   
    17   11   29 1   
    18   12   13 ar  
    19   12   16 ar  
    20   13   14 ar  
    21   14   15 ar  
    22   14   30 1   
    23   15   17 ar  
    24   15   31 1   
    25   16   17 ar  
    26   17   18 1   
    27   18   19 1   
    28   18   20 2   
    29   19   23 1   
    30   20   21 1   
    31   20   22 1   
    32   21   32 1   
    33   21   33 1   
    34   21   34 1   
    35   22   23 2   
    36   23   24 1   
    37   24   35 1   
    38   24   36 1   
    39   24   37 1   
@<TRIPOS>SUBSTRUCTURE
     1 CK4         1 TEMP              0 ****  ****    0 ROOT
