@<TRIPOS>MOLECULE
CK4
   37    39     1     0     0
SMALL
bcc


@<TRIPOS>ATOM
      1 F8B         0.4670    0.0580    0.8440 f         1 CK4     -0.238633
      2 C7B         1.7440   -0.0010    0.3400 c3        1 CK4      0.690200
      3 F1B         2.5470    0.1450    1.4460 f         1 CK4     -0.238633
      4 F9B         1.8900    1.1890   -0.3340 f         1 CK4     -0.238633
      5 C4B         2.0400   -1.2340   -0.4990 ca        1 CK4     -0.187300
      6 C5B         3.3420   -1.7340   -0.5650 ca        1 CK4     -0.065500
      7 C6B         3.6190   -2.8550   -1.3370 ca        1 CK4     -0.149000
      8 C3B         1.0150   -1.8530   -1.2160 ca        1 CK4     -0.065500
      9 C2B         1.2800   -2.9700   -2.0020 ca        1 CK4     -0.149000
     10 C1B         2.5890   -3.4960   -2.0680 ca        1 CK4      0.171600
     11 N7          2.9150   -4.5760   -2.9130 nu        1 CK4     -0.714300
     12 C2          2.2540   -5.8230   -2.8490 ca        1 CK4      0.874900
     13 N1          1.0280   -5.9180   -2.2080 nb        1 CK4     -0.736000
     14 C6          0.4340   -7.1210   -2.2530 ca        1 CK4      0.467200
     15 C5          0.9880   -8.2360   -2.8960 ca        1 CK4     -0.417600
     16 N3          2.8980   -6.8720   -3.4950 nb        1 CK4     -0.744000
     17 C4          2.2530   -8.0620   -3.5190 ca        1 CK4      0.581800
     18 C5A         2.8600   -9.2040   -4.1740 cc        1 CK4     -0.295900
     19 S4A         2.3610  -10.7830   -3.8280 ss        1 CK4     -0.097300
     20 C1A         3.8820   -9.2210   -5.1340 cd        1 CK4      0.424600
     21 C6A         4.5630   -8.0260   -5.6860 c3        1 CK4     -0.129400
     22 N2A         4.2360  -10.4970   -5.5680 nd        1 CK4     -0.646000
     23 C3A         3.4970  -11.4170   -4.9430 cc        1 CK4      0.420700
     24 C7A         3.6090  -12.8750   -5.1580 c3        1 CK4     -0.137400
     25 H5B         4.1470   -1.2450    0.0060 ha        1 CK4      0.152500
     26 H6B         4.6510   -3.2370   -1.3730 ha        1 CK4      0.153500
     27 H3B        -0.0100   -1.4530   -1.1610 ha        1 CK4      0.152500
     28 H2B         0.4570   -3.4320   -2.5680 ha        1 CK4      0.153500
     29 HN7         3.8840   -4.6310   -3.1600 hn        1 CK4      0.444800
     30 H6         -0.5440   -7.1840   -1.7400 h4        1 CK4      0.031100
     31 H5          0.4690   -9.2010   -2.9200 ha        1 CK4      0.158000
     32 H6A1        3.8020   -7.2830   -6.0320 hc        1 CK4      0.062033
     33 H6A2        5.2250   -8.2870   -6.5480 hc        1 CK4      0.062033
     34 H6A3        5.1870   -7.5520   -4.8870 hc        1 CK4      0.062033
     35 H7A1        4.6430  -13.2280   -4.9120 hc        1 CK4      0.063033
     36 H7A2        2.8790  -13.4200   -4.5090 hc        1 CK4      0.063033
     37 H7A3        3.3990  -13.1300   -6.2280 hc        1 CK4      0.063033
@<TRIPOS>BOND
     1    1    2 1   
     2    2    3 1   
     3    2    4 1   
     4    2    5 1   
     5    5    6 ar  
     6    5    8 ar  
     7    6    7 ar  
     8    6   25 1   
     9    7   10 ar  
    10    7   26 1   
    11    8    9 ar  
    12    8   27 1   
    13    9   10 ar  
    14    9   28 1   
    15   10   11 1   
    16   11   12 1   
    17   11   29 1   
    18   12   13 ar  
    19   12   16 ar  
    20   13   14 ar  
    21   14   15 ar  
    22   14   30 1   
    23   15   17 ar  
    24   15   31 1   
    25   16   17 ar  
    26   17   18 1   
    27   18   19 1   
    28   18   20 2   
    29   19   23 1   
    30   20   21 1   
    31   20   22 1   
    32   21   32 1   
    33   21   33 1   
    34   21   34 1   
    35   22   23 2   
    36   23   24 1   
    37   24   35 1   
    38   24   36 1   
    39   24   37 1   
@<TRIPOS>SUBSTRUCTURE
     1 CK4         1 TEMP              0 ****  ****    0 ROOT
