@<TRIPOS>MOLECULE
CK5
   36    38     1     0     0
SMALL
bcc


@<TRIPOS>ATOM
      1 O7B         1.6170   -2.5370    2.1220 oh        1 CK5     -0.474100
      2 C3B         2.0240   -1.4050    1.4690 ca        1 CK5      0.157100
      3 C2B         3.2270   -0.8410    1.9280 ca        1 CK5     -0.137000
      4 C1B         3.6960    0.3180    1.2930 ca        1 CK5     -0.010400
      5 C6B         2.9880    0.9200    0.2400 ca        1 CK5     -0.136000
      6 C5B         1.7970    0.3340   -0.1910 ca        1 CK5     -0.066000
      7 C4B         1.3090   -0.8220    0.4100 ca        1 CK5     -0.162000
      8 N7          4.9680    0.9050    1.7350 n4        1 CK5     -0.612100
      9 C2          4.7810    1.7400    2.9690 ca        1 CK5      0.722900
     10 N1          4.6070    3.0820    2.7650 nb        1 CK5     -0.683000
     11 C6          4.4300    3.8030    3.8960 ca        1 CK5      0.465200
     12 N3          4.7970    1.0570    4.1540 nb        1 CK5     -0.694000
     13 C4          4.6130    1.8130    5.2770 ca        1 CK5      0.610800
     14 C5          4.4210    3.2240    5.1700 ca        1 CK5     -0.334600
     15 C5A         4.6120    1.2020    6.5770 cc        1 CK5     -0.362900
     16 C1A         4.6760   -0.1690    6.9090 cd        1 CK5      0.469600
     17 C6A         4.7620   -1.2910    5.9460 c3        1 CK5     -0.139400
     18 S4A         4.5230    2.1320    7.9920 ss        1 CK5     -0.063300
     19 C3A         4.5730    0.7250    8.9590 cc        1 CK5      0.466700
     20 N2A         4.6520   -0.4220    8.2710 nd        1 CK5     -0.644000
     21 C7A         4.5300    0.8170   10.4340 c3        1 CK5     -0.153400
     22 H7B         0.7850   -2.8440    1.7240 ho        1 CK5      0.446000
     23 H2B         3.7540   -1.3140    2.7730 ha        1 CK5      0.182000
     24 H6B         3.3470    1.8410   -0.2470 ha        1 CK5      0.164000
     25 H5B         1.2370    0.7990   -1.0210 ha        1 CK5      0.172000
     26 H4B         0.3680   -1.2760    0.0600 ha        1 CK5      0.168000
     27 HN7         5.3490    1.5000    0.9840 hn        1 CK5      0.477800
     28 H6          4.2910    4.8930    3.7450 h4        1 CK5      0.067100
     29 H5          4.2690    3.8400    6.0700 ha        1 CK5      0.187000
     30 H6A1        5.7160   -1.2150    5.3670 hc        1 CK5      0.067033
     31 H6A2        3.8980   -1.2470    5.2350 hc        1 CK5      0.067033
     32 H6A3        4.7420   -2.2840    6.4630 hc        1 CK5      0.067033
     33 H7A1        4.4640    1.8850   10.7570 hc        1 CK5      0.078700
     34 H7A2        5.4510    0.3590   10.8800 hc        1 CK5      0.078700
     35 H7A3        3.6410    0.2620   10.8330 hc        1 CK5      0.078700
     36 H72         5.6340    0.1470    1.9450 hn        1 CK5      0.477800
@<TRIPOS>BOND
     1    1    2 1   
     2    1   22 1   
     3    2    3 ar  
     4    2    7 ar  
     5    3    4 ar  
     6    3   23 1   
     7    4    5 ar  
     8    4    8 1   
     9    5    6 ar  
    10    5   24 1   
    11    6    7 ar  
    12    6   25 1   
    13    7   26 1   
    14    8    9 1   
    15    8   27 1   
    16    8   36 1   
    17    9   10 ar  
    18    9   12 ar  
    19   10   11 ar  
    20   11   14 ar  
    21   11   28 1   
    22   12   13 ar  
    23   13   14 ar  
    24   13   15 1   
    25   14   29 1   
    26   15   16 2   
    27   15   18 1   
    28   16   17 1   
    29   16   20 1   
    30   17   30 1   
    31   17   31 1   
    32   17   32 1   
    33   18   19 1   
    34   19   20 2   
    35   19   21 1   
    36   21   33 1   
    37   21   34 1   
    38   21   35 1   
@<TRIPOS>SUBSTRUCTURE
     1 CK5         1 TEMP              0 ****  ****    0 ROOT
