@<TRIPOS>MOLECULE
CK5
   35    37     1     0     0
SMALL
bcc


@<TRIPOS>ATOM
      1 O7B         0.1390   -0.1480   -0.7150 oh        1 CK5     -0.498100
      2 C3B         1.4640    0.0030   -0.3720 ca        1 CK5      0.135100
      3 C2B         1.9160   -0.1880    0.9400 ca        1 CK5     -0.192000
      4 C1B         3.2820   -0.0100    1.2280 ca        1 CK5      0.167600
      5 C6B         4.1680    0.3370    0.1820 ca        1 CK5     -0.202000
      6 C5B         3.6910    0.5050   -1.1150 ca        1 CK5     -0.083000
      7 C4B         2.3420    0.3470   -1.4110 ca        1 CK5     -0.167000
      8 N7          3.7990   -0.2650    2.5200 nh        1 CK5     -0.707300
      9 C2          3.3480    0.4350    3.6610 ca        1 CK5      0.874900
     10 N1          2.1020    1.0470    3.6420 nb        1 CK5     -0.736000
     11 C6          1.7120    1.6180    4.7930 ca        1 CK5      0.466200
     12 N3          4.1990    0.4010    4.7600 nb        1 CK5     -0.747000
     13 C4          3.7540    0.9840    5.8970 ca        1 CK5      0.580800
     14 C5          2.4860    1.6200    5.9610 ca        1 CK5     -0.421600
     15 C5A         4.5860    0.9880    7.0850 cc        1 CK5     -0.291900
     16 C1A         5.6680    0.1530    7.3990 cd        1 CK5      0.421600
     17 C6A         6.1860   -0.9390    6.5420 c3        1 CK5     -0.129400
     18 S4A         4.3230    2.0940    8.3380 ss        1 CK5     -0.099300
     19 C3A         5.6280    1.4370    9.2310 cc        1 CK5      0.417700
     20 N2A         6.2550    0.4190    8.6340 nd        1 CK5     -0.646000
     21 C7A         5.9900    1.9880   10.5540 c3        1 CK5     -0.136400
     22 H7B        -0.3580   -0.3500    0.0910 ho        1 CK5      0.422000
     23 H2B         1.2010   -0.4700    1.7260 ha        1 CK5      0.156000
     24 H6B         5.2410    0.4750    0.3820 ha        1 CK5      0.134000
     25 H5B         4.3950    0.7730   -1.9180 ha        1 CK5      0.136000
     26 H4B         1.9560    0.4850   -2.4300 ha        1 CK5      0.152000
     27 HN7         4.7780   -0.4780    2.5290 hn        1 CK5      0.439800
     28 H6          0.7180    2.1020    4.7660 h4        1 CK5      0.028100
     29 H5          2.1290    2.0900    6.8840 ha        1 CK5      0.156000
     30 H6A1        6.6660   -0.4990    5.6310 hc        1 CK5      0.061700
     31 H6A2        6.9440   -1.5630    7.0770 hc        1 CK5      0.061700
     32 H6A3        5.3430   -1.5980    6.2170 hc        1 CK5      0.061700
     33 H7A1        7.0450    2.3630   10.5460 hc        1 CK5      0.062033
     34 H7A2        5.9080    1.1980   11.3430 hc        1 CK5      0.062033
     35 H7A3        5.3100    2.8340   10.8200 hc        1 CK5      0.062033
@<TRIPOS>BOND
     1    1    2 1   
     2    1   22 1   
     3    2    3 ar  
     4    2    7 ar  
     5    3    4 ar  
     6    3   23 1   
     7    4    5 ar  
     8    4    8 1   
     9    5    6 ar  
    10    5   24 1   
    11    6    7 ar  
    12    6   25 1   
    13    7   26 1   
    14    8    9 1   
    15    8   27 1   
    16    9   10 ar  
    17    9   12 ar  
    18   10   11 ar  
    19   11   14 ar  
    20   11   28 1   
    21   12   13 ar  
    22   13   14 ar  
    23   13   15 1   
    24   14   29 1   
    25   15   16 2   
    26   15   18 1   
    27   16   17 1   
    28   16   20 1   
    29   17   30 1   
    30   17   31 1   
    31   17   32 1   
    32   18   19 1   
    33   19   20 2   
    34   19   21 1   
    35   21   33 1   
    36   21   34 1   
    37   21   35 1   
@<TRIPOS>SUBSTRUCTURE
     1 CK5         1 TEMP              0 ****  ****    0 ROOT
