@<TRIPOS>MOLECULE
CK5
   35    37     1     0     0
SMALL
bcc


@<TRIPOS>ATOM
      1 O7B         0.1340   -0.1390   -0.7120 oh        1 CK5     -0.498100
      2 C3B         1.4600   -0.0000   -0.3690 ca        1 CK5      0.135100
      3 C2B         1.9090   -0.1880    0.9440 ca        1 CK5     -0.192000
      4 C1B         3.2770   -0.0230    1.2310 ca        1 CK5      0.167600
      5 C6B         4.1670    0.3070    0.1830 ca        1 CK5     -0.202000
      6 C5B         3.6930    0.4720   -1.1150 ca        1 CK5     -0.083000
      7 C4B         2.3410    0.3280   -1.4110 ca        1 CK5     -0.167000
      8 N7          3.7910   -0.2750    2.5250 nu        1 CK5     -0.707300
      9 C2          3.3470    0.4360    3.6610 ca        1 CK5      0.874900
     10 N1          2.1080    1.0610    3.6380 nb        1 CK5     -0.736000
     11 C6          1.7230    1.6430    4.7850 ca        1 CK5      0.466200
     12 N3          4.1980    0.4000    4.7610 nb        1 CK5     -0.748000
     13 C4          3.7570    0.9950    5.8940 ca        1 CK5      0.580800
     14 C5          2.4970    1.6440    5.9540 ca        1 CK5     -0.421600
     15 C5A         4.5890    0.9960    7.0830 cc        1 CK5     -0.291900
     16 C1A         5.6650    0.1560    7.4000 cd        1 CK5      0.421600
     17 C6A         6.1780   -0.9410    6.5460 c3        1 CK5     -0.129400
     18 S4A         4.3310    2.1080    8.3320 ss        1 CK5     -0.099300
     19 C3A         5.6310    1.4440    9.2290 cc        1 CK5      0.417700
     20 N2A         6.2530    0.4220    8.6350 nd        1 CK5     -0.646000
     21 C7A         5.9950    1.9970   10.5510 c3        1 CK5     -0.136400
     22 H7B        -0.3660   -0.3310    0.0950 ho        1 CK5      0.422000
     23 H2B         1.1910   -0.4580    1.7310 ha        1 CK5      0.156000
     24 H6B         5.2410    0.4350    0.3830 ha        1 CK5      0.134000
     25 H5B         4.3990    0.7280   -1.9200 ha        1 CK5      0.136000
     26 H4B         1.9570    0.4630   -2.4300 ha        1 CK5      0.152000
     27 HN7         4.7680   -0.4980    2.5360 hn        1 CK5      0.439800
     28 H6          0.7340    2.1380    4.7550 h4        1 CK5      0.028100
     29 H5          2.1440    2.1230    6.8740 ha        1 CK5      0.156000
     30 H6A1        6.9340   -1.5670    7.0830 hc        1 CK5      0.061700
     31 H6A2        6.6590   -0.5070    5.6330 hc        1 CK5      0.061700
     32 H6A3        5.3320   -1.5980    6.2250 hc        1 CK5      0.061700
     33 H7A1        5.3190    2.8480   10.8150 hc        1 CK5      0.062033
     34 H7A2        5.9090    1.2090   11.3420 hc        1 CK5      0.062033
     35 H7A3        7.0520    2.3670   10.5420 hc        1 CK5      0.062033
@<TRIPOS>BOND
     1    1    2 1   
     2    1   22 1   
     3    2    3 ar  
     4    2    7 ar  
     5    3    4 ar  
     6    3   23 1   
     7    4    5 ar  
     8    4    8 1   
     9    5    6 ar  
    10    5   24 1   
    11    6    7 ar  
    12    6   25 1   
    13    7   26 1   
    14    8    9 1   
    15    8   27 1   
    16    9   10 ar  
    17    9   12 ar  
    18   10   11 ar  
    19   11   14 ar  
    20   11   28 1   
    21   12   13 ar  
    22   13   14 ar  
    23   13   15 1   
    24   14   29 1   
    25   15   16 2   
    26   15   18 1   
    27   16   17 1   
    28   16   20 1   
    29   17   30 1   
    30   17   31 1   
    31   17   32 1   
    32   18   19 1   
    33   19   20 2   
    34   19   21 1   
    35   21   33 1   
    36   21   34 1   
    37   21   35 1   
@<TRIPOS>SUBSTRUCTURE
     1 CK5         1 TEMP              0 ****  ****    0 ROOT
