@<TRIPOS>MOLECULE
CK5
   35    37     1     0     0
SMALL
bcc


@<TRIPOS>ATOM
      1 O7B        -1.5100   -0.8120   -6.1010 oh        1 CK5     -0.498100
      2 C3B        -0.4810   -0.3020   -5.3420 ca        1 CK5      0.135100
      3 C2B        -0.3310   -0.6210   -3.9860 ca        1 CK5     -0.192000
      4 C1B         0.7380   -0.0600   -3.2630 ca        1 CK5      0.167600
      5 C6B         1.6470    0.7950   -3.9290 ca        1 CK5     -0.202000
      6 C5B         1.4800    1.0810   -5.2800 ca        1 CK5     -0.083000
      7 C4B         0.4200    0.5460   -6.0030 ca        1 CK5     -0.167000
      8 N7          0.9760   -0.4110   -1.9130 nh        1 CK5     -0.707300
      9 C2          0.0180   -0.1850   -0.9000 ca        1 CK5      0.874900
     10 N1         -1.3200   -0.0450   -1.2380 nb        1 CK5     -0.736000
     11 C6         -2.1750    0.0810   -0.2110 ca        1 CK5      0.466200
     12 N3          0.5130   -0.1770    0.4010 nb        1 CK5     -0.747000
     13 C4         -0.3920   -0.0550    1.3990 ca        1 CK5      0.580800
     14 C5         -1.7800    0.0800    1.1330 ca        1 CK5     -0.421600
     15 C5A         0.0490   -0.0390    2.7810 cc        1 CK5     -0.291900
     16 C1A         1.2580   -0.5020    3.3190 cd        1 CK5      0.421600
     17 C6A         2.3590   -1.1220    2.5470 c3        1 CK5     -0.129400
     18 S4A        -0.9310    0.5930    4.0070 ss        1 CK5     -0.099300
     19 C3A         0.2620    0.2340    5.1830 cc        1 CK5      0.417700
     20 N2A         1.3660   -0.3410    4.6990 nd        1 CK5     -0.646000
     21 C7A         0.0370    0.5580    6.6080 c3        1 CK5     -0.136400
     22 H7B        -2.0720   -1.3490   -5.5220 ho        1 CK5      0.422000
     23 H2B        -1.0490   -1.3010   -3.5050 ha        1 CK5      0.156000
     24 H6B         2.4940    1.2400   -3.3850 ha        1 CK5      0.134000
     25 H5B         2.1980    1.7480   -5.7840 ha        1 CK5      0.136000
     26 H4B         0.2760    0.7730   -7.0690 ha        1 CK5      0.152000
     27 HN7         1.9240   -0.2740   -1.6210 hn        1 CK5      0.439800
     28 H6         -3.2390    0.1910   -0.4940 h4        1 CK5      0.028100
     29 H5         -2.5100    0.1780    1.9450 ha        1 CK5      0.156000
     30 H6A1        2.8360   -0.3500    1.8920 hc        1 CK5      0.061700
     31 H6A2        3.1440   -1.5540    3.2170 hc        1 CK5      0.061700
     32 H6A3        1.9540   -1.9390    1.8990 hc        1 CK5      0.061700
     33 H7A1        0.8250    1.2630    6.9780 hc        1 CK5      0.062033
     34 H7A2       -0.9650    1.0350    6.7440 hc        1 CK5      0.062033
     35 H7A3        0.0810   -0.3710    7.2320 hc        1 CK5      0.062033
@<TRIPOS>BOND
     1    1    2 1   
     2    1   22 1   
     3    2    3 ar  
     4    2    7 ar  
     5    3    4 ar  
     6    3   23 1   
     7    4    5 ar  
     8    4    8 1   
     9    5    6 ar  
    10    5   24 1   
    11    6    7 ar  
    12    6   25 1   
    13    7   26 1   
    14    8    9 1   
    15    8   27 1   
    16    9   10 ar  
    17    9   12 ar  
    18   10   11 ar  
    19   11   14 ar  
    20   11   28 1   
    21   12   13 ar  
    22   13   14 ar  
    23   13   15 1   
    24   14   29 1   
    25   15   16 2   
    26   15   18 1   
    27   16   17 1   
    28   16   20 1   
    29   17   30 1   
    30   17   31 1   
    31   17   32 1   
    32   18   19 1   
    33   19   20 2   
    34   19   21 1   
    35   21   33 1   
    36   21   34 1   
    37   21   35 1   
@<TRIPOS>SUBSTRUCTURE
     1 CK5         1 TEMP              0 ****  ****    0 ROOT
