@<TRIPOS>MOLECULE
CK5
   35    30     1     0     0
SMALL
bcc


@<TRIPOS>ATOM
      1 O7B        -6.4390    0.0520    0.9280 oh        1 CK5     -0.252000
      2 C3B        -5.3850    0.2330    0.0120 c2        1 CK5      0.090000
      3 C2B        -4.1230    0.5810    0.4670 c2        1 CK5     -0.192000
      4 C1B        -3.0730    0.7080   -0.4290 c1        1 CK5      0.086000
      5 C6B        -3.2860    0.4860   -1.7810 c1        1 CK5     -0.140250
      6 C5B        -4.5470    0.1390   -2.2360 c1        1 CK5     -0.140250
      7 C4B        -5.5970    0.0120   -1.3400 c1        1 CK5     -0.167000
      8 N7         -1.7900    1.1010    0.0320 n3        1 CK5     -0.228000
      9 C2         -0.8120    0.1170    0.3350 c2        1 CK5      0.155000
     10 N1         -1.1930   -1.0810    0.8620 n1        1 CK5     -0.205000
     11 C6         -0.2670   -1.9940    1.1920 c1        1 CK5     -0.140250
     12 N3          0.5090    0.3880    0.1430 n2        1 CK5     -0.231000
     13 C4          1.4370   -0.5230    0.4710 c1        1 CK5      0.135000
     14 C5          1.0570   -1.7230    0.9990 c1        1 CK5     -0.140250
     15 C5A         2.7760   -0.2740    0.2110 c1        1 CK5     -0.392000
     16 C1A         3.7190    0.3310    1.1210 c1        1 CK5     -0.037000
     17 C6A         3.4380    0.7280    2.5540 c2        1 CK5     -0.157000
     18 S4A         3.4890   -0.5000   -1.1170 ss        1 CK5      0.562000
     19 C3A         4.9380    0.0080   -0.9600 c1        1 CK5     -0.284000
     20 N2A         5.0860    0.5060    0.3700 n2        1 CK5     -0.114000
     21 C7A         6.0300   -0.0820   -2.0030 c2        1 CK5     -0.157000
     22 H7B        -6.7850    0.8430    1.1420 ho        1 CK5      0.221000
     23 H2B        -3.9730    0.7370    1.4190 ha        1 CK5      0.156000
     24 H6B        -2.5460    0.5760   -2.4120 ha        1 CK5      0.149250
     25 H5B        -4.6970   -0.0170   -3.1880 ha        1 CK5      0.149250
     26 H4B        -6.4860   -0.2330   -1.6610 ha        1 CK5      0.152000
     27 HN7        -1.6010    1.9840    0.1550 hn        1 CK5      0.235000
     28 H6         -0.5400   -2.8520    1.5690 ha        1 CK5      0.149250
     29 H5          1.7310   -2.3870    1.2390 ha        1 CK5      0.149250
     30 H6A1        4.2690    1.0300    2.9780 ha        1 CK5      0.098000
     31 H6A2        2.7800    1.4540    2.5690 ha        1 CK5      0.098000
     32 H6A3        3.0840   -0.0440    3.0430 ha        1 CK5      0.098000
     33 H7A1        5.7920   -0.7630   -2.6670 ha        1 CK5      0.098000
     34 H7A2        6.1300    0.7860   -2.4470 ha        1 CK5      0.098000
     35 H7A3        6.8750   -0.3270   -1.5710 ha        1 CK5      0.098000
@<TRIPOS>BOND
     1    1    2 1   
     2    1   22 1   
     3    2    3 1   
     4    2    7 1   
     5    3    4 1   
     6    3   23 1   
     7    4    8 1   
     8    5    6 1   
     9    5   24 1   
    10    6   25 1   
    11    7   26 1   
    12    8    9 1   
    13    8   27 1   
    14    9   10 1   
    15    9   12 1   
    16   11   14 1   
    17   11   28 1   
    18   12   13 1   
    19   14   29 1   
    20   15   16 1   
    21   15   18 1   
    22   16   20 1   
    23   17   30 1   
    24   17   31 1   
    25   17   32 1   
    26   18   19 1   
    27   19   20 1   
    28   21   33 1   
    29   21   34 1   
    30   21   35 1   
@<TRIPOS>SUBSTRUCTURE
     1 CK5         1 TEMP              0 ****  ****    0 ROOT
