@<TRIPOS>MOLECULE
CK6
   37    39     1     0     0
SMALL
bcc


@<TRIPOS>ATOM
      1 C6A        -0.1090    0.6510    0.1520 c3        1 CK6     -0.130400
      2 C1A         1.3230    0.2650    0.1290 cc        1 CK6      0.454600
      3 N2A         1.9990    0.0380    1.3210 nc        1 CK6     -0.708000
      4 C3A         3.2860   -0.2890    1.0710 cd        1 CK6      0.643300
      5 N7A         4.2860   -0.4760    2.0220 nh        1 CK6     -0.804900
      6 C8A         3.9280   -0.4730    3.4160 c3        1 CK6      0.172100
      7 C5A         2.0920    0.0950   -1.0270 cd        1 CK6     -0.307900
      8 S4A         3.6860   -0.3310   -0.6250 ss        1 CK6     -0.144300
      9 C4          1.7010    0.2310   -2.4150 ca        1 CK6      0.587800
     10 C5          2.7250    0.2970   -3.3980 ca        1 CK6     -0.425600
     11 N3          0.3910    0.2740   -2.7520 nb        1 CK6     -0.753000
     12 C2          0.0940    0.4080   -4.1040 ca        1 CK6      0.867900
     13 N1          1.0360    0.4630   -5.1220 nb        1 CK6     -0.737000
     14 C6          2.3200    0.4070   -4.7340 ca        1 CK6      0.465200
     15 N7         -1.2770    0.5680   -4.4200 nh        1 CK6     -0.695300
     16 C1B        -1.7640    0.2520   -5.7130 ca        1 CK6      0.084600
     17 C2B        -1.3650    0.9990   -6.8400 ca        1 CK6     -0.095000
     18 C3B        -1.9100    0.7290   -8.0910 ca        1 CK6     -0.176000
     19 C6B        -2.7300   -0.7680   -5.8740 ca        1 CK6     -0.095000
     20 C5B        -3.2840   -1.0330   -7.1190 ca        1 CK6     -0.176000
     21 C4B        -2.8680   -0.2840   -8.2310 ca        1 CK6      0.117100
     22 O7B        -3.4500   -0.5990   -9.4380 oh        1 CK6     -0.497100
     23 H6A1       -0.2590    1.5740   -0.4620 hc        1 CK6      0.062367
     24 H6A2       -0.7240   -0.1740   -0.2860 hc        1 CK6      0.062367
     25 H6A3       -0.4690    0.8510    1.1920 hc        1 CK6      0.062367
     26 H7A         4.9180   -1.2110    1.7710 hn        1 CK6      0.405800
     27 H8A1        4.8740   -0.5510    4.0140 h1        1 CK6      0.049367
     28 H8A2        3.2450   -1.3210    3.6950 h1        1 CK6      0.049367
     29 H8A3        3.4140    0.4920    3.6660 h1        1 CK6      0.049367
     30 H5          3.7850    0.2670   -3.1220 ha        1 CK6      0.154000
     31 H6          3.0620    0.4540   -5.5530 h4        1 CK6      0.026100
     32 HN7        -1.8970    0.2930   -3.6820 hn        1 CK6      0.431800
     33 H2B        -0.6160    1.8010   -6.7420 ha        1 CK6      0.146000
     34 H3B        -1.5890    1.3120   -8.9650 ha        1 CK6      0.144000
     35 H6B        -3.0590   -1.3640   -5.0090 ha        1 CK6      0.146000
     36 H5B        -4.0380   -1.8220   -7.2470 ha        1 CK6      0.144000
     37 H7B        -3.0710   -0.0160  -10.1110 ho        1 CK6      0.419000
@<TRIPOS>BOND
     1    1    2 1   
     2    1   23 1   
     3    1   24 1   
     4    1   25 1   
     5    2    3 1   
     6    2    7 2   
     7    3    4 2   
     8    4    5 1   
     9    4    8 1   
    10    5    6 1   
    11    5   26 1   
    12    6   27 1   
    13    6   28 1   
    14    6   29 1   
    15    7    8 1   
    16    7    9 1   
    17    9   10 ar  
    18    9   11 ar  
    19   10   14 ar  
    20   10   30 1   
    21   11   12 ar  
    22   12   13 ar  
    23   12   15 1   
    24   13   14 ar  
    25   14   31 1   
    26   15   16 1   
    27   15   32 1   
    28   16   17 ar  
    29   16   19 ar  
    30   17   18 ar  
    31   17   33 1   
    32   18   21 ar  
    33   18   34 1   
    34   19   20 ar  
    35   19   35 1   
    36   20   21 ar  
    37   20   36 1   
    38   21   22 1   
    39   22   37 1   
@<TRIPOS>SUBSTRUCTURE
     1 CK6         1 TEMP              0 ****  ****    0 ROOT
