@<TRIPOS>MOLECULE
CK6
   37    39     1     0     0
SMALL
bcc


@<TRIPOS>ATOM
      1 C6A        -0.1070    0.6390    0.1560 c3        1 CK6     -0.130400
      2 C1A         1.3260    0.2570    0.1290 cc        1 CK6      0.454600
      3 N2A         2.0040    0.0260    1.3190 nc        1 CK6     -0.708000
      4 C3A         3.2910   -0.2960    1.0660 cd        1 CK6      0.643300
      5 N7A         4.2930   -0.4850    2.0150 nu        1 CK6     -0.804900
      6 C8A         3.9370   -0.4890    3.4090 c3        1 CK6      0.172100
      7 C5A         2.0940    0.0940   -1.0280 cd        1 CK6     -0.307900
      8 S4A         3.6890   -0.3290   -0.6300 ss        1 CK6     -0.144300
      9 C4          1.7010    0.2350   -2.4150 ca        1 CK6      0.586800
     10 C5          2.7230    0.3130   -3.3990 ca        1 CK6     -0.425600
     11 N3          0.3900    0.2720   -2.7510 nb        1 CK6     -0.753000
     12 C2          0.0900    0.4120   -4.1010 ca        1 CK6      0.867900
     13 N1          1.0300    0.4770   -5.1200 nb        1 CK6     -0.737000
     14 C6          2.3160    0.4270   -4.7340 ca        1 CK6      0.465200
     15 N7         -1.2820    0.5650   -4.4150 nu        1 CK6     -0.695300
     16 C1B        -1.7680    0.2530   -5.7100 ca        1 CK6      0.084600
     17 C2B        -1.3750    1.0080   -6.8320 ca        1 CK6     -0.095000
     18 C3B        -1.9200    0.7410   -8.0840 ca        1 CK6     -0.176000
     19 C6B        -2.7280   -0.7720   -5.8750 ca        1 CK6     -0.095000
     20 C5B        -3.2820   -1.0330   -7.1200 ca        1 CK6     -0.176000
     21 C4B        -2.8710   -0.2760   -8.2290 ca        1 CK6      0.117100
     22 O7B        -3.4520   -0.5880   -9.4370 oh        1 CK6     -0.497100
     23 H6A1       -0.7200   -0.1870   -0.2840 hc        1 CK6      0.062367
     24 H6A2       -0.4660    0.8350    1.1960 hc        1 CK6      0.062367
     25 H6A3       -0.2610    1.5630   -0.4560 hc        1 CK6      0.062367
     26 H7A         4.9270   -1.2170    1.7590 hn        1 CK6      0.405800
     27 H8A1        4.8840   -0.5680    4.0050 h1        1 CK6      0.049367
     28 H8A2        3.2580   -1.3410    3.6850 h1        1 CK6      0.049367
     29 H8A3        3.4200    0.4730    3.6640 h1        1 CK6      0.049367
     30 H5          3.7830    0.2870   -3.1240 ha        1 CK6      0.154000
     31 H6          3.0570    0.4830   -5.5540 h4        1 CK6      0.026100
     32 HN7        -1.8990    0.2830   -3.6780 hn        1 CK6      0.431800
     33 H2B        -0.6310    1.8140   -6.7310 ha        1 CK6      0.146000
     34 H3B        -1.6030    1.3310   -8.9560 ha        1 CK6      0.144000
     35 H6B        -3.0530   -1.3750   -5.0130 ha        1 CK6      0.146000
     36 H5B        -4.0310   -1.8270   -7.2520 ha        1 CK6      0.144000
     37 H7B        -3.0770    0.0000  -10.1080 ho        1 CK6      0.419000
@<TRIPOS>BOND
     1    1    2 1   
     2    1   23 1   
     3    1   24 1   
     4    1   25 1   
     5    2    3 1   
     6    2    7 2   
     7    3    4 2   
     8    4    5 1   
     9    4    8 1   
    10    5    6 1   
    11    5   26 1   
    12    6   27 1   
    13    6   28 1   
    14    6   29 1   
    15    7    8 1   
    16    7    9 1   
    17    9   10 ar  
    18    9   11 ar  
    19   10   14 ar  
    20   10   30 1   
    21   11   12 ar  
    22   12   13 ar  
    23   12   15 1   
    24   13   14 ar  
    25   14   31 1   
    26   15   16 1   
    27   15   32 1   
    28   16   17 ar  
    29   16   19 ar  
    30   17   18 ar  
    31   17   33 1   
    32   18   21 ar  
    33   18   34 1   
    34   19   20 ar  
    35   19   35 1   
    36   20   21 ar  
    37   20   36 1   
    38   21   22 1   
    39   22   37 1   
@<TRIPOS>SUBSTRUCTURE
     1 CK6         1 TEMP              0 ****  ****    0 ROOT
