@<TRIPOS>MOLECULE
CK6
   39    41     1     0     0
SMALL
bcc


@<TRIPOS>ATOM
      1 C6A         1.5440   -2.6100    0.4120 c3        1 CK6     -0.156400
      2 C1A         2.0200   -1.2610    0.0230 cc        1 CK6      0.432600
      3 N2A         2.9300   -0.5840    0.8010 nc        1 CK6     -0.579000
      4 C3A         3.1950    0.6260    0.2400 cd        1 CK6      0.344300
      5 N7A         4.1470    1.5370    0.8660 n4        1 CK6     -0.701700
      6 C8A         3.6880    2.0210    2.1980 c3        1 CK6      0.085100
      7 C5A         1.6130   -0.5420   -1.1290 cd        1 CK6     -0.299900
      8 S4A         2.3460    0.9490   -1.1970 ss        1 CK6      0.194700
      9 C4          0.6760   -1.0240   -2.1340 ca        1 CK6      0.533800
     10 C5          0.7300   -2.3640   -2.5760 ca        1 CK6     -0.287600
     11 N3         -0.2430   -0.1420   -2.6310 nb        1 CK6     -0.686000
     12 C2         -1.1150   -0.6550   -3.5500 ca        1 CK6      0.731900
     13 N1         -1.1550   -1.9440   -4.0320 nb        1 CK6     -0.646000
     14 C6         -0.2220   -2.7740   -3.5360 ca        1 CK6      0.477200
     15 N7         -2.1470    0.2830   -4.1050 n4        1 CK6     -0.592100
     16 C1B        -1.8170    0.7140   -5.4650 ca        1 CK6     -0.133400
     17 C2B        -1.2040    1.9700   -5.6650 ca        1 CK6     -0.046000
     18 C3B        -0.9340    2.4020   -6.9510 ca        1 CK6     -0.176000
     19 C6B        -2.1440   -0.1120   -6.5580 ca        1 CK6     -0.046000
     20 C5B        -1.8730    0.3230   -7.8470 ca        1 CK6     -0.176000
     21 C4B        -1.2700    1.5780   -8.0510 ca        1 CK6      0.212100
     22 O7B        -0.9710    2.0750   -9.2790 oh        1 CK6     -0.450100
     23 H6A1        2.2650   -3.3870    0.0470 hc        1 CK6      0.086367
     24 H6A2        1.4690   -2.7090    1.5270 hc        1 CK6      0.086367
     25 H6A3        0.5360   -2.8050   -0.0300 hc        1 CK6      0.086367
     26 H7A         4.2970    2.3370    0.2380 hn        1 CK6      0.472300
     27 H8A1        2.6980    2.5390    2.0920 hx        1 CK6      0.121367
     28 H8A2        4.4580    2.7370    2.5970 hx        1 CK6      0.121367
     29 H8A3        3.5800    1.1470    2.8990 hx        1 CK6      0.121367
     30 H5          1.4860   -3.0670   -2.1950 ha        1 CK6      0.199000
     31 H6         -0.2450   -3.8150   -3.9270 h4        1 CK6      0.088100
     32 HN7        -2.2200    1.1100   -3.4940 hn        1 CK6      0.480800
     33 H2B        -0.9450    2.6210   -4.8140 ha        1 CK6      0.161000
     34 H3B        -0.4670    3.3830   -7.1370 ha        1 CK6      0.184500
     35 H6B        -2.6130   -1.1000   -6.4090 ha        1 CK6      0.161000
     36 H5B        -2.1360   -0.3140   -8.7070 ha        1 CK6      0.184500
     37 H7B        -1.2660    1.4500   -9.9650 ho        1 CK6      0.456000
     38 H7A2        5.0480    1.0410    0.9860 hn        1 CK6      0.472300
     39 H72        -3.0540   -0.2100   -4.1210 hn        1 CK6      0.480800
@<TRIPOS>BOND
     1    1    2 1   
     2    1   23 1   
     3    1   24 1   
     4    1   25 1   
     5    2    3 1   
     6    2    7 2   
     7    3    4 2   
     8    4    5 1   
     9    4    8 1   
    10    5    6 1   
    11    5   26 1   
    12    5   38 1   
    13    6   27 1   
    14    6   28 1   
    15    6   29 1   
    16    7    8 1   
    17    7    9 1   
    18    9   10 ar  
    19    9   11 ar  
    20   10   14 ar  
    21   10   30 1   
    22   11   12 ar  
    23   12   13 ar  
    24   12   15 1   
    25   13   14 ar  
    26   14   31 1   
    27   15   16 1   
    28   15   32 1   
    29   15   39 1   
    30   16   17 ar  
    31   16   19 ar  
    32   17   18 ar  
    33   17   33 1   
    34   18   21 ar  
    35   18   34 1   
    36   19   20 ar  
    37   19   35 1   
    38   20   21 ar  
    39   20   36 1   
    40   21   22 1   
    41   22   37 1   
@<TRIPOS>SUBSTRUCTURE
     1 CK6         1 TEMP              0 ****  ****    0 ROOT
