@<TRIPOS>MOLECULE
CK6
   37    33     1     0     0
SMALL
bcc


@<TRIPOS>ATOM
      1 C6A         1.5680   -2.8260    2.5510 c3        1 CK6     -0.159000
      2 C1A         1.7270   -1.3490    2.8130 c2        1 CK6     -0.009000
      3 N2A         2.3230   -0.7020    4.1190 n2        1 CK6     -0.171000
      4 C3A         2.3070    0.7190    3.9660 c1        1 CK6     -0.162000
      5 N7A         2.6430    1.6810    4.9790 n2        1 CK6     -0.244000
      6 C8A         3.8430    1.5270    5.7470 c3        1 CK6     -0.107000
      7 C5A         1.3670   -0.2900    1.9080 c2        1 CK6     -0.404000
      8 S4A         1.7110    1.0400    2.5830 ss        1 CK6      0.522000
      9 C4          0.9310   -0.4480    0.6080 c1        1 CK6      0.140000
     10 C5          1.8340   -0.5100   -0.4090 c1        1 CK6     -0.273000
     11 N3         -0.3800   -0.4110    0.3360 n1        1 CK6     -0.234000
     12 C2         -0.8100   -0.4340   -0.9550 c1        1 CK6      0.148000
     13 N1          0.0880   -0.4950   -1.9690 n1        1 CK6     -0.205000
     14 C6          1.4010   -0.5330   -1.7030 c1        1 CK6     -0.006000
     15 N7         -2.1940   -0.4170   -1.2390 n3        1 CK6     -0.216000
     16 C1B        -2.6620    0.0550   -2.5330 c2        1 CK6      0.002000
     17 C2B        -2.9460    1.3930   -2.7180 c2        1 CK6     -0.129000
     18 C3B        -3.4750    1.8350   -3.9350 c1        1 CK6     -0.146000
     19 C6B        -2.9000   -0.8570   -3.5590 c1        1 CK6     -0.061000
     20 C5B        -3.4250   -0.4210   -4.7680 c1        1 CK6     -0.206000
     21 C4B        -3.7130    0.9290   -4.9560 c1        1 CK6      0.073000
     22 O7B        -4.1500    1.3910   -6.2290 oh        1 CK6     -0.251000
     23 H6A1        0.6380   -3.0260    2.3910 hc        1 CK6      0.096667
     24 H6A2        2.0930   -3.0770    1.7660 hc        1 CK6      0.096667
     25 H6A3        1.8750   -3.3210    3.3130 hc        1 CK6      0.096667
     26 H7A         2.0800    2.4080    5.1350 hn        1 CK6      0.196000
     27 H8A1        3.8230    0.6520    6.2230 h1        1 CK6      0.087000
     28 H8A2        3.9060    2.2530    6.4020 h1        1 CK6      0.087000
     29 H8A3        4.6340    1.5570    5.1400 h1        1 CK6      0.087000
     30 H5          2.8020   -0.5360   -0.2100 ha        1 CK6      0.159000
     31 H6          2.0480   -0.5770   -2.4360 ha        1 CK6      0.164000
     32 HN7        -2.7930   -0.6280   -0.5890 hn        1 CK6      0.227000
     33 H2B        -2.7800    2.0280   -2.0020 ha        1 CK6      0.135000
     34 H3B        -3.6760    2.7860   -4.0650 ha        1 CK6      0.152000
     35 H6B        -2.6960   -1.8100   -3.4270 ha        1 CK6      0.156000
     36 H5B        -3.5970   -1.0800   -5.5090 ha        1 CK6      0.136000
     37 H7B        -3.4440    1.4930   -6.7680 ho        1 CK6      0.219000
@<TRIPOS>BOND
     1    1    2 1   
     2    1   23 1   
     3    1   24 1   
     4    1   25 1   
     5    2    3 1   
     6    2    7 1   
     7    3    4 1   
     8    4    8 1   
     9    5    6 1   
    10    5   26 1   
    11    6   27 1   
    12    6   28 1   
    13    6   29 1   
    14    7    8 1   
    15    7    9 1   
    16    9   10 1   
    17   10   30 1   
    18   11   12 1   
    19   12   15 1   
    20   13   14 1   
    21   14   31 1   
    22   15   16 1   
    23   15   32 1   
    24   16   17 1   
    25   16   19 1   
    26   17   18 1   
    27   17   33 1   
    28   18   34 1   
    29   19   35 1   
    30   20   21 1   
    31   20   36 1   
    32   21   22 1   
    33   22   37 1   
@<TRIPOS>SUBSTRUCTURE
     1 CK6         1 TEMP              0 ****  ****    0 ROOT
