@<TRIPOS>MOLECULE
CK6
   37    39     1     0     0
SMALL
bcc


@<TRIPOS>ATOM
      1 C6A         2.4640   -0.4830    2.2360 c3        1 CK6     -0.130400
      2 C1A         1.2430   -0.2020    3.0290 cc        1 CK6      0.456600
      3 N2A         1.3270   -0.0930    4.4110 nc        1 CK6     -0.709000
      4 C3A         0.1100    0.1710    4.9330 cd        1 CK6      0.645300
      5 N7A        -0.1670    0.4540    6.2680 nh        1 CK6     -0.805900
      6 C8A         0.8840    0.3160    7.2410 c3        1 CK6      0.173100
      7 C5A        -0.0430   -0.0390    2.5020 cd        1 CK6     -0.306900
      8 S4A        -1.1580    0.2770    3.7440 ss        1 CK6     -0.145300
      9 C4         -0.4880   -0.1110    1.1260 ca        1 CK6      0.589800
     10 C5         -1.8780    0.0260    0.8620 ca        1 CK6     -0.427600
     11 N3          0.4060   -0.2930    0.1260 nb        1 CK6     -0.755000
     12 C2         -0.1000   -0.3620   -1.1670 ca        1 CK6      0.868900
     13 N1         -1.4380   -0.2230   -1.5040 nb        1 CK6     -0.738000
     14 C6         -2.2840   -0.0360   -0.4770 ca        1 CK6      0.466200
     15 N7          0.8410   -0.6660   -2.1800 nh        1 CK6     -0.696300
     16 C1B         0.5900   -0.3180   -3.5310 ca        1 CK6      0.084600
     17 C2B        -0.4590   -0.9220   -4.2520 ca        1 CK6     -0.095000
     18 C3B        -0.6460   -0.6290   -5.5990 ca        1 CK6     -0.175500
     19 C6B         1.4500    0.5840   -4.1990 ca        1 CK6     -0.095000
     20 C5B         1.2730    0.8700   -5.5460 ca        1 CK6     -0.175500
     21 C4B         0.2180    0.2640   -6.2450 ca        1 CK6      0.117100
     22 O7B         0.0920    0.5940   -7.5750 oh        1 CK6     -0.497100
     23 H6A1        2.6450    0.3570    1.5190 hc        1 CK6      0.062367
     24 H6A2        3.3670   -0.5970    2.8870 hc        1 CK6      0.062367
     25 H6A3        2.3240   -1.4280    1.6530 hc        1 CK6      0.062367
     26 H7A        -1.0450    0.0760    6.5650 hn        1 CK6      0.406800
     27 H8A1        0.4870    0.6710    8.2290 h1        1 CK6      0.049367
     28 H8A2        1.2440   -0.7430    7.3490 h1        1 CK6      0.049367
     29 H8A3        1.7550    0.9570    6.9430 h1        1 CK6      0.049367
     30 H5         -2.6020    0.1780    1.6700 ha        1 CK6      0.153000
     31 H6         -3.3480    0.0730   -0.7570 h4        1 CK6      0.026100
     32 HN7         1.7940   -0.5270   -1.9030 hn        1 CK6      0.431800
     33 H2B        -1.1430   -1.6300   -3.7570 ha        1 CK6      0.145500
     34 H3B        -1.4710   -1.1000   -6.1520 ha        1 CK6      0.144000
     35 H6B         2.2780    1.0680   -3.6580 ha        1 CK6      0.145500
     36 H5B         1.9430    1.5670   -6.0690 ha        1 CK6      0.144000
     37 H7B        -0.6720    0.1160   -7.9290 ho        1 CK6      0.419000
@<TRIPOS>BOND
     1    1    2 1   
     2    1   23 1   
     3    1   24 1   
     4    1   25 1   
     5    2    3 1   
     6    2    7 2   
     7    3    4 2   
     8    4    5 1   
     9    4    8 1   
    10    5    6 1   
    11    5   26 1   
    12    6   27 1   
    13    6   28 1   
    14    6   29 1   
    15    7    8 1   
    16    7    9 1   
    17    9   10 ar  
    18    9   11 ar  
    19   10   14 ar  
    20   10   30 1   
    21   11   12 ar  
    22   12   13 ar  
    23   12   15 1   
    24   13   14 ar  
    25   14   31 1   
    26   15   16 1   
    27   15   32 1   
    28   16   17 ar  
    29   16   19 ar  
    30   17   18 ar  
    31   17   33 1   
    32   18   21 ar  
    33   18   34 1   
    34   19   20 ar  
    35   19   35 1   
    36   20   21 ar  
    37   20   36 1   
    38   21   22 1   
    39   22   37 1   
@<TRIPOS>SUBSTRUCTURE
     1 CK6         1 TEMP              0 ****  ****    0 ROOT
