@<TRIPOS>MOLECULE
CK7
   35    37     1     0     0
SMALL
bcc


@<TRIPOS>ATOM
      1 N7A         0.1670    0.6720   -0.1170 nh        1 CK7     -0.898500
      2 C3A         1.5100    0.3660    0.0510 cc        1 CK7      0.644300
      3 N2A         2.1220    0.1680    1.2410 nd        1 CK7     -0.714000
      4 C1A         3.4890    0.0140    1.0570 cd        1 CK7      0.462600
      5 C6A         4.3710   -0.2100    2.2270 c3        1 CK7     -0.131400
      6 S4A         2.5940    0.3540   -1.3090 ss        1 CK7     -0.132300
      7 C5A         3.9130    0.0740   -0.2770 cc        1 CK7     -0.315900
      8 C4          5.2450   -0.0710   -0.8230 ca        1 CK7      0.591800
      9 N3          6.3140   -0.1880    0.0020 nb        1 CK7     -0.749000
     10 C5          5.3960   -0.0750   -2.2360 ca        1 CK7     -0.420600
     11 C6          6.6960   -0.2020   -2.7430 ca        1 CK7      0.470200
     12 N1          7.7860   -0.3270   -1.9670 nb        1 CK7     -0.740000
     13 C2          7.5560   -0.3320   -0.6010 ca        1 CK7      0.867900
     14 N7          8.6430   -0.5530    0.2820 nh        1 CK7     -0.708300
     15 C1B         9.9790   -0.3500   -0.1330 ca        1 CK7      0.128600
     16 C6B        10.8020    0.5660    0.5580 ca        1 CK7     -0.130000
     17 C2B        10.5340   -1.1200   -1.1770 ca        1 CK7     -0.049000
     18 C3B        11.8830   -0.9430   -1.5100 ca        1 CK7     -0.164200
     19 N7B        12.4690   -1.7500   -2.6160 no        1 CK7      0.313200
     20 O8B        13.6140   -1.5560   -2.9300 o         1 CK7     -0.207000
     21 O9B        11.7890   -2.5740   -3.1640 o         1 CK7     -0.207000
     22 C4B        12.6990   -0.0300   -0.8230 ca        1 CK7     -0.082000
     23 C5B        12.1430    0.7120    0.2140 ca        1 CK7     -0.125000
     24 H7A1       -0.2500    0.2430   -0.9140 hn        1 CK7      0.411300
     25 H7A2       -0.3930    0.6170    0.7080 hn        1 CK7      0.411300
     26 H6A1        5.1110    0.6260    2.3010 hc        1 CK7      0.063367
     27 H6A2        4.9270   -1.1720    2.1000 hc        1 CK7      0.063367
     28 H6A3        3.7910   -0.2570    3.1830 hc        1 CK7      0.063367
     29 H5          4.5320    0.0200   -2.9040 ha        1 CK7      0.156000
     30 H6          6.8900   -0.2040   -3.8320 h4        1 CK7      0.033100
     31 HN7         8.4650   -0.2860    1.2310 hn        1 CK7      0.439800
     32 H6B        10.3910    1.1730    1.3810 ha        1 CK7      0.143000
     33 H2B         9.9210   -1.8540   -1.7310 ha        1 CK7      0.192000
     34 H4B        13.7590    0.0950   -1.1020 ha        1 CK7      0.172000
     35 H5B        12.7710    1.4300    0.7640 ha        1 CK7      0.149000
@<TRIPOS>BOND
     1    1    2 1   
     2    1   24 1   
     3    1   25 1   
     4    2    3 2   
     5    2    6 1   
     6    3    4 1   
     7    4    5 1   
     8    4    7 2   
     9    5   26 1   
    10    5   27 1   
    11    5   28 1   
    12    6    7 1   
    13    7    8 1   
    14    8    9 ar  
    15    8   10 ar  
    16    9   13 ar  
    17   10   11 ar  
    18   10   29 1   
    19   11   12 ar  
    20   11   30 1   
    21   12   13 ar  
    22   13   14 1   
    23   14   15 1   
    24   14   31 1   
    25   15   16 ar  
    26   15   17 ar  
    27   16   23 ar  
    28   16   32 1   
    29   17   18 ar  
    30   17   33 1   
    31   18   19 1   
    32   18   22 ar  
    33   19   20 1   
    34   19   21 1   
    35   22   23 ar  
    36   22   34 1   
    37   23   35 1   
@<TRIPOS>SUBSTRUCTURE
     1 CK7         1 TEMP              0 ****  ****    0 ROOT
