@<TRIPOS>MOLECULE
CK7
   35    37     1     0     0
SMALL
bcc


@<TRIPOS>ATOM
      1 N7A         7.0850   -0.2900    0.3870 nh        1 CK7     -0.898500
      2 C3A         5.7540    0.0600    0.2060 cc        1 CK7      0.642300
      3 N2A         5.3190    1.1670   -0.4400 nd        1 CK7     -0.713000
      4 C1A         3.9360    1.1410   -0.5530 cd        1 CK7      0.460600
      5 C6A         3.2280    2.2480   -1.2400 c3        1 CK7     -0.131400
      6 S4A         4.4800   -1.0200    0.6900 ss        1 CK7     -0.131300
      7 C5A         3.3200    0.0240    0.0240 cc        1 CK7     -0.315900
      8 C4          1.9120   -0.3020    0.1050 ca        1 CK7      0.589800
      9 N3          0.9760    0.6420   -0.1580 nb        1 CK7     -0.748000
     10 C5          1.5480   -1.6230    0.4810 ca        1 CK7     -0.418600
     11 C6          0.1800   -1.9090    0.5760 ca        1 CK7      0.469200
     12 N1         -0.7850   -1.0100    0.3210 nb        1 CK7     -0.739000
     13 C2         -0.3520    0.2490   -0.0610 ca        1 CK7      0.866900
     14 N7         -1.3080    1.2240   -0.4400 nh        1 CK7     -0.708300
     15 C1B        -2.6620    1.1160   -0.0480 ca        1 CK7      0.128600
     16 C6B        -3.2650    2.1520    0.7000 ca        1 CK7     -0.131000
     17 C2B        -3.4500    0.0260   -0.4710 ca        1 CK7     -0.049000
     18 C3B        -4.8080   -0.0080   -0.1250 ca        1 CK7     -0.164200
     19 N7B        -5.6400   -1.1610   -0.5650 no        1 CK7      0.312200
     20 O8B        -6.7910   -1.2090   -0.2200 o         1 CK7     -0.206500
     21 O9B        -5.1450   -2.0130   -1.2530 o         1 CK7     -0.206500
     22 C4B        -5.4050    1.0210    0.6200 ca        1 CK7     -0.082000
     23 C5B        -4.6190    2.0980    1.0190 ca        1 CK7     -0.125000
     24 H7A1        7.7520    0.4010    0.1120 hn        1 CK7      0.410800
     25 H7A2        7.2780   -0.7000    1.2750 hn        1 CK7      0.410800
     26 H6A1        2.5460    1.8290   -2.0230 hc        1 CK7      0.063033
     27 H6A2        2.6140    2.8150   -0.4970 hc        1 CK7      0.063033
     28 H6A3        3.9400    2.9570   -1.7300 hc        1 CK7      0.063033
     29 H5          2.3060   -2.3880    0.6850 ha        1 CK7      0.157000
     30 H6         -0.1770   -2.9140    0.8720 h4        1 CK7      0.033100
     31 HN7        -0.9590    2.1630   -0.4480 hn        1 CK7      0.439800
     32 H6B        -2.6700    3.0160    1.0360 ha        1 CK7      0.143000
     33 H2B        -3.0130   -0.7950   -1.0680 ha        1 CK7      0.192000
     34 H4B        -6.4750    0.9750    0.8830 ha        1 CK7      0.172000
     35 H5B        -5.0740    2.9150    1.6010 ha        1 CK7      0.149000
@<TRIPOS>BOND
     1    1    2 1   
     2    1   24 1   
     3    1   25 1   
     4    2    3 2   
     5    2    6 1   
     6    3    4 1   
     7    4    5 1   
     8    4    7 2   
     9    5   26 1   
    10    5   27 1   
    11    5   28 1   
    12    6    7 1   
    13    7    8 1   
    14    8    9 ar  
    15    8   10 ar  
    16    9   13 ar  
    17   10   11 ar  
    18   10   29 1   
    19   11   12 ar  
    20   11   30 1   
    21   12   13 ar  
    22   13   14 1   
    23   14   15 1   
    24   14   31 1   
    25   15   16 ar  
    26   15   17 ar  
    27   16   23 ar  
    28   16   32 1   
    29   17   18 ar  
    30   17   33 1   
    31   18   19 1   
    32   18   22 ar  
    33   19   20 1   
    34   19   21 1   
    35   22   23 ar  
    36   22   34 1   
    37   23   35 1   
@<TRIPOS>SUBSTRUCTURE
     1 CK7         1 TEMP              0 ****  ****    0 ROOT
