@<TRIPOS>MOLECULE
CK7
   35    31     1     0     0
SMALL
bcc


@<TRIPOS>ATOM
      1 N7A        -5.7410   -1.0800    2.9540 n3        1 CK7     -0.289000
      2 C3A        -4.8030   -0.2390    2.3090 c2        1 CK7     -0.164000
      3 N2A        -4.7930    1.1880    2.3430 n2        1 CK7     -0.176000
      4 C1A        -3.6330    1.6990    1.4140 c1        1 CK7     -0.002000
      5 C6A        -3.2670    3.1460    1.1690 c2        1 CK7     -0.160000
      6 S4A        -3.6670   -0.6990    1.3700 ss        1 CK7      0.538000
      7 C5A        -2.9720    0.5520    0.8420 c2        1 CK7     -0.416000
      8 C4         -1.8440    0.5790    0.0400 c1        1 CK7      0.144000
      9 N3         -0.6320    0.3930    0.5820 n1        1 CK7     -0.226000
     10 C5         -1.9690    0.7450   -1.3080 c1        1 CK7     -0.265000
     11 C6         -0.8610    0.7220   -2.1020 c1        1 CK7     -0.004000
     12 N1          0.3500    0.5370   -1.5580 n1        1 CK7     -0.211000
     13 C2          0.4730    0.3710   -0.2120 c1        1 CK7      0.147000
     14 N7          1.7580    0.2270    0.3680 n3        1 CK7     -0.225000
     15 C1B         2.8290   -0.2920   -0.4010 c2        1 CK7      0.045000
     16 C6B         3.6080    0.5610   -1.1670 c2        1 CK7     -0.066000
     17 C2B         3.1630   -1.6350   -0.3030 c1        1 CK7     -0.114000
     18 C3B         4.2750   -2.1230   -0.9700 c1        1 CK7     -0.115000
     19 N7B         4.6470   -3.4850   -0.8260 no        1 CK7      0.567000
     20 O8B         5.8930   -3.8950   -1.2010 o         1 CK7     -0.358000
     21 O9B         3.8620   -4.2850   -0.3390 o         1 CK7     -0.358000
     22 C4B         5.0540   -1.2680   -1.7360 c1        1 CK7     -0.079000
     23 C5B         4.7210    0.0730   -1.8340 c1        1 CK7     -0.131000
     24 H7A1       -5.6460   -1.9870    2.9120 hn        1 CK7      0.199500
     25 H7A2       -6.4330   -0.7140    3.4290 hn        1 CK7      0.199500
     26 H6A1       -2.3010    3.2640    1.2910 ha        1 CK7      0.097667
     27 H6A2       -3.7490    3.7170    1.8040 ha        1 CK7      0.097667
     28 H6A3       -3.5140    3.3940    0.2550 ha        1 CK7      0.097667
     29 H5         -2.8500    0.8800   -1.7040 ha        1 CK7      0.163000
     30 H6         -0.9490    0.8410   -3.0670 ha        1 CK7      0.168000
     31 HN7         1.8990    0.4810    1.2330 hn        1 CK7      0.236000
     32 H6B         3.3730    1.5060   -1.2360 ha        1 CK7      0.167000
     33 H2B         2.6100   -2.2380    0.2290 ha        1 CK7      0.171000
     34 H4B         5.8390   -1.6130   -2.2070 ha        1 CK7      0.172000
     35 H5B         5.2690    0.6740   -2.3730 ha        1 CK7      0.151000
@<TRIPOS>BOND
     1    1    2 1   
     2    1   24 1   
     3    1   25 1   
     4    2    3 1   
     5    2    6 1   
     6    3    4 1   
     7    4    7 1   
     8    5   26 1   
     9    5   27 1   
    10    5   28 1   
    11    6    7 1   
    12    7    8 1   
    13    8   10 1   
    14    9   13 1   
    15   10   29 1   
    16   11   12 1   
    17   11   30 1   
    18   13   14 1   
    19   14   15 1   
    20   14   31 1   
    21   15   16 1   
    22   15   17 1   
    23   16   23 1   
    24   16   32 1   
    25   17   33 1   
    26   18   19 1   
    27   18   22 1   
    28   19   20 1   
    29   19   21 1   
    30   22   34 1   
    31   23   35 1   
@<TRIPOS>SUBSTRUCTURE
     1 CK7         1 TEMP              0 ****  ****    0 ROOT
