@<TRIPOS>MOLECULE
CK7
   35    37     1     0     0
SMALL
bcc


@<TRIPOS>ATOM
      1 N7A         0.1630    0.6460   -0.1310 nh        1 CK7     -0.898500
      2 C3A         1.5080    0.3530    0.0430 cc        1 CK7      0.644300
      3 N2A         2.1230    0.1920    1.2370 nd        1 CK7     -0.714000
      4 C1A         3.4900    0.0420    1.0550 cd        1 CK7      0.462600
      5 C6A         4.3750   -0.1430    2.2300 c3        1 CK7     -0.131400
      6 S4A         2.5900    0.3110   -1.3170 ss        1 CK7     -0.132300
      7 C5A         3.9120    0.0690   -0.2800 cc        1 CK7     -0.315900
      8 C4          5.2450   -0.0820   -0.8240 ca        1 CK7      0.591800
      9 N3          6.3140   -0.1850    0.0020 nb        1 CK7     -0.749000
     10 C5          5.3960   -0.1070   -2.2380 ca        1 CK7     -0.420600
     11 C6          6.6950   -0.2400   -2.7420 ca        1 CK7      0.470200
     12 N1          7.7850   -0.3520   -1.9650 nb        1 CK7     -0.740000
     13 C2          7.5560   -0.3370   -0.5990 ca        1 CK7      0.867900
     14 N7          8.6430   -0.5440    0.2870 nh        1 CK7     -0.708300
     15 C1B         9.9780   -0.3440   -0.1310 ca        1 CK7      0.128600
     16 C6B        10.8010    0.5830    0.5470 ca        1 CK7     -0.130000
     17 C2B        10.5350   -1.1280   -1.1640 ca        1 CK7     -0.049000
     18 C3B        11.8840   -0.9540   -1.5000 ca        1 CK7     -0.164200
     19 N7B        12.4710   -1.7750   -2.5950 no        1 CK7      0.313200
     20 O8B        13.6150   -1.5840   -2.9120 o         1 CK7     -0.207000
     21 O9B        11.7920   -2.6070   -3.1310 o         1 CK7     -0.207000
     22 C4B        12.6980   -0.0300   -0.8270 ca        1 CK7     -0.082000
     23 C5B        12.1410    0.7260    0.2000 ca        1 CK7     -0.125000
     24 H7A1       -0.2530    0.1910   -0.9150 hn        1 CK7      0.411300
     25 H7A2       -0.3960    0.6090    0.6960 hn        1 CK7      0.411300
     26 H6A1        3.7980   -0.1610    3.1880 hc        1 CK7      0.063033
     27 H6A2        4.9330   -1.1080    2.1310 hc        1 CK7      0.063033
     28 H6A3        5.1140    0.6960    2.2760 hc        1 CK7      0.063033
     29 H5          4.5310   -0.0230   -2.9070 ha        1 CK7      0.156000
     30 H6          6.8880   -0.2580   -3.8320 h4        1 CK7      0.033100
     31 HN7         8.4650   -0.2630    1.2320 hn        1 CK7      0.439800
     32 H6B        10.3890    1.2010    1.3610 ha        1 CK7      0.143000
     33 H2B         9.9230   -1.8710   -1.7080 ha        1 CK7      0.192000
     34 H4B        13.7580    0.0930   -1.1070 ha        1 CK7      0.172000
     35 H5B        12.7680    1.4520    0.7400 ha        1 CK7      0.149000
@<TRIPOS>BOND
     1    1    2 1   
     2    1   24 1   
     3    1   25 1   
     4    2    3 2   
     5    2    6 1   
     6    3    4 1   
     7    4    5 1   
     8    4    7 2   
     9    5   26 1   
    10    5   27 1   
    11    5   28 1   
    12    6    7 1   
    13    7    8 1   
    14    8    9 ar  
    15    8   10 ar  
    16    9   13 ar  
    17   10   11 ar  
    18   10   29 1   
    19   11   12 ar  
    20   11   30 1   
    21   12   13 ar  
    22   13   14 1   
    23   14   15 1   
    24   14   31 1   
    25   15   16 ar  
    26   15   17 ar  
    27   16   23 ar  
    28   16   32 1   
    29   17   18 ar  
    30   17   33 1   
    31   18   19 1   
    32   18   22 ar  
    33   19   20 1   
    34   19   21 1   
    35   22   23 ar  
    36   22   34 1   
    37   23   35 1   
@<TRIPOS>SUBSTRUCTURE
     1 CK7         1 TEMP              0 ****  ****    0 ROOT
