@<TRIPOS>MOLECULE
CK8
   42    36     1     0     0
SMALL
bcc


@<TRIPOS>ATOM
      1 C6         -2.4350   -0.3770   -0.7280 c1        1 CK8     -0.139000
      2 N1         -1.0740   -0.2680   -0.7110 n1        1 CK8     -0.200000
      3 C2         -0.4020   -0.2250    0.4900 c1        1 CK8      0.149000
      4 N3         -1.1020   -0.2900    1.6750 n1        1 CK8     -0.233000
      5 C4         -2.4580   -0.3980    1.6600 c1        1 CK8      0.132000
      6 C5         -3.1350   -0.4420    0.4530 c1        1 CK8     -0.139000
      7 C5A        -3.1640   -0.3140    2.8410 c1        1 CK8     -0.388000
      8 C1A        -3.5640   -1.4240    3.6730 c1        1 CK8     -0.039000
      9 N2A        -4.2280   -0.8520    4.9640 n2        1 CK8     -0.114000
     10 C3A        -4.2150    0.5740    4.8880 c1        1 CK8     -0.286000
     11 S4A        -3.5520    0.9710    3.5610 ss        1 CK8      0.560000
     12 C6A        -3.5110   -2.8650    3.2870 c2        1 CK8     -0.156500
     13 C7A        -4.7730    1.5120    5.9080 c2        1 CK8     -0.156500
     14 N7          1.0420   -0.2500    0.5050 n3        1 CK8     -0.216000
     15 C1B         1.7850   -0.0070   -0.7190 c2        1 CK8      0.010000
     16 C2B         2.3880   -1.0670   -1.3890 c2        1 CK8     -0.080000
     17 C3B         3.1610   -0.8230   -2.5220 c1        1 CK8     -0.148000
     18 C4B         3.3290    0.4780   -2.9820 c1        1 CK8      0.046000
     19 C5B         2.7300    1.5300   -2.3150 c1        1 CK8     -0.168000
     20 C6B         1.9540    1.2870   -1.1780 c1        1 CK8     -0.138000
     21 N7B         4.1690    0.7360   -4.1060 n3        1 CK8     -0.242000
     22 C8B         3.6510    1.4530   -5.2380 c3        1 CK8     -0.103500
     23 C9B         5.5860    0.3260   -4.0780 c3        1 CK8     -0.103500
     24 H6         -2.9150   -0.4080   -1.5870 ha        1 CK8      0.162500
     25 H5         -4.0940   -0.5190    0.4420 ha        1 CK8      0.162500
     26 H6A1       -4.1990   -3.0480    2.6270 ha        1 CK8      0.097500
     27 H6A2       -2.6410   -3.0670    2.9120 ha        1 CK8      0.097500
     28 H6A3       -3.6620   -3.4240    4.0830 ha        1 CK8      0.097500
     29 H7A1       -4.2860    2.3410    5.8830 ha        1 CK8      0.097500
     30 H7A2       -5.7170    1.6820    5.7140 ha        1 CK8      0.097500
     31 H7A3       -4.6890    1.1100    6.8040 ha        1 CK8      0.097500
     32 HN7         1.4950   -0.4210    1.2970 hn        1 CK8      0.228000
     33 H2B         2.2690   -1.9740   -1.0690 ha        1 CK8      0.154000
     34 H3B         3.5760   -1.5520   -2.9840 ha        1 CK8      0.140000
     35 H5B         2.8510    2.4570   -2.6430 ha        1 CK8      0.134000
     36 H6B         1.5400    2.0150   -0.7180 ha        1 CK8      0.130000
     37 H8B1        4.3120    1.4500   -5.9550 h1        1 CK8      0.076000
     38 H8B2        3.4560    2.3730   -4.9790 h1        1 CK8      0.076000
     39 H8B3        2.8180    1.0160   -5.5540 h1        1 CK8      0.076000
     40 H9B1        6.0040    0.6420   -3.2420 h1        1 CK8      0.076000
     41 H9B2        5.6440   -0.6540   -4.1230 h1        1 CK8      0.076000
     42 H9B3        6.0560    0.7170   -4.8470 h1        1 CK8      0.076000
@<TRIPOS>BOND
     1    1    6 1   
     2    1   24 1   
     3    2    3 1   
     4    3   14 1   
     5    4    5 1   
     6    6   25 1   
     7    7    8 1   
     8    7   11 1   
     9    8    9 1   
    10    9   10 1   
    11   10   11 1   
    12   12   26 1   
    13   12   27 1   
    14   12   28 1   
    15   13   29 1   
    16   13   30 1   
    17   13   31 1   
    18   14   15 1   
    19   14   32 1   
    20   15   16 1   
    21   15   20 1   
    22   16   17 1   
    23   16   33 1   
    24   17   34 1   
    25   18   19 1   
    26   18   21 1   
    27   19   35 1   
    28   20   36 1   
    29   21   22 1   
    30   21   23 1   
    31   22   37 1   
    32   22   38 1   
    33   22   39 1   
    34   23   40 1   
    35   23   41 1   
    36   23   42 1   
@<TRIPOS>SUBSTRUCTURE
     1 CK8         1 TEMP              0 ****  ****    0 ROOT
