@<TRIPOS>MOLECULE
CK8
   42    44     1     0     0
SMALL
bcc


@<TRIPOS>ATOM
      1 C6         -0.2290   -0.6100    0.1810 ca        1 CK8      0.464200
      2 N1          1.0930   -0.7270   -0.0090 nb        1 CK8     -0.732000
      3 C2          1.8830   -0.6040    1.1280 ca        1 CK8      0.868900
      4 N3          1.3980   -0.3430    2.4050 nb        1 CK8     -0.750000
      5 C4          0.0550   -0.2420    2.5410 ca        1 CK8      0.577800
      6 C5         -0.8190   -0.3720    1.4310 ca        1 CK8     -0.425600
      7 C5A        -0.5230    0.0270    3.8450 cc        1 CK8     -0.287900
      8 C1A         0.0440   -0.1670    5.1110 cd        1 CK8      0.418600
      9 N2A        -0.7870    0.1920    6.1700 nd        1 CK8     -0.646000
     10 C3A        -1.9530    0.6490    5.7050 cc        1 CK8      0.415700
     11 S4A        -2.0860    0.6570    3.9970 ss        1 CK8     -0.101300
     12 C6A         1.3990   -0.7070    5.3700 c3        1 CK8     -0.128400
     13 C7A        -3.0700    1.1210    6.5510 c3        1 CK8     -0.135400
     14 N7          3.2750   -0.8240    1.0300 nh        1 CK8     -0.692300
     15 C1B         3.9550   -0.6410   -0.2020 ca        1 CK8      0.073600
     16 C2B         3.7090   -1.4820   -1.3040 ca        1 CK8     -0.095500
     17 C3B         4.4340   -1.3420   -2.4790 ca        1 CK8     -0.179000
     18 C4B         5.4530   -0.3680   -2.6060 ca        1 CK8      0.154600
     19 C5B         5.6900    0.4750   -1.4940 ca        1 CK8     -0.179000
     20 C6B         4.9580    0.3420   -0.3240 ca        1 CK8     -0.095500
     21 N7B         6.2530   -0.2900   -3.7640 nh        1 CK8     -0.651000
     22 C8B         6.9790    0.9370   -3.9750 c3        1 CK8      0.183100
     23 C9B         5.7550   -0.9390   -4.9500 c3        1 CK8      0.183100
     24 H6         -0.8480   -0.7130   -0.7300 h4        1 CK8      0.026100
     25 H5         -1.9050   -0.2920    1.5460 ha        1 CK8      0.154000
     26 H6A1        1.5600   -0.9220    6.4560 hc        1 CK8      0.061367
     27 H6A2        2.1660    0.0370    5.0370 hc        1 CK8      0.061367
     28 H6A3        1.5470   -1.6530    4.7920 hc        1 CK8      0.061367
     29 H7A1       -3.4210    0.3020    7.2280 hc        1 CK8      0.061367
     30 H7A2       -3.9260    1.4510    5.9120 hc        1 CK8      0.061367
     31 H7A3       -2.7420    1.9830    7.1870 hc        1 CK8      0.061367
     32 HN7         3.7950   -0.5020    1.8230 hn        1 CK8      0.431800
     33 H2B         2.9300   -2.2600   -1.2470 ha        1 CK8      0.141000
     34 H3B         4.1960   -2.0200   -3.3130 ha        1 CK8      0.135000
     35 H5B         6.4650    1.2550   -1.5350 ha        1 CK8      0.135000
     36 H6B         5.1780    1.0190    0.5170 ha        1 CK8      0.141000
     37 H8B1        6.3190    1.8460   -3.9140 h1        1 CK8      0.038033
     38 H8B2        7.7800    1.0230   -3.1930 h1        1 CK8      0.038033
     39 H8B3        7.4730    0.9210   -4.9810 h1        1 CK8      0.038033
     40 H9B1        4.7180   -0.6020   -5.2260 h1        1 CK8      0.038033
     41 H9B2        6.4400   -0.7310   -5.8140 h1        1 CK8      0.038033
     42 H9B3        5.7390   -2.0480   -4.7770 h1        1 CK8      0.038033
@<TRIPOS>BOND
     1    1    2 ar  
     2    1    6 ar  
     3    1   24 1   
     4    2    3 ar  
     5    3    4 ar  
     6    3   14 1   
     7    4    5 ar  
     8    5    6 ar  
     9    5    7 1   
    10    6   25 1   
    11    7    8 2   
    12    7   11 1   
    13    8    9 1   
    14    8   12 1   
    15    9   10 2   
    16   10   11 1   
    17   10   13 1   
    18   12   26 1   
    19   12   27 1   
    20   12   28 1   
    21   13   29 1   
    22   13   30 1   
    23   13   31 1   
    24   14   15 1   
    25   14   32 1   
    26   15   16 ar  
    27   15   20 ar  
    28   16   17 ar  
    29   16   33 1   
    30   17   18 ar  
    31   17   34 1   
    32   18   19 ar  
    33   18   21 1   
    34   19   20 ar  
    35   19   35 1   
    36   20   36 1   
    37   21   22 1   
    38   21   23 1   
    39   22   37 1   
    40   22   38 1   
    41   22   39 1   
    42   23   40 1   
    43   23   41 1   
    44   23   42 1   
@<TRIPOS>SUBSTRUCTURE
     1 CK8         1 TEMP              0 ****  ****    0 ROOT
