@<TRIPOS>MOLECULE
CK8
   44    46     1     0     0
SMALL
bcc


@<TRIPOS>ATOM
      1 C6          0.4720    2.3070    0.5920 ca        1 CK8      0.466200
      2 N1          1.8150    2.1670    0.4690 nb        1 CK8     -0.704000
      3 C2          2.3770    1.3380    1.3990 ca        1 CK8      0.708900
      4 N3          1.7710    0.6280    2.3960 nb        1 CK8     -0.704000
      5 C4          0.4150    0.7920    2.4970 ca        1 CK8      0.629800
      6 C5         -0.2690    1.6520    1.5790 ca        1 CK8     -0.324600
      7 C5A        -0.3330    0.1140    3.5110 cc        1 CK8     -0.388900
      8 C1A         0.1390   -0.7240    4.5520 cd        1 CK8      0.485600
      9 N2A        -0.8560   -1.2180    5.3740 nd        1 CK8     -0.642000
     10 C3A        -2.0590   -0.7690    4.9790 cc        1 CK8      0.486700
     11 S4A        -2.0210    0.2530    3.6140 ss        1 CK8     -0.043300
     12 C6A         1.5550   -1.0760    4.8050 c3        1 CK8     -0.141400
     13 C7A        -3.3340   -1.1040    5.6440 c3        1 CK8     -0.161400
     14 N7          3.8770    1.1950    1.3340 n4        1 CK8     -0.622100
     15 C1B         4.3060    0.5090    0.1100 ca        1 CK8      0.015600
     16 C2B         4.6150   -0.8620    0.1520 ca        1 CK8     -0.067000
     17 C3B         5.0470   -1.5080   -1.0040 ca        1 CK8     -0.088500
     18 C4B         5.1670   -0.7890   -2.2080 ca        1 CK8      0.004600
     19 C5B         4.8450    0.5780   -2.2490 ca        1 CK8     -0.088500
     20 C6B         4.4120    1.2270   -1.0940 ca        1 CK8     -0.067000
     21 N7B         5.6320   -1.4850   -3.4220 n4        1 CK8     -0.559800
     22 C8B         6.9160   -0.9080   -3.9200 c3        1 CK8      0.085100
     23 C9B         4.5900   -1.4690   -4.4900 c3        1 CK8      0.085100
     24 H6         -0.0020    2.9870   -0.1450 h4        1 CK8      0.074100
     25 H5         -1.3590    1.7970    1.6570 ha        1 CK8      0.198000
     26 H6A1        1.6630   -1.7350    5.7050 hc        1 CK8      0.067033
     27 H6A2        2.1480   -0.1430    4.9800 hc        1 CK8      0.067033
     28 H6A3        1.9710   -1.6180    3.9200 hc        1 CK8      0.067033
     29 H7A1       -4.1920   -0.6160    5.1190 hc        1 CK8      0.087367
     30 H7A2       -3.3190   -0.7580    6.7110 hc        1 CK8      0.087367
     31 H7A3       -3.4940   -2.2140    5.6470 hc        1 CK8      0.087367
     32 HN7         4.2860    2.1430    1.3570 hn        1 CK8      0.487800
     33 H2B         4.5210   -1.4500    1.0850 ha        1 CK8      0.198500
     34 H3B         5.2880   -2.5860   -0.9430 ha        1 CK8      0.185500
     35 H5B         4.9240    1.1630   -3.1830 ha        1 CK8      0.185500
     36 H6B         4.1470    2.3010   -1.1510 ha        1 CK8      0.198500
     37 H8B1        7.6860   -0.9540   -3.1040 hx        1 CK8      0.115200
     38 H8B2        6.7570    0.1580   -4.2320 hx        1 CK8      0.115200
     39 H8B3        7.2630   -1.5110   -4.8040 hx        1 CK8      0.115200
     40 H9B1        3.6430   -1.9250   -4.0930 hx        1 CK8      0.115200
     41 H9B2        4.3940   -0.4120   -4.8140 hx        1 CK8      0.115200
     42 H9B3        4.9620   -2.0680   -5.3660 hx        1 CK8      0.115200
     43 H72         4.2000    0.6680    2.1620 hn        1 CK8      0.487800
     44 H7B1        5.8080   -2.4720   -3.1690 hn        1 CK8      0.465800
@<TRIPOS>BOND
     1    1    2 ar  
     2    1    6 ar  
     3    1   24 1   
     4    2    3 ar  
     5    3    4 ar  
     6    3   14 1   
     7    4    5 ar  
     8    5    6 ar  
     9    5    7 1   
    10    6   25 1   
    11    7    8 2   
    12    7   11 1   
    13    8    9 1   
    14    8   12 1   
    15    9   10 2   
    16   10   11 1   
    17   10   13 1   
    18   12   26 1   
    19   12   27 1   
    20   12   28 1   
    21   13   29 1   
    22   13   30 1   
    23   13   31 1   
    24   14   15 1   
    25   14   32 1   
    26   14   43 1   
    27   15   16 ar  
    28   15   20 ar  
    29   16   17 ar  
    30   16   33 1   
    31   17   18 ar  
    32   17   34 1   
    33   18   19 ar  
    34   18   21 1   
    35   19   20 ar  
    36   19   35 1   
    37   20   36 1   
    38   21   22 1   
    39   21   23 1   
    40   21   44 1   
    41   22   37 1   
    42   22   38 1   
    43   22   39 1   
    44   23   40 1   
    45   23   41 1   
    46   23   42 1   
@<TRIPOS>SUBSTRUCTURE
     1 CK8         1 TEMP              0 ****  ****    0 ROOT
