@<TRIPOS>MOLECULE
CK8
   42    44     1     0     0
SMALL
bcc


@<TRIPOS>ATOM
      1 C6         -0.2240   -0.6430    0.1830 ca        1 CK8      0.464200
      2 N1          1.1000   -0.7470   -0.0050 nb        1 CK8     -0.732000
      3 C2          1.8870   -0.6060    1.1310 ca        1 CK8      0.868900
      4 N3          1.3990   -0.3410    2.4060 nb        1 CK8     -0.750000
      5 C4          0.0550   -0.2540    2.5410 ca        1 CK8      0.577800
      6 C5         -0.8170   -0.4030    1.4310 ca        1 CK8     -0.425600
      7 C5A        -0.5270    0.0190    3.8420 cc        1 CK8     -0.287900
      8 C1A         0.0420   -0.1590    5.1100 cd        1 CK8      0.418600
      9 N2A        -0.7940    0.1990    6.1660 nd        1 CK8     -0.646000
     10 C3A        -1.9640    0.6390    5.6970 cc        1 CK8      0.415700
     11 S4A        -2.0970    0.6330    3.9890 ss        1 CK8     -0.101300
     12 C6A         1.4030   -0.6810    5.3740 c3        1 CK8     -0.128400
     13 C7A        -3.0870    1.1050    6.5390 c3        1 CK8     -0.135400
     14 N7          3.2820   -0.8110    1.0350 nu        1 CK8     -0.692300
     15 C1B         3.9600   -0.6310   -0.1980 ca        1 CK8      0.073600
     16 C2B         3.7240   -1.4820   -1.2930 ca        1 CK8     -0.095500
     17 C3B         4.4480   -1.3440   -2.4690 ca        1 CK8     -0.179000
     18 C4B         5.4560   -0.3600   -2.6030 ca        1 CK8      0.154600
     19 C5B         5.6840    0.4940   -1.4980 ca        1 CK8     -0.179000
     20 C6B         4.9520    0.3620   -0.3270 ca        1 CK8     -0.095500
     21 N7B         6.2560   -0.2820   -3.7610 nh        1 CK8     -0.651000
     22 C8B         6.9690    0.9510   -3.9810 c3        1 CK8      0.183100
     23 C9B         5.7660   -0.9450   -4.9430 c3        1 CK8      0.183100
     24 H6         -0.8420   -0.7610   -0.7270 h4        1 CK8      0.026100
     25 H5         -1.9040   -0.3340    1.5460 ha        1 CK8      0.154000
     26 H6A1        1.5660   -0.8860    6.4610 hc        1 CK8      0.061367
     27 H6A2        2.1620    0.0690    5.0350 hc        1 CK8      0.061367
     28 H6A3        1.5620   -1.6300    4.8030 hc        1 CK8      0.061367
     29 H7A1       -3.4290    0.2870    7.2230 hc        1 CK8      0.061367
     30 H7A2       -3.9460    1.4210    5.8970 hc        1 CK8      0.061367
     31 H7A3       -2.7690    1.9760    7.1680 hc        1 CK8      0.061367
     32 HN7         3.7980   -0.4770    1.8260 hn        1 CK8      0.431800
     33 H2B         2.9540   -2.2680   -1.2310 ha        1 CK8      0.141000
     34 H3B         4.2180   -2.0300   -3.2980 ha        1 CK8      0.135000
     35 H5B         6.4500    1.2830   -1.5440 ha        1 CK8      0.135000
     36 H6B         5.1650    1.0480    0.5080 ha        1 CK8      0.141000
     37 H8B1        6.3000    1.8530   -3.9280 h1        1 CK8      0.038033
     38 H8B2        7.7700    1.0510   -3.2000 h1        1 CK8      0.038033
     39 H8B3        7.4650    0.9330   -4.9870 h1        1 CK8      0.038033
     40 H9B1        4.7260   -0.6220   -5.2220 h1        1 CK8      0.038033
     41 H9B2        6.4500   -0.7360   -5.8070 h1        1 CK8      0.038033
     42 H9B3        5.7620   -2.0540   -4.7620 h1        1 CK8      0.038033
@<TRIPOS>BOND
     1    1    2 ar  
     2    1    6 ar  
     3    1   24 1   
     4    2    3 ar  
     5    3    4 ar  
     6    3   14 1   
     7    4    5 ar  
     8    5    6 ar  
     9    5    7 1   
    10    6   25 1   
    11    7    8 2   
    12    7   11 1   
    13    8    9 1   
    14    8   12 1   
    15    9   10 2   
    16   10   11 1   
    17   10   13 1   
    18   12   26 1   
    19   12   27 1   
    20   12   28 1   
    21   13   29 1   
    22   13   30 1   
    23   13   31 1   
    24   14   15 1   
    25   14   32 1   
    26   15   16 ar  
    27   15   20 ar  
    28   16   17 ar  
    29   16   33 1   
    30   17   18 ar  
    31   17   34 1   
    32   18   19 ar  
    33   18   21 1   
    34   19   20 ar  
    35   19   35 1   
    36   20   36 1   
    37   21   22 1   
    38   21   23 1   
    39   22   37 1   
    40   22   38 1   
    41   22   39 1   
    42   23   40 1   
    43   23   41 1   
    44   23   42 1   
@<TRIPOS>SUBSTRUCTURE
     1 CK8         1 TEMP              0 ****  ****    0 ROOT
