@<TRIPOS>MOLECULE
CK8
   42    44     1     0     0
SMALL
bcc


@<TRIPOS>ATOM
      1 C6          2.2270   -0.2850   -0.6060 ca        1 CK8      0.464200
      2 N1          1.3870   -0.4560    0.4260 nb        1 CK8     -0.732000
      3 C2          0.0350   -0.4790    0.1100 ca        1 CK8      0.868900
      4 N3         -0.4840   -0.3090   -1.1700 nb        1 CK8     -0.750000
      5 C4          0.4090   -0.1480   -2.1740 ca        1 CK8      0.577800
      6 C5          1.8070   -0.1300   -1.9340 ca        1 CK8     -0.425600
      7 C5A        -0.0580    0.0330   -3.5360 cc        1 CK8     -0.287900
      8 C1A        -1.3010   -0.3080   -4.0880 cd        1 CK8      0.418600
      9 N2A        -1.4270   -0.0010   -5.4410 nd        1 CK8     -0.646000
     10 C3A        -0.3030    0.5620   -5.8930 cc        1 CK8      0.415700
     11 S4A         0.9310    0.7340   -4.7160 ss        1 CK8     -0.101300
     12 C6A        -2.4190   -0.9450   -3.3550 c3        1 CK8     -0.128400
     13 C7A        -0.0890    1.0170   -7.2830 c3        1 CK8     -0.135400
     14 N7         -0.9080   -0.7650    1.1240 nh        1 CK8     -0.692300
     15 C1B        -0.6090   -0.5080    2.4860 ca        1 CK8      0.073600
     16 C2B         0.3910   -1.2310    3.1640 ca        1 CK8     -0.095500
     17 C3B         0.6230   -1.0240    4.5170 ca        1 CK8     -0.179000
     18 C4B        -0.1440   -0.1000    5.2640 ca        1 CK8      0.154600
     19 C5B        -1.1450    0.6250    4.5740 ca        1 CK8     -0.179000
     20 C6B        -1.3690    0.4260    3.2200 ca        1 CK8     -0.095500
     21 N7B         0.0260    0.0400    6.6570 nh        1 CK8     -0.651000
     22 C8B        -0.4940    1.2400    7.2620 c3        1 CK8      0.183100
     23 C9B         1.2500   -0.4710    7.2220 c3        1 CK8      0.183100
     24 H6          3.3020   -0.2710   -0.3430 h4        1 CK8      0.026100
     25 H5          2.5250   -0.0020   -2.7510 ha        1 CK8      0.154000
     26 H6A1       -2.0450   -1.8400   -2.7980 hc        1 CK8      0.061367
     27 H6A2       -2.8420   -0.2170   -2.6170 hc        1 CK8      0.061367
     28 H6A3       -3.2370   -1.2680   -4.0450 hc        1 CK8      0.061367
     29 H7A1       -0.1950    0.1600   -7.9960 hc        1 CK8      0.061367
     30 H7A2       -0.8430    1.7960   -7.5600 hc        1 CK8      0.061367
     31 H7A3        0.9350    1.4520   -7.3940 hc        1 CK8      0.061367
     32 HN7        -1.8530   -0.5450    0.8750 hn        1 CK8      0.431800
     33 H2B         1.0080   -1.9670    2.6240 ha        1 CK8      0.141000
     34 H3B         1.4230   -1.6090    4.9960 ha        1 CK8      0.135000
     35 H5B        -1.7700    1.3630    5.0990 ha        1 CK8      0.135000
     36 H6B        -2.1590    1.0110    2.7240 ha        1 CK8      0.141000
     37 H8B1       -0.1880    1.2880    8.3400 h1        1 CK8      0.038033
     38 H8B2       -0.1380    2.1740    6.7460 h1        1 CK8      0.038033
     39 H8B3       -1.6160    1.2110    7.2180 h1        1 CK8      0.038033
     40 H9B1        1.2960   -0.2230    8.3150 h1        1 CK8      0.038033
     41 H9B2        1.2580   -1.5890    7.1170 h1        1 CK8      0.038033
     42 H9B3        2.1660   -0.0550    6.7200 h1        1 CK8      0.038033
@<TRIPOS>BOND
     1    1    2 ar  
     2    1    6 ar  
     3    1   24 1   
     4    2    3 ar  
     5    3    4 ar  
     6    3   14 1   
     7    4    5 ar  
     8    5    6 ar  
     9    5    7 1   
    10    6   25 1   
    11    7    8 2   
    12    7   11 1   
    13    8    9 1   
    14    8   12 1   
    15    9   10 2   
    16   10   11 1   
    17   10   13 1   
    18   12   26 1   
    19   12   27 1   
    20   12   28 1   
    21   13   29 1   
    22   13   30 1   
    23   13   31 1   
    24   14   15 1   
    25   14   32 1   
    26   15   16 ar  
    27   15   20 ar  
    28   16   17 ar  
    29   16   33 1   
    30   17   18 ar  
    31   17   34 1   
    32   18   19 ar  
    33   18   21 1   
    34   19   20 ar  
    35   19   35 1   
    36   20   36 1   
    37   21   22 1   
    38   21   23 1   
    39   22   37 1   
    40   22   38 1   
    41   22   39 1   
    42   23   40 1   
    43   23   41 1   
    44   23   42 1   
@<TRIPOS>SUBSTRUCTURE
     1 CK8         1 TEMP              0 ****  ****    0 ROOT
