@<TRIPOS>MOLECULE
CK9
   53    55     1     0     0
SMALL
bcc


@<TRIPOS>ATOM
      1 O27         4.0170   -0.4450   -2.0550 oh        1 CK9     -0.499100
      2 C24         4.5790   -0.5990   -0.8120 ca        1 CK9      0.154100
      3 C23         5.9130   -1.0520   -0.8090 ca        1 CK9     -0.164000
      4 C22         6.5700   -1.2300    0.4010 ca        1 CK9     -0.088000
      5 C21         5.9160   -0.9640    1.6070 ca        1 CK9     -0.170000
      6 C20         4.6000   -0.5150    1.6000 ca        1 CK9     -0.079000
      7 C19         3.9140   -0.3200    0.3950 ca        1 CK9     -0.197300
      8 C18         2.5130    0.2120    0.4210 c3        1 CK9      0.248100
      9 N17         1.5350   -0.7890    0.0530 nh        1 CK9     -0.850900
     10 C4          0.1740   -0.5070    0.1450 ca        1 CK9      0.761200
     11 C5         -0.7650   -1.5860    0.0810 ca        1 CK9     -0.256200
     12 N9         -0.6230   -2.9800    0.0200 nc        1 CK9     -0.538100
     13 C8         -1.8740   -3.4530   -0.0410 cd        1 CK9      0.397700
     14 C6         -2.1770   -1.2230    0.0570 ca        1 CK9      0.491800
     15 N7         -2.8690   -2.4420   -0.0240 na        1 CK9     -0.269000
     16 C10        -4.3000   -2.6310   -0.0790 c3        1 CK9      0.056000
     17 C12        -4.7550   -3.3020   -1.3780 c3        1 CK9     -0.111100
     18 C11        -4.8320   -3.4380    1.1090 c3        1 CK9     -0.111100
     19 N3         -2.6470    0.0500    0.1050 nb        1 CK9     -0.783000
     20 C2         -1.6480    1.0040    0.2160 ca        1 CK9      0.909900
     21 N1         -0.2730    0.7770    0.2190 nb        1 CK9     -0.828000
     22 N13        -2.0950    2.3280    0.4290 nh        1 CK9     -0.801900
     23 C14        -1.2370    3.4530    0.1090 c3        1 CK9      0.209500
     24 C25        -1.8150    4.7670    0.6640 c3        1 CK9     -0.079400
     25 C26        -1.9050    4.7710    2.1670 c3        1 CK9     -0.091100
     26 C15        -0.9810    3.6370   -1.4050 c3        1 CK9      0.094400
     27 O16        -2.2290    3.8940   -2.0270 oh        1 CK9     -0.607800
     28 H27         3.0830   -0.2120   -1.9540 ho        1 CK9      0.435000
     29 H23         6.4100   -1.2580   -1.7680 ha        1 CK9      0.152000
     30 H22         7.6120   -1.5850    0.4080 ha        1 CK9      0.135000
     31 H21         6.4420   -1.1100    2.5610 ha        1 CK9      0.136000
     32 H20         4.0880   -0.3050    2.5520 ha        1 CK9      0.135000
     33 H181        2.4240    1.0720   -0.3060 h1        1 CK9      0.058200
     34 H182        2.2930    0.6290    1.4490 h1        1 CK9      0.058200
     35 H17         1.7800   -1.7350    0.2580 hn        1 CK9      0.444800
     36 H8         -2.1520   -4.5120   -0.1000 h5        1 CK9      0.070800
     37 H10        -4.7670   -1.6000   -0.0360 h1        1 CK9      0.091700
     38 H121       -5.8690   -3.3650   -1.3750 hc        1 CK9      0.047033
     39 H122       -4.4320   -2.7110   -2.2680 hc        1 CK9      0.047033
     40 H123       -4.3380   -4.3350   -1.4630 hc        1 CK9      0.047033
     41 H111       -4.5660   -2.9490    2.0760 hc        1 CK9      0.047033
     42 H112       -5.9440   -3.4960    1.0320 hc        1 CK9      0.047033
     43 H113       -4.4190   -4.4750    1.1060 hc        1 CK9      0.047033
     44 H13        -3.0480    2.4820    0.1570 hn        1 CK9      0.428800
     45 H14        -0.2290    3.2840    0.5940 h1        1 CK9      0.085700
     46 H251       -2.8230    4.9560    0.2110 hc        1 CK9      0.051700
     47 H252       -1.1380    5.5950    0.3250 hc        1 CK9      0.051700
     48 H261       -2.2180    5.7810    2.5270 hc        1 CK9      0.037033
     49 H262       -2.6520    4.0230    2.5270 hc        1 CK9      0.037033
     50 H263       -0.9160    4.5230    2.6230 hc        1 CK9      0.037033
     51 H151       -0.2910    4.5090   -1.5610 h1        1 CK9      0.034700
     52 H152       -0.5120    2.7150   -1.8390 h1        1 CK9      0.034700
     53 H16        -2.0700    3.8960   -2.9780 ho        1 CK9      0.404000
@<TRIPOS>BOND
     1    1    2 1   
     2    1   28 1   
     3    2    3 ar  
     4    2    7 ar  
     5    3    4 ar  
     6    3   29 1   
     7    4    5 ar  
     8    4   30 1   
     9    5    6 ar  
    10    5   31 1   
    11    6    7 ar  
    12    6   32 1   
    13    7    8 1   
    14    8    9 1   
    15    8   33 1   
    16    8   34 1   
    17    9   10 1   
    18    9   35 1   
    19   10   11 ar  
    20   10   21 ar  
    21   11   12 1   
    22   11   14 ar  
    23   12   13 2   
    24   13   15 1   
    25   13   36 1   
    26   14   15 1   
    27   14   19 ar  
    28   15   16 1   
    29   16   17 1   
    30   16   18 1   
    31   16   37 1   
    32   17   38 1   
    33   17   39 1   
    34   17   40 1   
    35   18   41 1   
    36   18   42 1   
    37   18   43 1   
    38   19   20 ar  
    39   20   21 ar  
    40   20   22 1   
    41   22   23 1   
    42   22   44 1   
    43   23   24 1   
    44   23   26 1   
    45   23   45 1   
    46   24   25 1   
    47   24   46 1   
    48   24   47 1   
    49   25   48 1   
    50   25   49 1   
    51   25   50 1   
    52   26   27 1   
    53   26   51 1   
    54   26   52 1   
    55   27   53 1   
@<TRIPOS>SUBSTRUCTURE
     1 CK9         1 TEMP              0 ****  ****    0 ROOT
