@<TRIPOS>MOLECULE
CK9
   53    55     1     0     0
SMALL
bcc


@<TRIPOS>ATOM
      1 O27         0.3310    1.0140    0.1050 oh        1 CK9     -0.505100
      2 C24         1.6020    0.4820    0.1240 ca        1 CK9      0.128100
      3 C23         2.3710    0.4340    1.2960 ca        1 CK9     -0.211000
      4 C22         3.6490   -0.1160    1.2510 ca        1 CK9     -0.086000
      5 C21         4.1580   -0.6140    0.0520 ca        1 CK9     -0.164000
      6 C20         3.3890   -0.5620   -1.1100 ca        1 CK9     -0.080000
      7 C19         2.1010   -0.0220   -1.0930 ca        1 CK9     -0.125300
      8 C18         1.2650   -0.0150   -2.3380 c3        1 CK9      0.265100
      9 N17         0.9080    1.3200   -2.7600 nu        1 CK9     -0.831900
     10 C4          0.1590    1.5280   -3.9070 ca        1 CK9      0.772200
     11 C5         -0.3730    2.8340   -4.1640 ca        1 CK9     -0.257200
     12 N9         -0.3730    4.0310   -3.4320 nc        1 CK9     -0.535100
     13 C8         -1.0330    4.9070   -4.2000 cd        1 CK9      0.389700
     14 C6         -1.0720    3.0190   -5.4290 ca        1 CK9      0.491800
     15 N7         -1.4880    4.3600   -5.4270 na        1 CK9     -0.269000
     16 C10        -2.2050    5.0530   -6.4720 c3        1 CK9      0.057000
     17 C12        -3.5570    5.5950   -5.9980 c3        1 CK9     -0.110600
     18 C11        -1.3970    6.2030   -7.0800 c3        1 CK9     -0.110600
     19 N3         -1.2560    2.0480   -6.3610 nb        1 CK9     -0.789000
     20 C2         -0.6890    0.8330   -6.0080 ca        1 CK9      0.910900
     21 N1         -0.0340    0.5310   -4.8180 nb        1 CK9     -0.836000
     22 N13        -0.7320   -0.1660   -7.0080 nu        1 CK9     -0.802900
     23 C14        -0.5990   -1.5660   -6.6520 c3        1 CK9      0.210500
     24 C25        -0.4020   -2.4400   -7.9030 c3        1 CK9     -0.079400
     25 C26         0.8670   -2.1140   -8.6430 c3        1 CK9     -0.091100
     26 C15        -1.7970   -2.1270   -5.8510 c3        1 CK9      0.093400
     27 O16        -2.9500   -2.0350   -6.6730 oh        1 CK9     -0.607800
     28 H27         0.1200    1.3200    0.9990 ho        1 CK9      0.425000
     29 H23         1.9660    0.8310    2.2380 ha        1 CK9      0.135000
     30 H22         4.2580   -0.1550    2.1670 ha        1 CK9      0.135000
     31 H21         5.1690   -1.0450    0.0200 ha        1 CK9      0.137000
     32 H20         3.7990   -0.9500   -2.0560 ha        1 CK9      0.141000
     33 H181        0.3350   -0.6280   -2.1370 h1        1 CK9      0.058700
     34 H182        1.8310   -0.5140   -3.1780 h1        1 CK9      0.058700
     35 H17         0.7680    1.9860   -2.0280 hn        1 CK9      0.451800
     36 H8         -1.2270    5.9560   -3.9480 h5        1 CK9      0.067800
     37 H10        -2.4020    4.2950   -7.2910 h1        1 CK9      0.091700
     38 H121       -3.4230    6.3660   -5.2020 hc        1 CK9      0.046200
     39 H122       -4.1990    4.7740   -5.5980 hc        1 CK9      0.046200
     40 H123       -4.0770    6.0640   -6.8670 hc        1 CK9      0.046200
     41 H111       -0.4250    5.8350   -7.4870 hc        1 CK9      0.046200
     42 H112       -1.1900    6.9930   -6.3190 hc        1 CK9      0.046200
     43 H113       -1.9860    6.6530   -7.9130 hc        1 CK9      0.046200
     44 H13        -1.4380   -0.0110   -7.7040 hn        1 CK9      0.426800
     45 H14         0.3160   -1.6830   -5.9980 h1        1 CK9      0.086700
     46 H251       -1.2900   -2.3340   -8.5810 hc        1 CK9      0.050200
     47 H252       -0.3740   -3.5080   -7.5590 hc        1 CK9      0.050200
     48 H261        0.8230   -1.0890   -9.0850 hc        1 CK9      0.037033
     49 H262        1.7480   -2.1600   -7.9580 hc        1 CK9      0.037033
     50 H263        1.0240   -2.8460   -9.4720 hc        1 CK9      0.037033
     51 H151       -1.9440   -1.5440   -4.9040 h1        1 CK9      0.034700
     52 H152       -1.6000   -3.2020   -5.5950 h1        1 CK9      0.034700
     53 H16        -3.7040   -2.2630   -6.1170 ho        1 CK9      0.402000
@<TRIPOS>BOND
     1    1    2 1   
     2    1   28 1   
     3    2    3 ar  
     4    2    7 ar  
     5    3    4 ar  
     6    3   29 1   
     7    4    5 ar  
     8    4   30 1   
     9    5    6 ar  
    10    5   31 1   
    11    6    7 ar  
    12    6   32 1   
    13    7    8 1   
    14    8    9 1   
    15    8   33 1   
    16    8   34 1   
    17    9   10 1   
    18    9   35 1   
    19   10   11 ar  
    20   10   21 ar  
    21   11   12 1   
    22   11   14 ar  
    23   12   13 2   
    24   13   15 1   
    25   13   36 1   
    26   14   15 1   
    27   14   19 ar  
    28   15   16 1   
    29   16   17 1   
    30   16   18 1   
    31   16   37 1   
    32   17   38 1   
    33   17   39 1   
    34   17   40 1   
    35   18   41 1   
    36   18   42 1   
    37   18   43 1   
    38   19   20 ar  
    39   20   21 ar  
    40   20   22 1   
    41   22   23 1   
    42   22   44 1   
    43   23   24 1   
    44   23   26 1   
    45   23   45 1   
    46   24   25 1   
    47   24   46 1   
    48   24   47 1   
    49   25   48 1   
    50   25   49 1   
    51   25   50 1   
    52   26   27 1   
    53   26   51 1   
    54   26   52 1   
    55   27   53 1   
@<TRIPOS>SUBSTRUCTURE
     1 CK9         1 TEMP              0 ****  ****    0 ROOT
