@<TRIPOS>MOLECULE
CK9
   53    47     1     0     0
SMALL
bcc


@<TRIPOS>ATOM
      1 O27         2.2480    1.3750    4.9650 oh        1 CK9     -0.257000
      2 C24         2.3500    0.0190    5.2180 c2        1 CK9      0.081000
      3 C23         3.1630   -0.4320    6.2370 c2        1 CK9     -0.212000
      4 C22         3.2350   -1.7830    6.5160 c1        1 CK9     -0.087000
      5 C21         2.4850   -2.6920    5.7670 c1        1 CK9     -0.121500
      6 C20         1.6720   -2.2420    4.7470 c1        1 CK9     -0.121500
      7 C19         1.5980   -0.8930    4.4660 c1        1 CK9     -0.121000
      8 C18         0.5460   -0.3770    3.4550 c3        1 CK9      0.015000
      9 N17         1.0490   -0.5220    2.1220 n3        1 CK9     -0.268000
     10 C4          0.2560   -0.0730    1.0040 c2        1 CK9      0.250000
     11 C5         -0.0790    1.2270    0.6260 c1        1 CK9     -0.256000
     12 N9         -0.0160    2.4130    1.2870 n1        1 CK9     -0.150000
     13 C8         -0.4700    3.3850    0.4510 c1        1 CK9     -0.067000
     14 C6         -0.5690    1.4640   -0.6110 c1        1 CK9      0.097000
     15 N7         -0.8110    2.8030   -0.7190 n1        1 CK9     -0.150000
     16 C10        -1.4990    3.4320   -1.8080 c2        1 CK9      0.038000
     17 C12        -2.6940    4.1600   -1.2900 c3        1 CK9     -0.229000
     18 C11        -0.5770    4.4060   -2.4900 c3        1 CK9     -0.229000
     19 N3         -0.7360    0.4230   -1.4950 n1        1 CK9     -0.267000
     20 C2         -0.4070   -0.8540   -1.1220 c1        1 CK9      0.192000
     21 N1          0.0900   -1.0960    0.1300 n1        1 CK9     -0.308000
     22 N13        -0.5970   -2.0600   -1.9290 n3        1 CK9     -0.246000
     23 C14        -0.6000   -1.9730   -3.3660 c3        1 CK9      0.011000
     24 C25        -1.8930   -2.6040   -3.9190 c3        1 CK9     -0.167000
     25 C26        -2.2510   -1.9520   -5.2190 c3        1 CK9     -0.210000
     26 C15         0.5710   -2.7010   -3.9070 c3        1 CK9     -0.056000
     27 O16         0.4310   -4.0940   -3.6330 oh        1 CK9     -0.335000
     28 H27         2.0400    1.7920    5.6990 ho        1 CK9      0.223000
     29 H23         3.6950    0.2140    6.7690 ha        1 CK9      0.135000
     30 H22         3.7980   -2.0960    7.2230 ha        1 CK9      0.135000
     31 H21         2.5350   -3.6250    5.9610 ha        1 CK9      0.139500
     32 H20         1.1470   -2.8800    4.2240 ha        1 CK9      0.139500
     33 H181        0.3660    0.5360    3.6260 h1        1 CK9      0.109000
     34 H182       -0.3040   -0.9120    3.5540 h1        1 CK9      0.109000
     35 H17         1.8520   -0.9750    1.9720 hn        1 CK9      0.231000
     36 H8         -0.4520    4.3510    0.6280 DU        1 CK9      0.197000
     37 H10        -1.7750    2.7760   -2.4260 ha        1 CK9      0.128000
     38 H121       -3.2300    4.4680   -2.0350 hc        1 CK9      0.085500
     39 H122       -2.3930    4.9560   -0.7390 hc        1 CK9      0.085500
     40 H123       -3.2150    3.5710   -0.7430 hc        1 CK9      0.085500
     41 H111       -0.3440    5.1390   -1.8620 hc        1 CK9      0.085500
     42 H112        0.2470    3.9390   -2.7710 hc        1 CK9      0.085500
     43 H113       -1.0310    4.7870   -3.2900 hc        1 CK9      0.085500
     44 H13        -0.7230   -2.8620   -1.5230 hn        1 CK9      0.222000
     45 H14        -0.5530   -1.0410   -3.6350 h1        1 CK9      0.125000
     46 H251       -1.7510   -3.5690   -4.0640 hc        1 CK9      0.098000
     47 H252       -2.6190   -2.4740   -3.2800 hc        1 CK9      0.098000
     48 H261       -2.7780   -1.1290   -5.0410 hc        1 CK9      0.073333
     49 H262       -1.4240   -1.7140   -5.7080 hc        1 CK9      0.073333
     50 H263       -2.7890   -2.5770   -5.7660 hc        1 CK9      0.073333
     51 H151        1.4110   -2.3570   -3.4720 h1        1 CK9      0.074000
     52 H152        0.6240   -2.5580   -4.8990 h1        1 CK9      0.074000
     53 H16         1.1690   -4.5210   -3.8860 ho        1 CK9      0.201000
@<TRIPOS>BOND
     1    1    2 1   
     2    1   28 1   
     3    2    3 1   
     4    2    7 1   
     5    3    4 1   
     6    3   29 1   
     7    4   30 1   
     8    5    6 1   
     9    5   31 1   
    10    6   32 1   
    11    7    8 1   
    12    8    9 1   
    13    8   33 1   
    14    8   34 1   
    15    9   10 1   
    16    9   35 1   
    17   10   11 1   
    18   10   21 1   
    19   11   14 1   
    20   12   13 1   
    21   13   15 1   
    22   16   17 1   
    23   16   18 1   
    24   16   37 1   
    25   17   38 1   
    26   17   39 1   
    27   17   40 1   
    28   18   41 1   
    29   18   42 1   
    30   18   43 1   
    31   19   20 1   
    32   20   22 1   
    33   22   23 1   
    34   22   44 1   
    35   23   24 1   
    36   23   26 1   
    37   23   45 1   
    38   24   25 1   
    39   24   46 1   
    40   24   47 1   
    41   25   48 1   
    42   25   49 1   
    43   25   50 1   
    44   26   27 1   
    45   26   51 1   
    46   26   52 1   
    47   27   53 1   
@<TRIPOS>SUBSTRUCTURE
     1 CK9         1 TEMP              0 ****  ****    0 ROOT
