@<TRIPOS>MOLECULE
CK9
   55    57     1     0     0
SMALL
bcc


@<TRIPOS>ATOM
      1 O27        -0.0610   -0.6690    0.1090 oh        1 CK9     -0.558100
      2 C24         1.1920   -0.2110    0.4550 ca        1 CK9      0.146100
      3 C23         1.7040   -0.3170    1.7550 ca        1 CK9     -0.189000
      4 C22         2.9610    0.2140    2.0340 ca        1 CK9     -0.030000
      5 C21         3.6990    0.8520    1.0300 ca        1 CK9     -0.141000
      6 C20         3.1890    0.9540   -0.2590 ca        1 CK9     -0.055000
      7 C19         1.9340    0.4120   -0.5690 ca        1 CK9     -0.233300
      8 C18         1.4290    0.4190   -1.9640 c3        1 CK9      0.208100
      9 N17         0.1440    1.2190   -2.0530 n4        1 CK9     -0.756700
     10 C4         -0.3230    1.3900   -3.4380 ca        1 CK9      0.568200
     11 C5         -0.2770    2.6670   -4.0370 ca        1 CK9     -0.094200
     12 N9          0.1380    3.9210   -3.6070 nc        1 CK9     -0.561100
     13 C8         -0.0930    4.7450   -4.6560 cd        1 CK9      0.529700
     14 C6         -0.7850    2.7570   -5.4340 ca        1 CK9      0.449800
     15 N7         -0.6440    4.1060   -5.7830 na        1 CK9     -0.219000
     16 C10        -1.0140    4.7400   -7.0510 c3        1 CK9      0.042000
     17 C12        -2.1240    5.7740   -6.8690 c3        1 CK9     -0.123100
     18 C11         0.1880    5.3910   -7.7330 c3        1 CK9     -0.123100
     19 N3         -1.2610    1.6920   -6.1200 nb        1 CK9     -0.616000
     20 C2         -1.2340    0.5200   -5.4030 ca        1 CK9      0.728900
     21 N1         -0.7960    0.3130   -4.1140 nb        1 CK9     -0.665000
     22 N13        -1.7730   -0.6860   -6.0960 n4        1 CK9     -0.736700
     23 C14        -0.9350   -1.1230   -7.2820 c3        1 CK9      0.096500
     24 C25        -1.7270   -2.1040   -8.1530 c3        1 CK9     -0.114400
     25 C26        -3.0080   -1.5300   -8.6970 c3        1 CK9     -0.126100
     26 C15         0.3780   -1.7810   -6.8000 c3        1 CK9      0.112400
     27 O16         0.0900   -2.7540   -5.8210 oh        1 CK9     -0.611800
     28 H27        -0.4100   -1.2040    0.8410 ho        1 CK9      0.466000
     29 H23         1.1200   -0.8180    2.5430 ha        1 CK9      0.167000
     30 H22         3.3750    0.1320    3.0540 ha        1 CK9      0.174000
     31 H21         4.6910    1.2720    1.2640 ha        1 CK9      0.172000
     32 H20         3.7830    1.4470   -1.0460 ha        1 CK9      0.149000
     33 H181        2.1740    0.8840   -2.6700 hx        1 CK9      0.111200
     34 H182        1.1830   -0.6310   -2.3000 hx        1 CK9      0.111200
     35 H17        -0.5760    0.7240   -1.4930 hn        1 CK9      0.489300
     36 H8          0.1230    5.8310   -4.6560 h5        1 CK9      0.128800
     37 H10        -1.4010    3.9090   -7.7180 h1        1 CK9      0.094700
     38 H121       -3.0350    5.3220   -6.4080 hc        1 CK9      0.071033
     39 H122       -2.4010    6.1680   -7.8800 hc        1 CK9      0.071033
     40 H123       -1.7840    6.6300   -6.2390 hc        1 CK9      0.071033
     41 H111        0.5890    6.2400   -7.1290 hc        1 CK9      0.071033
     42 H112       -0.1490    5.7920   -8.7220 hc        1 CK9      0.071033
     43 H113        1.0070    4.6540   -7.9140 hc        1 CK9      0.071033
     44 H13        -2.7280   -0.4750   -6.4230 hn        1 CK9      0.488300
     45 H14        -0.6880   -0.2030   -7.8900 hx        1 CK9      0.125700
     46 H251       -1.9300   -3.0480   -7.5800 hc        1 CK9      0.091200
     47 H252       -1.0500   -2.3760   -9.0110 hc        1 CK9      0.091200
     48 H261       -3.8170   -1.5030   -7.9260 hc        1 CK9      0.063033
     49 H262       -2.8530   -0.4990   -9.1000 hc        1 CK9      0.063033
     50 H263       -3.3770   -2.1740   -9.5370 hc        1 CK9      0.063033
     51 H151        1.0330   -1.0160   -6.2980 h1        1 CK9      0.086700
     52 H152        0.9120   -2.2000   -7.6920 h1        1 CK9      0.086700
     53 H16         0.1800   -3.6310   -6.2200 ho        1 CK9      0.446000
     54 H172        0.2950    2.1500   -1.6350 hn        1 CK9      0.489300
     55 H132       -1.8020   -1.4800   -5.4300 hn        1 CK9      0.488300
@<TRIPOS>BOND
     1    1    2 1   
     2    1   28 1   
     3    2    3 ar  
     4    2    7 ar  
     5    3    4 ar  
     6    3   29 1   
     7    4    5 ar  
     8    4   30 1   
     9    5    6 ar  
    10    5   31 1   
    11    6    7 ar  
    12    6   32 1   
    13    7    8 1   
    14    8    9 1   
    15    8   33 1   
    16    8   34 1   
    17    9   10 1   
    18    9   35 1   
    19    9   54 1   
    20   10   11 ar  
    21   10   21 ar  
    22   11   12 1   
    23   11   14 ar  
    24   12   13 2   
    25   13   15 1   
    26   13   36 1   
    27   14   15 1   
    28   14   19 ar  
    29   15   16 1   
    30   16   17 1   
    31   16   18 1   
    32   16   37 1   
    33   17   38 1   
    34   17   39 1   
    35   17   40 1   
    36   18   41 1   
    37   18   42 1   
    38   18   43 1   
    39   19   20 ar  
    40   20   21 ar  
    41   20   22 1   
    42   22   23 1   
    43   22   44 1   
    44   22   55 1   
    45   23   24 1   
    46   23   26 1   
    47   23   45 1   
    48   24   25 1   
    49   24   46 1   
    50   24   47 1   
    51   25   48 1   
    52   25   49 1   
    53   25   50 1   
    54   26   27 1   
    55   26   51 1   
    56   26   52 1   
    57   27   53 1   
@<TRIPOS>SUBSTRUCTURE
     1 CK9         1 TEMP              0 ****  ****    0 ROOT
