@<TRIPOS>MOLECULE
CKB
   36    37     1     0     0
SMALL
bcc


@<TRIPOS>ATOM
      1 C2          0.0480   -1.0430    0.1280 c         1 CKB      0.816500
      2 C4         -0.0030    0.0120    2.3640 c         1 CKB      0.714700
      3 C5          1.3660    0.4930    2.1030 cc        1 CKB     -0.236400
      4 C6          1.9620    0.2220    0.9120 cd        1 CKB      0.033600
      5 C7          2.0300    1.2570    3.1780 c3        1 CKB     -0.036900
      6 N1          1.3730   -0.5670   -0.0800 n         1 CKB     -0.354000
      7 N3         -0.5920   -0.7530    1.3400 ns        1 CKB     -0.582500
      8 C1'         1.9780   -0.5080   -1.4020 c3        1 CKB      0.283500
      9 C2'         1.4540   -1.5030   -2.4700 c3        1 CKB      0.097100
     10 C3'         2.2940   -1.2970   -3.7440 c3        1 CKB      0.103100
     11 C4'         2.1730    0.1630   -4.2110 c3        1 CKB      0.121100
     12 C5'         2.5590    1.1080   -3.0640 c3        1 CKB      0.107100
     13 C6'         2.2540    2.5640   -3.4320 c3        1 CKB      0.140400
     14 O6'         2.7040    3.4460   -2.4280 oh        1 CKB     -0.592800
     15 O2'         1.6700   -2.8380   -2.0670 oh        1 CKB     -0.605800
     16 O3'         1.8030   -2.1010   -4.8010 oh        1 CKB     -0.602800
     17 O4'         3.0710    0.4190   -5.2760 oh        1 CKB     -0.594800
     18 O5'         1.7740    0.8330   -1.9010 os        1 CKB     -0.452600
     19 O2         -0.5370   -1.7670   -0.7110 o         1 CKB     -0.666500
     20 O4         -0.6590    0.2330    3.3940 o         1 CKB     -0.597500
     21 H6          2.9730    0.6020    0.6680 h4        1 CKB      0.171000
     22 H7          2.9400    1.7830    2.8000 hc        1 CKB      0.055367
     23 H7A         1.3210    2.0130    3.6020 hc        1 CKB      0.055367
     24 H7B         2.3310    0.5670    4.0070 hc        1 CKB      0.055367
     25 HN3        -1.5160   -1.1120    1.4600 hn        1 CKB      0.355500
     26 H1'         3.0900   -0.6830   -1.2550 h2        1 CKB      0.072700
     27 H2'         0.3690   -1.3070   -2.6930 h1        1 CKB      0.098700
     28 H3'         3.3710   -1.5580   -3.5440 h1        1 CKB      0.062700
     29 H4'         1.1170    0.3620   -4.5460 h1        1 CKB      0.066700
     30 H5'         3.6510    0.9910   -2.8180 h1        1 CKB      0.069700
     31 H6'         2.8370    2.8320   -4.3540 h1        1 CKB      0.067700
     32 H6'A        1.1550    2.6920   -3.6110 h1        1 CKB      0.067700
     33 HO6'        2.1920    3.2520   -1.6320 ho        1 CKB      0.408000
     34 HO2'        0.9070   -3.1050   -1.5340 ho        1 CKB      0.440000
     35 HO3'        1.7790   -3.0100   -4.4700 ho        1 CKB      0.430000
     36 HO4'        2.8800   -0.2410   -5.9570 ho        1 CKB      0.428000
@<TRIPOS>BOND
     1    1    6 1   
     2    1    7 1   
     3    1   19 2   
     4    2    3 1   
     5    2    7 1   
     6    2   20 2   
     7    3    4 2   
     8    3    5 1   
     9    4    6 1   
    10    4   21 1   
    11    5   22 1   
    12    5   23 1   
    13    5   24 1   
    14    6    8 1   
    15    7   25 1   
    16    8    9 1   
    17    8   18 1   
    18    8   26 1   
    19    9   10 1   
    20    9   15 1   
    21    9   27 1   
    22   10   11 1   
    23   10   16 1   
    24   10   28 1   
    25   11   12 1   
    26   11   17 1   
    27   11   29 1   
    28   12   13 1   
    29   12   18 1   
    30   12   30 1   
    31   13   14 1   
    32   13   31 1   
    33   13   32 1   
    34   14   33 1   
    35   15   34 1   
    36   16   35 1   
    37   17   36 1   
@<TRIPOS>SUBSTRUCTURE
     1 CKB         1 TEMP              0 ****  ****    0 ROOT
