@<TRIPOS>MOLECULE
CKB
   36    37     1     0     0
SMALL
bcc


@<TRIPOS>ATOM
      1 C2          0.0360   -1.0420    0.1150 c         1 CKB      0.816500
      2 C4         -0.0170   -0.0010    2.3570 c         1 CKB      0.714700
      3 C5          1.3560    0.4740    2.1040 cc        1 CKB     -0.236400
      4 C6          1.9550    0.2070    0.9140 cd        1 CKB      0.033600
      5 C7          2.0190    1.2280    3.1860 c3        1 CKB     -0.035900
      6 N1          1.3640   -0.5730   -0.0850 n         1 CKB     -0.354000
      7 N3         -0.6060   -0.7560    1.3260 n         1 CKB     -0.582500
      8 C1'         1.9760   -0.5090   -1.4040 c3        1 CKB      0.283500
      9 C2'         1.4500   -1.4940   -2.4800 c3        1 CKB      0.097100
     10 C3'         2.2950   -1.2860   -3.7500 c3        1 CKB      0.103100
     11 C4'         2.1840    0.1780   -4.2090 c3        1 CKB      0.121100
     12 C5'         2.5720    1.1140   -3.0540 c3        1 CKB      0.107100
     13 C6'         2.2770    2.5740   -3.4140 c3        1 CKB      0.140400
     14 O6'         2.7280    3.4460   -2.4030 oh        1 CKB     -0.592800
     15 O2'         1.6560   -2.8330   -2.0850 oh        1 CKB     -0.605800
     16 O3'         1.8040   -2.0800   -4.8140 oh        1 CKB     -0.602800
     17 O4'         3.0880    0.4350   -5.2690 oh        1 CKB     -0.594800
     18 O5'         1.7810    0.8360   -1.8960 os        1 CKB     -0.452600
     19 O2         -0.5490   -1.7580   -0.7310 o         1 CKB     -0.666500
     20 O4         -0.6750    0.2170    3.3860 o         1 CKB     -0.597500
     21 H6          2.9690    0.5830    0.6750 h4        1 CKB      0.171000
     22 H7          2.9360    1.7480    2.8160 hc        1 CKB      0.055367
     23 H7A         1.3150    1.9880    3.6090 hc        1 CKB      0.055367
     24 H7B         2.3110    0.5320    4.0140 hc        1 CKB      0.055367
     25 HN3        -1.5330   -1.1110    1.4410 hn        1 CKB      0.355500
     26 H1'         3.0850   -0.6920   -1.2540 h2        1 CKB      0.072700
     27 H2'         0.3670   -1.2910   -2.7070 h1        1 CKB      0.098700
     28 H3'         3.3700   -1.5540   -3.5480 h1        1 CKB      0.062700
     29 H4'         1.1310    0.3850   -4.5460 h1        1 CKB      0.066700
     30 H5'         3.6620    0.9890   -2.8050 h1        1 CKB      0.069700
     31 H6'         1.1790    2.7100   -3.5960 h1        1 CKB      0.067700
     32 H6'A        2.8650    2.8440   -4.3330 h1        1 CKB      0.067700
     33 HO6'        2.2120    3.2510   -1.6100 ho        1 CKB      0.408000
     34 HO2'        0.8900   -3.0990   -1.5560 ho        1 CKB      0.440000
     35 HO3'        1.7730   -2.9900   -4.4890 ho        1 CKB      0.430000
     36 HO4'        2.8960   -0.2190   -5.9550 ho        1 CKB      0.428000
@<TRIPOS>BOND
     1    1    6 1   
     2    1    7 1   
     3    1   19 2   
     4    2    3 1   
     5    2    7 1   
     6    2   20 2   
     7    3    4 2   
     8    3    5 1   
     9    4    6 1   
    10    4   21 1   
    11    5   22 1   
    12    5   23 1   
    13    5   24 1   
    14    6    8 1   
    15    7   25 1   
    16    8    9 1   
    17    8   18 1   
    18    8   26 1   
    19    9   10 1   
    20    9   15 1   
    21    9   27 1   
    22   10   11 1   
    23   10   16 1   
    24   10   28 1   
    25   11   12 1   
    26   11   17 1   
    27   11   29 1   
    28   12   13 1   
    29   12   18 1   
    30   12   30 1   
    31   13   14 1   
    32   13   31 1   
    33   13   32 1   
    34   14   33 1   
    35   15   34 1   
    36   16   35 1   
    37   17   36 1   
@<TRIPOS>SUBSTRUCTURE
     1 CKB         1 TEMP              0 ****  ****    0 ROOT
