@<TRIPOS>MOLECULE
CKB
   36    34     1     0     0
SMALL
bcc


@<TRIPOS>ATOM
      1 C2         -0.1840    0.2150    2.0690 c1        1 CKB      0.382500
      2 C4         -2.2940   -0.0020    3.4050 c1        1 CKB      0.382500
      3 C5         -3.0540   -0.1710    2.1440 c1        1 CKB     -0.224000
      4 C6         -2.3530   -0.1020    0.8510 c1        1 CKB      0.042000
      5 C7         -4.5330   -0.5560    2.1880 c3        1 CKB     -0.155000
      6 N1         -0.9380    0.0450    0.8160 n1        1 CKB     -0.253000
      7 N3         -0.8870    0.1850    3.3650 n3        1 CKB     -0.365000
      8 C1'        -0.2630   -0.0210   -0.4010 c3        1 CKB      0.182000
      9 C2'         0.2640    1.3680   -0.7510 c3        1 CKB      0.001000
     10 C3'         1.1420    1.3510   -1.9360 c3        1 CKB     -0.039000
     11 C4'         2.2220    0.3420   -1.8200 c3        1 CKB     -0.029000
     12 C5'         1.6850   -1.0480   -1.4600 c3        1 CKB     -0.001000
     13 C6'         2.8490   -1.9630   -1.1870 c3        1 CKB     -0.010000
     14 O6'         2.3880   -3.3190   -1.1290 oh        1 CKB     -0.320000
     15 O2'        -0.8380    2.2260   -1.0130 oh        1 CKB     -0.324000
     16 O3'         1.7590    2.7000   -2.1030 oh        1 CKB     -0.326000
     17 O4'         2.9040    0.2600   -3.0560 oh        1 CKB     -0.320000
     18 O5'         0.8190   -1.0260   -0.2950 os        1 CKB     -0.291000
     19 O2          1.0060    0.4470    2.0310 o         1 CKB     -0.346000
     20 O4         -2.8840   -0.0300    4.4920 o         1 CKB     -0.346000
     21 H6         -2.8520   -0.2140    0.0190 ha        1 CKB      0.166000
     22 H7         -4.8460   -0.7710    1.2730 hc        1 CKB      0.092333
     23 H7A        -4.6500   -1.3450    2.7690 hc        1 CKB      0.092333
     24 H7B        -5.0560    0.1920    2.5440 hc        1 CKB      0.092333
     25 HN3        -0.4030    0.2940    4.1680 hn        1 CKB      0.267000
     26 H1'        -0.8980   -0.3090   -1.1040 h2        1 CKB      0.110000
     27 H2'         0.7740    1.7250    0.0260 h1        1 CKB      0.146000
     28 H3'         0.5980    1.1470   -2.7350 h1        1 CKB      0.101000
     29 H4'         2.8570    0.6300   -1.1220 h1        1 CKB      0.115000
     30 H5'         1.1730   -1.4040   -2.2320 h1        1 CKB      0.107000
     31 H6'         3.4940   -1.8750   -1.8880 h1        1 CKB      0.105500
     32 H6'A        3.2690   -1.7180   -0.3180 h1        1 CKB      0.105500
     33 HO6'        3.0980   -3.8790   -1.0380 ho        1 CKB      0.211000
     34 HO2'       -0.6860    3.0200   -0.6510 ho        1 CKB      0.227000
     35 HO3'        1.6470    2.9740   -2.9370 ho        1 CKB      0.211000
     36 HO4'        3.6700    0.6310   -2.9830 ho        1 CKB      0.209000
@<TRIPOS>BOND
     1    1    7 1   
     2    1   19 1   
     3    2    7 1   
     4    2   20 1   
     5    3    4 1   
     6    3    5 1   
     7    4   21 1   
     8    5   22 1   
     9    5   23 1   
    10    5   24 1   
    11    6    8 1   
    12    7   25 1   
    13    8    9 1   
    14    8   18 1   
    15    8   26 1   
    16    9   10 1   
    17    9   15 1   
    18    9   27 1   
    19   10   11 1   
    20   10   16 1   
    21   10   28 1   
    22   11   12 1   
    23   11   17 1   
    24   11   29 1   
    25   12   13 1   
    26   12   18 1   
    27   12   30 1   
    28   13   14 1   
    29   13   31 1   
    30   13   32 1   
    31   14   33 1   
    32   15   34 1   
    33   16   35 1   
    34   17   36 1   
@<TRIPOS>SUBSTRUCTURE
     1 CKB         1 TEMP              0 ****  ****    0 ROOT
