@<TRIPOS>MOLECULE
CKB
   36    37     1     0     0
SMALL
bcc


@<TRIPOS>ATOM
      1 C2          1.4850    0.0790   -1.1910 c         1 CKB      0.819500
      2 C4          3.7960   -0.4200   -0.4660 c         1 CKB      0.716700
      3 C5          3.3330   -0.2700    0.9270 cc        1 CKB     -0.247400
      4 C6          2.0270    0.0180    1.1790 cd        1 CKB      0.044600
      5 C7          4.3380   -0.4350    1.9950 c3        1 CKB     -0.032900
      6 N1          1.0930    0.2250    0.1700 n         1 CKB     -0.360000
      7 N3          2.8270   -0.2260   -1.4640 n         1 CKB     -0.585500
      8 C1'        -0.3110    0.3620    0.5160 c3        1 CKB      0.330500
      9 C2'        -1.0050    1.5950   -0.1320 c3        1 CKB      0.112100
     10 C3'        -2.5020    1.5600    0.2210 c3        1 CKB      0.072100
     11 C4'        -3.1090    0.2220   -0.2260 c3        1 CKB      0.082100
     12 C5'        -2.3380   -0.9190    0.4520 c3        1 CKB      0.110100
     13 C6'        -2.8230   -2.2860   -0.0420 c3        1 CKB      0.140400
     14 O6'        -2.2060   -3.3310    0.6740 oh        1 CKB     -0.592800
     15 O2'        -0.4060    2.7400    0.4450 oh        1 CKB     -0.596800
     16 O3'        -3.0990    2.6420   -0.4750 oh        1 CKB     -0.598800
     17 O4'        -4.4590    0.1440    0.2030 oh        1 CKB     -0.592800
     18 O5'        -0.9580   -0.8520    0.0910 os        1 CKB     -0.434600
     19 O2          0.6790    0.2400   -2.1320 o         1 CKB     -0.636500
     20 O4          4.9560   -0.7040   -0.8070 o         1 CKB     -0.606500
     21 H6          1.6490    0.1270    2.2140 h4        1 CKB      0.166000
     22 H7          4.9650   -1.3400    1.7920 hc        1 CKB      0.053033
     23 H7A         5.0180    0.4540    2.0200 hc        1 CKB      0.053033
     24 H7B         3.8530   -0.5440    2.9950 hc        1 CKB      0.053033
     25 HN3         3.0820   -0.3140   -2.4250 hn        1 CKB      0.353500
     26 H1'        -0.3990    0.4530    1.6420 h2        1 CKB      0.070700
     27 H2'        -0.8750    1.5920   -1.2500 h1        1 CKB      0.106700
     28 H3'        -2.6420    1.6940    1.3300 h1        1 CKB      0.061700
     29 H4'        -3.0350    0.1260   -1.3440 h1        1 CKB      0.075700
     30 H5'        -2.4430   -0.8500    1.5690 h1        1 CKB      0.067700
     31 H6'        -3.9220   -2.3790    0.1730 h1        1 CKB      0.066200
     32 H6'A       -2.6270   -2.3870   -1.1420 h1        1 CKB      0.066200
     33 HO6'       -1.2600   -3.2830    0.4860 ho        1 CKB      0.412000
     34 HO2'       -0.8140    3.5030    0.0130 ho        1 CKB      0.428000
     35 HO3'       -3.9860    2.7470   -0.1100 ho        1 CKB      0.412000
     36 HO4'       -4.9850    0.6020   -0.4640 ho        1 CKB      0.410000
@<TRIPOS>BOND
     1    1    6 1   
     2    1    7 1   
     3    1   19 2   
     4    2    3 1   
     5    2    7 1   
     6    2   20 2   
     7    3    4 2   
     8    3    5 1   
     9    4    6 1   
    10    4   21 1   
    11    5   22 1   
    12    5   23 1   
    13    5   24 1   
    14    6    8 1   
    15    7   25 1   
    16    8    9 1   
    17    8   18 1   
    18    8   26 1   
    19    9   10 1   
    20    9   15 1   
    21    9   27 1   
    22   10   11 1   
    23   10   16 1   
    24   10   28 1   
    25   11   12 1   
    26   11   17 1   
    27   11   29 1   
    28   12   13 1   
    29   12   18 1   
    30   12   30 1   
    31   13   14 1   
    32   13   31 1   
    33   13   32 1   
    34   14   33 1   
    35   15   34 1   
    36   16   35 1   
    37   17   36 1   
@<TRIPOS>SUBSTRUCTURE
     1 CKB         1 TEMP              0 ****  ****    0 ROOT
