@<TRIPOS>MOLECULE
CKB
   36    37     1     0     0
SMALL
bcc


@<TRIPOS>ATOM
      1 C2          0.0770   -1.0730    0.1370 c         1 CKB      0.816500
      2 C4          0.0000   -0.0040    2.3650 c         1 CKB      0.714700
      3 C5          1.3570    0.5110    2.1000 cc        1 CKB     -0.236400
      4 C6          1.9590    0.2450    0.9100 cd        1 CKB      0.033600
      5 C7          2.0010    1.2990    3.1690 c3        1 CKB     -0.036900
      6 N1          1.3890   -0.5660   -0.0750 n         1 CKB     -0.354000
      7 N3         -0.5690   -0.7910    1.3470 n         1 CKB     -0.582500
      8 C1'         1.9930   -0.5010   -1.3980 c3        1 CKB      0.283500
      9 C2'         1.4940   -1.5170   -2.4580 c3        1 CKB      0.097100
     10 C3'         2.3280   -1.2990   -3.7340 c3        1 CKB      0.103100
     11 C4'         2.1700    0.1540   -4.2120 c3        1 CKB      0.121100
     12 C5'         2.5320    1.1170   -3.0720 c3        1 CKB      0.107100
     13 C6'         2.1910    2.5620   -3.4500 c3        1 CKB      0.140400
     14 O6'         2.6180    3.4620   -2.4530 oh        1 CKB     -0.592800
     15 O2'         1.7430   -2.8430   -2.0460 oh        1 CKB     -0.605800
     16 O3'         1.8570   -2.1230   -4.7850 oh        1 CKB     -0.602800
     17 O4'         3.0610    0.4240   -5.2790 oh        1 CKB     -0.594800
     18 O5'         1.7550    0.8300   -1.9070 os        1 CKB     -0.452600
     19 O2         -0.4890   -1.8180   -0.6960 o         1 CKB     -0.666500
     20 O4         -0.6600    0.2080    3.3940 o         1 CKB     -0.597500
     21 H6          2.9600    0.6490    0.6620 h4        1 CKB      0.171000
     22 H7          2.3200    0.6240    4.0030 hc        1 CKB      0.055367
     23 H7A         2.8980    1.8440    2.7860 hc        1 CKB      0.055367
     24 H7B         1.2740    2.0410    3.5860 hc        1 CKB      0.055367
     25 HN3        -1.4830   -1.1730    1.4710 hn        1 CKB      0.355500
     26 H1'         3.1090   -0.6470   -1.2500 h2        1 CKB      0.072700
     27 H2'         0.4040   -1.3500   -2.6820 h1        1 CKB      0.098700
     28 H3'         3.4110   -1.5310   -3.5340 h1        1 CKB      0.062700
     29 H4'         1.1080    0.3230   -4.5480 h1        1 CKB      0.066700
     30 H5'         3.6270    1.0290   -2.8260 h1        1 CKB      0.069700
     31 H6'         2.7650    2.8380   -4.3750 h1        1 CKB      0.067700
     32 H6'A        1.0880    2.6610   -3.6300 h1        1 CKB      0.067700
     33 HO6'        2.1110    3.2610   -1.6560 ho        1 CKB      0.408000
     34 HO2'        0.9880   -3.1260   -1.5100 ho        1 CKB      0.440000
     35 HO3'        1.8560   -3.0300   -4.4470 ho        1 CKB      0.430000
     36 HO4'        2.8860   -0.2450   -5.9560 ho        1 CKB      0.428000
@<TRIPOS>BOND
     1    1    6 1   
     2    1    7 1   
     3    1   19 2   
     4    2    3 1   
     5    2    7 1   
     6    2   20 2   
     7    3    4 2   
     8    3    5 1   
     9    4    6 1   
    10    4   21 1   
    11    5   22 1   
    12    5   23 1   
    13    5   24 1   
    14    6    8 1   
    15    7   25 1   
    16    8    9 1   
    17    8   18 1   
    18    8   26 1   
    19    9   10 1   
    20    9   15 1   
    21    9   27 1   
    22   10   11 1   
    23   10   16 1   
    24   10   28 1   
    25   11   12 1   
    26   11   17 1   
    27   11   29 1   
    28   12   13 1   
    29   12   18 1   
    30   12   30 1   
    31   13   14 1   
    32   13   31 1   
    33   13   32 1   
    34   14   33 1   
    35   15   34 1   
    36   16   35 1   
    37   17   36 1   
@<TRIPOS>SUBSTRUCTURE
     1 CKB         1 TEMP              0 ****  ****    0 ROOT
