@<TRIPOS>MOLECULE
CKC
   28    27     1     0     0
SMALL
bcc


@<TRIPOS>ATOM
      1 CAK        -0.0120    0.1160    0.2490 c3        1 CKC     -0.203100
      2 CAO         1.4390    0.1460   -0.0410 c         1 CKC      0.568100
      3 OAF         1.9550    0.2440   -1.1520 o         1 CKC     -0.472100
      4 CAR         2.3650    0.0340    1.2020 c3        1 CKC     -0.006500
      5 NAC         3.7020   -0.5240    0.8060 n4        1 CKC     -0.836600
      6 CAL         2.4730    1.4190    1.8470 c3        1 CKC     -0.110400
      7 CAH         2.9510    1.3770    3.2850 c3        1 CKC     -0.085400
      8 CAG         2.8330    2.7560    3.9130 c3        1 CKC     -0.110400
      9 CAI         3.2760    2.7010    5.3720 c3        1 CKC      0.100800
     10 NAM         3.1590    4.0160    6.0680 n4        1 CKC     -0.837600
     11 H1         -0.4300   -0.8790   -0.0680 hc        1 CKC      0.103700
     12 H2         -0.2350    0.2720    1.3310 hc        1 CKC      0.103700
     13 H3          1.9040   -0.6970    1.9330 hx        1 CKC      0.128700
     14 H4          3.6270   -1.5380    0.6610 hn        1 CKC      0.472467
     15 H5          4.4030   -0.3320    1.5240 hn        1 CKC      0.472467
     16 H7          3.1360    2.0880    1.2350 hc        1 CKC      0.098200
     17 H8          1.4400    1.8700    1.8150 hc        1 CKC      0.098200
     18 H9          2.3340    0.6430    3.8710 hc        1 CKC      0.061200
     19 H10         4.0190    1.0360    3.3330 hc        1 CKC      0.061200
     20 H11         3.4670    3.4840    3.3400 hc        1 CKC      0.082200
     21 H12         1.7660    3.1050    3.8440 hc        1 CKC      0.082200
     22 H13         4.3550    2.3760    5.4380 hx        1 CKC      0.118700
     23 H14         2.6420    1.9580    5.9410 hx        1 CKC      0.118700
     24 H15         2.1850    4.3410    6.0630 hn        1 CKC      0.472467
     25 H16         3.7410    4.7230    5.6030 hn        1 CKC      0.472467
     26 H18        -0.5370    0.9030   -0.3560 hc        1 CKC      0.103700
     27 HAC3        3.9950   -0.0940   -0.0870 hn        1 CKC      0.472467
     28 HAM3        3.4710    3.9220    7.0440 hn        1 CKC      0.472467
@<TRIPOS>BOND
     1    1    2 1   
     2    1   11 1   
     3    1   12 1   
     4    1   26 1   
     5    2    3 2   
     6    2    4 1   
     7    4    5 1   
     8    4    6 1   
     9    4   13 1   
    10    5   14 1   
    11    5   15 1   
    12    5   27 1   
    13    6    7 1   
    14    6   16 1   
    15    6   17 1   
    16    7    8 1   
    17    7   18 1   
    18    7   19 1   
    19    8    9 1   
    20    8   20 1   
    21    8   21 1   
    22    9   10 1   
    23    9   22 1   
    24    9   23 1   
    25   10   24 1   
    26   10   25 1   
    27   10   28 1   
@<TRIPOS>SUBSTRUCTURE
     1 CKC         1 TEMP              0 ****  ****    0 ROOT
