@<TRIPOS>MOLECULE
CKC
   28    27     1     0     0
SMALL
bcc


@<TRIPOS>ATOM
      1 CAK        -0.0070    0.0730    0.2670 c3        1 CKC     -0.203100
      2 CAO         1.4430    0.1230   -0.0310 c         1 CKC      0.568100
      3 OAF         1.9510    0.2250   -1.1450 o         1 CKC     -0.472100
      4 CAR         2.3770    0.0280    1.2070 c3        1 CKC     -0.006500
      5 NAC         3.7190   -0.5130    0.8050 nz        1 CKC     -0.836600
      6 CAL         2.4690    1.4160    1.8470 c3        1 CKC     -0.110400
      7 CAH         2.9540    1.3850    3.2830 c3        1 CKC     -0.085400
      8 CAG         2.8210    2.7650    3.9070 c3        1 CKC     -0.110400
      9 CAI         3.2710    2.7210    5.3640 c3        1 CKC      0.100800
     10 NAM         3.1410    4.0360    6.0560 nz        1 CKC     -0.837600
     11 H1         -0.5460    0.8500   -0.3390 hc        1 CKC      0.103700
     12 H2         -0.4120   -0.9280   -0.0430 hc        1 CKC      0.103700
     13 H3          1.9290   -0.7060    1.9430 hx        1 CKC      0.128700
     14 H4          4.0010   -0.0820   -0.0900 hn        1 CKC      0.472467
     15 H5          4.4210   -0.3090    1.5190 hn        1 CKC      0.472467
     16 H7          3.1200    2.0930    1.2300 hc        1 CKC      0.098200
     17 H8          1.4300    1.8540    1.8190 hc        1 CKC      0.098200
     18 H9          4.0270    1.0590    3.3270 hc        1 CKC      0.061200
     19 H10         2.3500    0.6460    3.8740 hc        1 CKC      0.061200
     20 H11         1.7500    3.1000    3.8410 hc        1 CKC      0.082200
     21 H12         3.4440    3.4990    3.3280 hc        1 CKC      0.082200
     22 H13         4.3550    2.4100    5.4260 hx        1 CKC      0.118700
     23 H14         2.6490    1.9720    5.9380 hx        1 CKC      0.118700
     24 H15         2.1630    4.3490    6.0540 hn        1 CKC      0.472467
     25 H16         3.7120    4.7490    5.5860 hn        1 CKC      0.472467
     26 H18        -0.2260    0.2320    1.3490 hc        1 CKC      0.103700
     27 HAC3        3.6560   -1.5280    0.6640 hn        1 CKC      0.472467
     28 HAM3        3.4580    3.9490    7.0310 hn        1 CKC      0.472467
@<TRIPOS>BOND
     1    1    2 1   
     2    1   11 1   
     3    1   12 1   
     4    1   26 1   
     5    2    3 2   
     6    2    4 1   
     7    4    5 1   
     8    4    6 1   
     9    4   13 1   
    10    5   14 1   
    11    5   15 1   
    12    5   27 1   
    13    6    7 1   
    14    6   16 1   
    15    6   17 1   
    16    7    8 1   
    17    7   18 1   
    18    7   19 1   
    19    8    9 1   
    20    8   20 1   
    21    8   21 1   
    22    9   10 1   
    23    9   22 1   
    24    9   23 1   
    25   10   24 1   
    26   10   25 1   
    27   10   28 1   
@<TRIPOS>SUBSTRUCTURE
     1 CKC         1 TEMP              0 ****  ****    0 ROOT
