@<TRIPOS>MOLECULE
CKC
   26    25     1     0     0
SMALL
bcc


@<TRIPOS>ATOM
      1 CAK         0.0540    0.1960    0.1470 c3        1 CKC     -0.201100
      2 CAO         1.5180   -0.0570   -0.0080 c         1 CKC      0.526100
      3 OAF         2.0380   -0.2510   -1.1120 o         1 CKC     -0.540100
      4 CAR         2.3430   -0.0840    1.2840 c3        1 CKC      0.069500
      5 NAC         3.6880   -0.6040    1.1380 n3        1 CKC     -0.886800
      6 CAL         2.3100    1.3230    1.9000 c3        1 CKC     -0.069400
      7 CAH         2.8690    1.3340    3.3060 c3        1 CKC     -0.076400
      8 CAG         2.7200    2.7040    3.9320 c3        1 CKC     -0.084400
      9 CAI         3.2890    2.6980    5.3500 c3        1 CKC      0.158800
     10 NAM         3.1330    3.9600    6.0340 n3        1 CKC     -0.916800
     11 H1         -0.1400    1.2940    0.0520 hc        1 CKC      0.066033
     12 H2         -0.3110   -0.1470    1.1440 hc        1 CKC      0.066033
     13 H3          1.8060   -0.7900    1.9900 h1        1 CKC      0.076700
     14 H4          4.2720    0.0630    0.6710 hn        1 CKC      0.355300
     15 H5          3.6690   -1.4450    0.5930 hn        1 CKC      0.355300
     16 H7          2.8870    2.0360    1.2550 hc        1 CKC      0.046200
     17 H8          1.2430    1.6720    1.9200 hc        1 CKC      0.046200
     18 H9          3.9510    1.0400    3.2890 hc        1 CKC      0.052200
     19 H10         2.3300    0.5730    3.9300 hc        1 CKC      0.052200
     20 H11         1.6380    2.9970    3.9570 hc        1 CKC      0.045200
     21 H12         3.2570    3.4650    3.3060 hc        1 CKC      0.045200
     22 H13         4.3710    2.3700    5.2900 h1        1 CKC      0.025700
     23 H14         2.7440    1.9190    5.9560 h1        1 CKC      0.025700
     24 H15         3.6140    3.9410    6.9110 hn        1 CKC      0.348300
     25 H16         3.4840    4.7160    5.4810 hn        1 CKC      0.348300
     26 H18        -0.5190   -0.3310   -0.6540 hc        1 CKC      0.066033
@<TRIPOS>BOND
     1    1    2 1   
     2    1   11 1   
     3    1   12 1   
     4    1   26 1   
     5    2    3 2   
     6    2    4 1   
     7    4    5 1   
     8    4    6 1   
     9    4   13 1   
    10    5   14 1   
    11    5   15 1   
    12    6    7 1   
    13    6   16 1   
    14    6   17 1   
    15    7    8 1   
    16    7   18 1   
    17    7   19 1   
    18    8    9 1   
    19    8   20 1   
    20    8   21 1   
    21    9   10 1   
    22    9   22 1   
    23    9   23 1   
    24   10   24 1   
    25   10   25 1   
@<TRIPOS>SUBSTRUCTURE
     1 CKC         1 TEMP              0 ****  ****    0 ROOT
