@<TRIPOS>MOLECULE
CKE
   66    70     1     0     0
SMALL
bcc


@<TRIPOS>ATOM
      1 C11         0.2280    0.2480    0.0360 cc        1 CKE      0.004700
      2 C12        -0.5900    0.2440   -1.2060 c3        1 CKE      0.019100
      3 C13        -1.0600   -1.1090   -1.6080 ca        1 CKE     -0.152300
      4 C14        -0.1490   -2.1470   -1.8310 ca        1 CKE     -0.090500
      5 C15        -0.5770   -3.4010   -2.2430 ca        1 CKE     -0.180000
      6 C16        -1.9540   -3.6670   -2.4550 ca        1 CKE      0.170600
      7 C20        -1.6150   -5.6780   -3.7870 c3        1 CKE      0.154300
      8 C21        -2.0470   -7.1520   -3.9500 c3        1 CKE      0.160800
      9 C24        -3.8210   -5.1780   -2.8680 c3        1 CKE      0.154300
     10 C27        -1.7700   -1.7550    2.3490 c3        1 CKE     -0.088400
     11 C30        -3.9880   -1.0450    3.2710 c3        1 CKE     -0.082400
     12 C31        -3.9800   -7.1380   -5.4220 c3        1 CKE      0.147100
     13 N01         3.1910    0.5380    3.5350 nb        1 CKE     -0.762000
     14 C02         3.1680    0.6840    2.2050 ca        1 CKE      0.490200
     15 C03         1.9870    0.4930    1.4660 ca        1 CKE     -0.273400
     16 C04         0.7870    0.1080    2.2270 ca        1 CKE      0.428800
     17 N05         0.8000   -0.0510    3.5850 nb        1 CKE     -0.646000
     18 C06         2.0070    0.1890    4.1540 ca        1 CKE      0.538300
     19 C07         1.5940    0.5710    0.0990 cd        1 CKE     -0.177200
     20 N08        -0.2680   -0.0410    1.3200 na        1 CKE     -0.125100
     21 N10         3.3020   -0.5490    6.1540 nz        1 CKE     -0.832600
     22 C17        -2.8630   -2.6020   -2.2420 ca        1 CKE     -0.180000
     23 C18        -2.4190   -1.3550   -1.8210 ca        1 CKE     -0.090500
     24 N19        -2.3860   -4.9700   -2.7770 nh        1 CKE     -0.638000
     25 N22        -3.4750   -7.3720   -4.0870 n3        1 CKE     -0.718600
     26 C23        -4.2020   -6.6650   -3.0490 c3        1 CKE      0.160800
     27 C25        -1.6420   -0.3970    1.6380 c3        1 CKE      0.044000
     28 C26        -2.3610    0.6820    2.4660 c3        1 CKE     -0.088400
     29 C28        -3.8220    0.3150    2.6260 c3        1 CKE     -0.077900
     30 C29        -3.2350   -2.1110    2.5030 c3        1 CKE     -0.077900
     31 C09         2.0490    0.1090    5.6760 c3        1 CKE      0.089500
     32 H121        0.0500    0.6680   -2.0320 hc        1 CKE      0.077200
     33 H122       -1.4660    0.9400   -1.0770 hc        1 CKE      0.077200
     34 H14         0.9270   -1.9670   -1.6780 ha        1 CKE      0.130500
     35 H15         0.1760   -4.1890   -2.3900 ha        1 CKE      0.141000
     36 H201       -1.7000   -5.1600   -4.7860 h1        1 CKE      0.043700
     37 H202       -0.5310   -5.6780   -3.4880 h1        1 CKE      0.043700
     38 H211       -1.7130   -7.7310   -3.0430 h1        1 CKE      0.063950
     39 H212       -1.5130   -7.5660   -4.8490 h1        1 CKE      0.063950
     40 H241       -4.2890   -4.8220   -1.9070 h1        1 CKE      0.043700
     41 H242       -4.2650   -4.5840   -3.7200 h1        1 CKE      0.043700
     42 H271       -1.2530   -2.5500    1.7520 hc        1 CKE      0.055700
     43 H272       -1.2890   -1.7100    3.3590 hc        1 CKE      0.055700
     44 H301       -3.6120   -1.0070    4.3270 hc        1 CKE      0.048700
     45 H302       -5.0770   -1.3100    3.3110 hc        1 CKE      0.048700
     46 H311       -3.8790   -6.0700   -5.7590 h1        1 CKE      0.036700
     47 H312       -5.0650   -7.4200   -5.4520 h1        1 CKE      0.036700
     48 H313       -3.4210   -7.7930   -6.1390 h1        1 CKE      0.036700
     49 H02         4.1200    0.9650    1.7170 h4        1 CKE      0.048100
     50 H07         2.2280    0.8350   -0.7440 ha        1 CKE      0.179000
     51 H101        3.4020   -1.4700    5.7140 hn        1 CKE      0.465133
     52 H102        3.2750   -0.6560    7.1700 hn        1 CKE      0.465133
     53 H17        -3.9420   -2.7370   -2.4150 ha        1 CKE      0.141000
     54 H18        -3.1530   -0.5480   -1.6710 ha        1 CKE      0.130500
     55 H231       -5.3060   -6.7100   -3.2620 h1        1 CKE      0.063950
     56 H232       -4.0060   -7.2100   -2.0830 h1        1 CKE      0.063950
     57 H25        -2.1750   -0.4860    0.6380 h1        1 CKE      0.088700
     58 H261       -1.8810    0.7710    3.4750 hc        1 CKE      0.055700
     59 H262       -2.2800    1.6780    1.9580 hc        1 CKE      0.055700
     60 H281       -4.3270    1.0940    3.2550 hc        1 CKE      0.051700
     61 H282       -4.3230    0.3180    1.6220 hc        1 CKE      0.051700
     62 H291       -3.6990   -2.2450    1.4900 hc        1 CKE      0.051700
     63 H292       -3.3170   -3.0920    3.0410 hc        1 CKE      0.051700
     64 H091        2.0210    1.1560    6.0980 hx        1 CKE      0.122700
     65 H092        1.1710   -0.4780    6.0740 hx        1 CKE      0.122700
     66 H103        4.1190    0.0210    5.8930 hn        1 CKE      0.465133
@<TRIPOS>BOND
     1    1    2 1   
     2    1   19 2   
     3    1   20 1   
     4    2    3 1   
     5    2   32 1   
     6    2   33 1   
     7    3    4 ar  
     8    3   23 ar  
     9    4    5 ar  
    10    4   34 1   
    11    5    6 ar  
    12    5   35 1   
    13    6   22 ar  
    14    6   24 1   
    15    7    8 1   
    16    7   24 1   
    17    7   36 1   
    18    7   37 1   
    19    8   25 1   
    20    8   38 1   
    21    8   39 1   
    22    9   24 1   
    23    9   26 1   
    24    9   40 1   
    25    9   41 1   
    26   10   27 1   
    27   10   30 1   
    28   10   42 1   
    29   10   43 1   
    30   11   29 1   
    31   11   30 1   
    32   11   44 1   
    33   11   45 1   
    34   12   25 1   
    35   12   46 1   
    36   12   47 1   
    37   12   48 1   
    38   13   14 ar  
    39   13   18 ar  
    40   14   15 ar  
    41   14   49 1   
    42   15   16 ar  
    43   15   19 1   
    44   16   17 ar  
    45   16   20 1   
    46   17   18 ar  
    47   18   31 1   
    48   19   50 1   
    49   20   27 1   
    50   21   31 1   
    51   21   51 1   
    52   21   52 1   
    53   21   66 1   
    54   22   23 ar  
    55   22   53 1   
    56   23   54 1   
    57   25   26 1   
    58   26   55 1   
    59   26   56 1   
    60   27   28 1   
    61   27   57 1   
    62   28   29 1   
    63   28   58 1   
    64   28   59 1   
    65   29   60 1   
    66   29   61 1   
    67   30   62 1   
    68   30   63 1   
    69   31   64 1   
    70   31   65 1   
@<TRIPOS>SUBSTRUCTURE
     1 CKE         1 TEMP              0 ****  ****    0 ROOT
