@<TRIPOS>MOLECULE
CKE
   66    70     1     0     0
SMALL
bcc


@<TRIPOS>ATOM
      1 C11         0.2460    0.2400    0.0410 cc        1 CKE      0.004700
      2 C12        -0.5630    0.2390   -1.2060 c3        1 CKE      0.019100
      3 C13        -1.0390   -1.1120   -1.6080 ca        1 CKE     -0.152300
      4 C14        -0.1340   -2.1570   -1.8230 ca        1 CKE     -0.090500
      5 C15        -0.5680   -3.4080   -2.2340 ca        1 CKE     -0.180000
      6 C16        -1.9450   -3.6660   -2.4560 ca        1 CKE      0.170600
      7 C20        -1.6090   -5.6830   -3.7790 c3        1 CKE      0.154300
      8 C21        -2.0500   -7.1550   -3.9420 c3        1 CKE      0.160800
      9 C24        -3.8190   -5.1650   -2.8790 c3        1 CKE      0.154300
     10 C27        -1.7850   -1.7400    2.3460 c3        1 CKE     -0.088400
     11 C30        -4.0040   -1.0090    3.2490 c3        1 CKE     -0.082400
     12 C31        -3.9710   -7.1300   -5.4290 c3        1 CKE      0.147100
     13 N01         3.1860    0.5140    3.5610 nb        1 CKE     -0.762000
     14 C02         3.1730    0.6580    2.2310 ca        1 CKE      0.490200
     15 C03         1.9970    0.4740    1.4840 ca        1 CKE     -0.273400
     16 C04         0.7880    0.1010    2.2370 ca        1 CKE      0.428800
     17 N05         0.7910   -0.0540    3.5950 nb        1 CKE     -0.646000
     18 C06         1.9950    0.1770    4.1730 ca        1 CKE      0.538300
     19 C07         1.6140    0.5520    0.1140 cd        1 CKE     -0.177200
     20 N08        -0.2620   -0.0420    1.3230 na        1 CKE     -0.125100
     21 N10         3.2690   -0.5680    6.1830 n4        1 CKE     -0.832600
     22 C17        -2.8480   -2.5950   -2.2520 ca        1 CKE     -0.180000
     23 C18        -2.3980   -1.3490   -1.8300 ca        1 CKE     -0.090500
     24 N19        -2.3830   -4.9670   -2.7770 nh        1 CKE     -0.638000
     25 N22        -3.4790   -7.3650   -4.0900 n3        1 CKE     -0.718600
     26 C23        -4.2090   -6.6500   -3.0590 c3        1 CKE      0.160800
     27 C25        -1.6410   -0.3850    1.6320 c3        1 CKE      0.045000
     28 C26        -2.3570    0.7020    2.4520 c3        1 CKE     -0.088400
     29 C28        -3.8220    0.3480    2.6010 c3        1 CKE     -0.077900
     30 C29        -3.2540   -2.0840    2.4900 c3        1 CKE     -0.077900
     31 C09         2.0260    0.1010    5.6950 c3        1 CKE      0.089500
     32 H121       -1.4350    0.9410   -1.0850 hc        1 CKE      0.077200
     33 H122        0.0850    0.6560   -2.0290 hc        1 CKE      0.077200
     34 H14         0.9420   -1.9840   -1.6620 ha        1 CKE      0.130500
     35 H15         0.1810   -4.2020   -2.3740 ha        1 CKE      0.141000
     36 H201       -1.6820   -5.1670   -4.7800 h1        1 CKE      0.043700
     37 H202       -0.5270   -5.6910   -3.4700 h1        1 CKE      0.043700
     38 H211       -1.7280   -7.7340   -3.0300 h1        1 CKE      0.063950
     39 H212       -1.5120   -7.5750   -4.8350 h1        1 CKE      0.063950
     40 H241       -4.2920   -4.8030   -1.9230 h1        1 CKE      0.043700
     41 H242       -4.2520   -4.5700   -3.7360 h1        1 CKE      0.043700
     42 H271       -1.3120   -1.6960    3.3600 hc        1 CKE      0.055700
     43 H272       -1.2700   -2.5420    1.7560 hc        1 CKE      0.055700
     44 H301       -3.6350   -0.9710    4.3080 hc        1 CKE      0.048700
     45 H302       -5.0950   -1.2650    3.2810 hc        1 CKE      0.048700
     46 H311       -5.0580   -7.4050   -5.4670 h1        1 CKE      0.036700
     47 H312       -3.4100   -7.7920   -6.1400 h1        1 CKE      0.036700
     48 H313       -3.8600   -6.0640   -5.7680 h1        1 CKE      0.036700
     49 H02         4.1310    0.9300    1.7490 h4        1 CKE      0.048100
     50 H07         2.2560    0.8090   -0.7260 ha        1 CKE      0.179000
     51 H101        3.3620   -1.4910    5.7460 hn        1 CKE      0.465133
     52 H102        4.0930   -0.0080    5.9260 hn        1 CKE      0.465133
     53 H17        -3.9270   -2.7220   -2.4320 ha        1 CKE      0.141000
     54 H18        -3.1280   -0.5370   -1.6880 ha        1 CKE      0.130500
     55 H231       -4.0250   -7.1940   -2.0900 h1        1 CKE      0.063950
     56 H232       -5.3110   -6.6870   -3.2810 h1        1 CKE      0.063950
     57 H25        -2.1670   -0.4740    0.6280 h1        1 CKE      0.088700
     58 H261       -1.8840    0.7900    3.4640 hc        1 CKE      0.055700
     59 H262       -2.2630    1.6950    1.9400 hc        1 CKE      0.055700
     60 H281       -4.3160    0.3520    1.5940 hc        1 CKE      0.051700
     61 H282       -4.3250    1.1330    3.2240 hc        1 CKE      0.051700
     62 H291       -3.7120   -2.2170    1.4740 hc        1 CKE      0.051700
     63 H292       -3.3480   -3.0620    3.0300 hc        1 CKE      0.051700
     64 H091        1.1390   -0.4770    6.0880 hx        1 CKE      0.122700
     65 H092        2.0050    1.1490    6.1140 hx        1 CKE      0.122700
     66 H103        3.2340   -0.6720    7.1990 hn        1 CKE      0.465133
@<TRIPOS>BOND
     1    1    2 1   
     2    1   19 2   
     3    1   20 1   
     4    2    3 1   
     5    2   32 1   
     6    2   33 1   
     7    3    4 ar  
     8    3   23 ar  
     9    4    5 ar  
    10    4   34 1   
    11    5    6 ar  
    12    5   35 1   
    13    6   22 ar  
    14    6   24 1   
    15    7    8 1   
    16    7   24 1   
    17    7   36 1   
    18    7   37 1   
    19    8   25 1   
    20    8   38 1   
    21    8   39 1   
    22    9   24 1   
    23    9   26 1   
    24    9   40 1   
    25    9   41 1   
    26   10   27 1   
    27   10   30 1   
    28   10   42 1   
    29   10   43 1   
    30   11   29 1   
    31   11   30 1   
    32   11   44 1   
    33   11   45 1   
    34   12   25 1   
    35   12   46 1   
    36   12   47 1   
    37   12   48 1   
    38   13   14 ar  
    39   13   18 ar  
    40   14   15 ar  
    41   14   49 1   
    42   15   16 ar  
    43   15   19 1   
    44   16   17 ar  
    45   16   20 1   
    46   17   18 ar  
    47   18   31 1   
    48   19   50 1   
    49   20   27 1   
    50   21   31 1   
    51   21   51 1   
    52   21   52 1   
    53   21   66 1   
    54   22   23 ar  
    55   22   53 1   
    56   23   54 1   
    57   25   26 1   
    58   26   55 1   
    59   26   56 1   
    60   27   28 1   
    61   27   57 1   
    62   28   29 1   
    63   28   58 1   
    64   28   59 1   
    65   29   60 1   
    66   29   61 1   
    67   30   62 1   
    68   30   63 1   
    69   31   64 1   
    70   31   65 1   
@<TRIPOS>SUBSTRUCTURE
     1 CKE         1 TEMP              0 ****  ****    0 ROOT
