@<TRIPOS>MOLECULE
CKE
   65    58     1     0     0
SMALL
bcc


@<TRIPOS>ATOM
      1 C11        -0.0510    1.7760    0.6460 c1        1 CKE     -0.015000
      2 C12        -0.3630    2.0250   -0.7970 c2        1 CKE     -0.064000
      3 C13        -0.0740    0.7580   -1.6130 c1        1 CKE     -0.115000
      4 C14         1.2430    0.2560   -1.7090 c1        1 CKE     -0.125500
      5 C15         1.5000   -0.8800   -2.4710 c1        1 CKE     -0.125500
      6 C16         0.4600   -1.5140   -3.1330 c1        1 CKE      0.064000
      7 C20         1.6550   -2.4280   -4.9200 c3        1 CKE     -0.083000
      8 C21         2.1860   -3.6610   -5.6250 c3        1 CKE     -0.077500
      9 C24         0.0930   -3.7690   -3.7680 c3        1 CKE     -0.083000
     10 C27        -2.1590    0.7390    3.3870 c3        1 CKE     -0.171500
     11 C30        -3.9950    2.2120    4.2340 c3        1 CKE     -0.160000
     12 C31         0.1790   -4.3290   -6.6470 c3        1 CKE     -0.129000
     13 N01         3.1060    1.8290    3.9350 n1        1 CKE     -0.212000
     14 C02         2.9890    1.9000    2.5770 c1        1 CKE      0.016000
     15 C03         1.7300    1.8970    1.9880 c1        1 CKE     -0.182000
     16 C04         0.6120    1.8230    2.7700 c1        1 CKE      0.062000
     17 N05         0.7350    1.7530    4.1410 n1        1 CKE     -0.176000
     18 C06         1.9770    1.7560    4.7210 c1        1 CKE     -0.019000
     19 C07         1.3310    1.8690    0.6720 c1        1 CKE     -0.180000
     20 N08        -0.4960    1.7470    1.9310 n1        1 CKE     -0.135000
     21 N10         3.4980    2.4080    6.5100 n3        1 CKE     -0.328000
     22 C17        -0.8430   -1.0090   -3.0320 c1        1 CKE     -0.184000
     23 C18        -1.0960    0.1280   -2.2690 c1        1 CKE     -0.102000
     24 N19         1.0770   -2.7230   -3.6810 n3        1 CKE     -0.236000
     25 N22         1.2070   -4.7070   -5.7130 n3        1 CKE     -0.245000
     26 C23         0.6280   -5.0070   -4.4740 c3        1 CKE     -0.077500
     27 C25        -1.8960    1.7350    2.2320 c2        1 CKE      0.041000
     28 C26        -2.3240    3.1450    2.5780 c3        1 CKE     -0.171500
     29 C28        -3.7290    3.2080    3.0790 c3        1 CKE     -0.153500
     30 C29        -3.5810    0.8120    3.8940 c3        1 CKE     -0.153500
     31 C09         2.4180    1.5000    6.1670 c3        1 CKE     -0.015000
     32 H121       -1.3250    2.2620   -0.8930 ha        1 CKE      0.104500
     33 H122        0.2290    2.8130   -1.1490 ha        1 CKE      0.104500
     34 H14         1.9580    0.7000   -1.2500 ha        1 CKE      0.139000
     35 H15         2.4210   -1.2340   -2.5400 ha        1 CKE      0.139000
     36 H201        1.0320   -2.0340   -5.4460 h1        1 CKE      0.080500
     37 H202        2.4240   -1.7750   -4.7740 h1        1 CKE      0.080500
     38 H211        2.9190   -3.9760   -5.1650 h1        1 CKE      0.100500
     39 H212        2.4650   -3.4080   -6.5400 h1        1 CKE      0.100500
     40 H241       -0.1990   -4.0250   -2.8300 h1        1 CKE      0.080500
     41 H242       -0.7060   -3.4220   -4.2750 h1        1 CKE      0.080500
     42 H271       -1.9780   -0.2100    3.0530 hc        1 CKE      0.100000
     43 H272       -1.5470    0.9390    4.1290 hc        1 CKE      0.100000
     44 H301       -3.4710    2.5190    5.0650 hc        1 CKE      0.083000
     45 H302       -4.9380    2.2210    4.4410 hc        1 CKE      0.083000
     46 H311       -0.5170   -4.9650   -6.6230 h1        1 CKE      0.072333
     47 H312        0.5490   -4.2950   -7.5300 h1        1 CKE      0.072333
     48 H313       -0.1630   -3.4780   -6.4150 h1        1 CKE      0.072333
     49 H02         3.8390    1.9540    1.9850 ha        1 CKE      0.162000
     50 H07         1.9250    1.9200   -0.1140 DU        1 CKE      0.159000
     51 H101        4.2210    2.3110    5.8690 hn        1 CKE      0.153000
     52 H102        3.2040    3.2310    6.4940 hn        1 CKE      0.153000
     53 H17        -1.5380   -1.4290   -3.4730 ha        1 CKE      0.133000
     54 H18        -2.0090    0.4790   -2.2030 ha        1 CKE      0.128000
     55 H231       -0.1150   -5.6450   -4.6140 h1        1 CKE      0.100500
     56 H232        1.3510   -5.4580   -3.8610 h1        1 CKE      0.100500
     57 H25        -2.4130    1.4240    1.4020 ha        1 CKE      0.108000
     58 H261       -2.2480    3.7360    1.7310 hc        1 CKE      0.100000
     59 H262       -1.6850    3.5240    3.3110 hc        1 CKE      0.100000
     60 H281       -4.3730    2.9930    2.2940 hc        1 CKE      0.081000
     61 H282       -3.9140    4.1350    3.4030 hc        1 CKE      0.081000
     62 H291       -3.6560    0.2850    4.6540 hc        1 CKE      0.081000
     63 H292       -4.1650    0.4750    3.2250 hc        1 CKE      0.081000
     64 H091        1.6670    1.6470    6.7690 h1        1 CKE      0.111500
     65 H092        2.7410    0.5390    6.2600 h1        1 CKE      0.111500
@<TRIPOS>BOND
     1    1   19 1   
     2    1   20 1   
     3    2    3 1   
     4    2   32 1   
     5    2   33 1   
     6    3   23 1   
     7    4    5 1   
     8    4   34 1   
     9    5   35 1   
    10    6   22 1   
    11    6   24 1   
    12    7    8 1   
    13    7   24 1   
    14    7   36 1   
    15    7   37 1   
    16    8   25 1   
    17    8   38 1   
    18    8   39 1   
    19    9   24 1   
    20    9   26 1   
    21    9   40 1   
    22    9   41 1   
    23   10   27 1   
    24   10   30 1   
    25   10   42 1   
    26   10   43 1   
    27   11   29 1   
    28   11   30 1   
    29   11   44 1   
    30   11   45 1   
    31   12   25 1   
    32   12   46 1   
    33   12   47 1   
    34   12   48 1   
    35   13   18 1   
    36   14   15 1   
    37   14   49 1   
    38   16   17 1   
    39   18   31 1   
    40   21   31 1   
    41   21   51 1   
    42   21   52 1   
    43   22   53 1   
    44   23   54 1   
    45   25   26 1   
    46   26   55 1   
    47   26   56 1   
    48   27   28 1   
    49   27   57 1   
    50   28   29 1   
    51   28   58 1   
    52   28   59 1   
    53   29   60 1   
    54   29   61 1   
    55   30   62 1   
    56   30   63 1   
    57   31   64 1   
    58   31   65 1   
@<TRIPOS>SUBSTRUCTURE
     1 CKE         1 TEMP              0 ****  ****    0 ROOT
