@<TRIPOS>MOLECULE
CKE
   66    70     1     0     0
SMALL
bcc


@<TRIPOS>ATOM
      1 C11         0.2710    0.2190    0.0510 cc        1 CKE      0.004700
      2 C12        -0.5300    0.2250   -1.2030 c3        1 CKE      0.019100
      3 C13        -1.0160   -1.1220   -1.6070 ca        1 CKE     -0.152300
      4 C14        -0.1200   -2.1760   -1.8140 ca        1 CKE     -0.090500
      5 C15        -0.5630   -3.4240   -2.2270 ca        1 CKE     -0.180000
      6 C16        -1.9410   -3.6680   -2.4590 ca        1 CKE      0.170600
      7 C20        -1.6160   -5.6890   -3.7790 c3        1 CKE      0.154300
      8 C21        -2.0710   -7.1570   -3.9440 c3        1 CKE      0.160800
      9 C24        -3.8270   -5.1490   -2.8940 c3        1 CKE      0.154300
     10 C27        -1.7920   -1.7440    2.3410 c3        1 CKE     -0.088400
     11 C30        -4.0110   -0.9950    3.2290 c3        1 CKE     -0.082400
     12 C31        -3.9810   -7.1140   -5.4440 c3        1 CKE      0.147100
     13 N01         3.1880    0.4710    3.5910 nb        1 CKE     -0.762000
     14 C02         3.1860    0.6140    2.2600 ca        1 CKE      0.490200
     15 C03         2.0130    0.4400    1.5050 ca        1 CKE     -0.273400
     16 C04         0.7960    0.0760    2.2500 ca        1 CKE      0.428800
     17 N05         0.7880   -0.0780    3.6080 nb        1 CKE     -0.646000
     18 C06         1.9900    0.1440    4.1940 ca        1 CKE      0.538300
     19 C07         1.6410    0.5190    0.1320 cd        1 CKE     -0.177200
     20 N08        -0.2490   -0.0590    1.3280 na        1 CKE     -0.125100
     21 N10         3.2450   -0.6090    6.2140 n4        1 CKE     -0.832600
     22 C17        -2.8350   -2.5870   -2.2630 ca        1 CKE     -0.180000
     23 C18        -2.3760   -1.3460   -1.8390 ca        1 CKE     -0.090500
     24 N19        -2.3900   -4.9640   -2.7830 nh        1 CKE     -0.638000
     25 N22        -3.5010   -7.3520   -4.1010 n3        1 CKE     -0.718600
     26 C23        -4.2310   -6.6290   -3.0760 c3        1 CKE      0.160800
     27 C25        -1.6320   -0.3900    1.6280 c3        1 CKE      0.044000
     28 C26        -2.3450    0.7030    2.4430 c3        1 CKE     -0.088400
     29 C28        -3.8140    0.3600    2.5830 c3        1 CKE     -0.077900
     30 C29        -3.2650   -2.0760    2.4750 c3        1 CKE     -0.077900
     31 C09         2.0090    0.0680    5.7160 c3        1 CKE      0.089500
     32 H121        0.1280    0.6350   -2.0210 hc        1 CKE      0.077200
     33 H122       -1.3960    0.9340   -1.0890 hc        1 CKE      0.077200
     34 H14         0.9560   -2.0140   -1.6450 ha        1 CKE      0.130500
     35 H15         0.1790   -4.2250   -2.3610 ha        1 CKE      0.141000
     36 H201       -1.6770   -5.1730   -4.7810 h1        1 CKE      0.043700
     37 H202       -0.5370   -5.7070   -3.4630 h1        1 CKE      0.043700
     38 H211       -1.5300   -7.5820   -4.8330 h1        1 CKE      0.063950
     39 H212       -1.7600   -7.7380   -3.0300 h1        1 CKE      0.063950
     40 H241       -4.3030   -4.7820   -1.9420 h1        1 CKE      0.043700
     41 H242       -4.2480   -4.5500   -3.7550 h1        1 CKE      0.043700
     42 H271       -1.2800   -2.5500    1.7540 hc        1 CKE      0.055700
     43 H272       -1.3250   -1.7040    3.3580 hc        1 CKE      0.055700
     44 H301       -5.1050   -1.2420    3.2540 hc        1 CKE      0.048700
     45 H302       -3.6500   -0.9600    4.2900 hc        1 CKE      0.048700
     46 H311       -3.8570   -6.0490   -5.7830 h1        1 CKE      0.036700
     47 H312       -5.0700   -7.3780   -5.4900 h1        1 CKE      0.036700
     48 H313       -3.4220   -7.7810   -6.1510 h1        1 CKE      0.036700
     49 H02         4.1490    0.8780    1.7850 h4        1 CKE      0.048100
     50 H07         2.2910    0.7710   -0.7030 ha        1 CKE      0.179000
     51 H101        3.2020   -0.7130    7.2300 hn        1 CKE      0.465133
     52 H102        4.0740   -0.0540    5.9630 hn        1 CKE      0.465133
     53 H17        -3.9140   -2.7040   -2.4500 ha        1 CKE      0.141000
     54 H18        -3.0990   -0.5260   -1.7020 ha        1 CKE      0.130500
     55 H231       -5.3310   -6.6560   -3.3060 h1        1 CKE      0.063950
     56 H232       -4.0590   -7.1750   -2.1060 h1        1 CKE      0.063950
     57 H25        -2.1520   -0.4740    0.6210 h1        1 CKE      0.088700
     58 H261       -2.2400    1.6950    1.9330 hc        1 CKE      0.055700
     59 H262       -1.8780    0.7870    3.4580 hc        1 CKE      0.055700
     60 H281       -4.3010    0.3680    1.5720 hc        1 CKE      0.051700
     61 H282       -4.3150    1.1490    3.2030 hc        1 CKE      0.051700
     62 H291       -3.7170   -2.2060    1.4560 hc        1 CKE      0.051700
     63 H292       -3.3700   -3.0530    3.0150 hc        1 CKE      0.051700
     64 H091        1.9920    1.1170    6.1350 hx        1 CKE      0.122700
     65 H092        1.1160   -0.5040    6.1040 hx        1 CKE      0.122700
     66 H103        3.3350   -1.5330    5.7780 hn        1 CKE      0.465133
@<TRIPOS>BOND
     1    1    2 1   
     2    1   19 2   
     3    1   20 1   
     4    2    3 1   
     5    2   32 1   
     6    2   33 1   
     7    3    4 ar  
     8    3   23 ar  
     9    4    5 ar  
    10    4   34 1   
    11    5    6 ar  
    12    5   35 1   
    13    6   22 ar  
    14    6   24 1   
    15    7    8 1   
    16    7   24 1   
    17    7   36 1   
    18    7   37 1   
    19    8   25 1   
    20    8   38 1   
    21    8   39 1   
    22    9   24 1   
    23    9   26 1   
    24    9   40 1   
    25    9   41 1   
    26   10   27 1   
    27   10   30 1   
    28   10   42 1   
    29   10   43 1   
    30   11   29 1   
    31   11   30 1   
    32   11   44 1   
    33   11   45 1   
    34   12   25 1   
    35   12   46 1   
    36   12   47 1   
    37   12   48 1   
    38   13   14 ar  
    39   13   18 ar  
    40   14   15 ar  
    41   14   49 1   
    42   15   16 ar  
    43   15   19 1   
    44   16   17 ar  
    45   16   20 1   
    46   17   18 ar  
    47   18   31 1   
    48   19   50 1   
    49   20   27 1   
    50   21   31 1   
    51   21   51 1   
    52   21   52 1   
    53   21   66 1   
    54   22   23 ar  
    55   22   53 1   
    56   23   54 1   
    57   25   26 1   
    58   26   55 1   
    59   26   56 1   
    60   27   28 1   
    61   27   57 1   
    62   28   29 1   
    63   28   58 1   
    64   28   59 1   
    65   29   60 1   
    66   29   61 1   
    67   30   62 1   
    68   30   63 1   
    69   31   64 1   
    70   31   65 1   
@<TRIPOS>SUBSTRUCTURE
     1 CKE         1 TEMP              0 ****  ****    0 ROOT
