@<TRIPOS>MOLECULE
CKE
   65    69     1     0     0
SMALL
bcc


@<TRIPOS>ATOM
      1 C11        -1.6390   -0.8460    1.9230 cc        1 CKE     -0.048300
      2 C12        -0.4710   -0.3340    2.6840 c3        1 CKE      0.026100
      3 C13         0.7680   -0.2000    1.8700 ca        1 CKE     -0.123300
      4 C14         1.2310   -1.2620    1.0850 ca        1 CKE     -0.097500
      5 C15         2.4060   -1.1540    0.3550 ca        1 CKE     -0.172000
      6 C16         3.1750    0.0360    0.3900 ca        1 CKE      0.145600
      7 C20         5.2830   -0.9380   -0.3260 c3        1 CKE      0.153800
      8 C21         6.4220   -0.8260   -1.3640 c3        1 CKE      0.159300
      9 C24         4.9430    1.4660   -0.4900 c3        1 CKE      0.153800
     10 C27        -1.6790    1.2760   -1.0460 c3        1 CKE     -0.091900
     11 C30        -2.1900    3.7280   -1.0320 c3        1 CKE     -0.080400
     12 C31         8.0600    0.6850   -0.4020 c3        1 CKE      0.147100
     13 N01        -5.2930   -2.8420   -0.0300 nb        1 CKE     -0.712000
     14 C02        -4.3650   -3.0960    0.8970 ca        1 CKE      0.476200
     15 C03        -3.3590   -2.1660    1.2140 ca        1 CKE     -0.321400
     16 C04        -3.3880   -0.9060    0.4740 ca        1 CKE      0.453800
     17 N05        -4.3350   -0.6270   -0.4720 nb        1 CKE     -0.708000
     18 C06        -5.2380   -1.6210   -0.6750 ca        1 CKE      0.650300
     19 C07        -2.2480   -2.0900    2.1150 cd        1 CKE     -0.168200
     20 N08        -2.3180   -0.1170    0.9230 na        1 CKE     -0.153100
     21 N10        -5.8180   -1.0240   -3.0140 n3        1 CKE     -0.913800
     22 C17         2.7010    1.1000    1.1890 ca        1 CKE     -0.172000
     23 C18         1.5150    0.9800    1.9070 ca        1 CKE     -0.097500
     24 N19         4.3250    0.1530   -0.4290 nh        1 CKE     -0.634000
     25 N22         7.0720    0.4720   -1.4360 n3        1 CKE     -0.719600
     26 C23         6.0850    1.5340   -1.5290 c3        1 CKE      0.159300
     27 C25        -1.9700    1.2120    0.4640 c3        1 CKE      0.061000
     28 C26        -3.0340    2.2660    0.8170 c3        1 CKE     -0.091900
     29 C28        -2.5400    3.6470    0.4390 c3        1 CKE     -0.075400
     30 C29        -1.1850    2.6610   -1.4140 c3        1 CKE     -0.075400
     31 C09        -6.3380   -1.3550   -1.7110 c3        1 CKE      0.131500
     32 H121       -0.7330    0.6530    3.1560 hc        1 CKE      0.065200
     33 H122       -0.2710   -1.0590    3.5240 hc        1 CKE      0.065200
     34 H14         0.6450   -2.1940    1.0390 ha        1 CKE      0.134500
     35 H15         2.7220   -2.0050   -0.2670 ha        1 CKE      0.136000
     36 H201        4.7480   -1.9100   -0.5080 h1        1 CKE      0.041200
     37 H202        5.7360   -0.9810    0.7080 h1        1 CKE      0.041200
     38 H211        7.1840   -1.6170   -1.1240 h1        1 CKE      0.061450
     39 H212        6.0030   -1.0370   -2.3880 h1        1 CKE      0.061450
     40 H241        4.1540    2.2100   -0.7930 h1        1 CKE      0.041200
     41 H242        5.3530    1.7770    0.5160 h1        1 CKE      0.041200
     42 H271       -0.9010    0.5170   -1.3180 hc        1 CKE      0.059950
     43 H272       -2.6070    1.0420   -1.6280 hc        1 CKE      0.059950
     44 H301       -3.1210    3.6000   -1.6450 hc        1 CKE      0.042700
     45 H302       -1.7700    4.7410   -1.2630 hc        1 CKE      0.042700
     46 H311        8.8270   -0.1310   -0.4610 h1        1 CKE      0.033033
     47 H312        8.5690    1.6670   -0.5850 h1        1 CKE      0.033033
     48 H313        7.6300    0.6950    0.6370 h1        1 CKE      0.033033
     49 H02        -4.4230   -4.0760    1.4040 h4        1 CKE      0.026100
     50 H07        -1.9370   -2.8560    2.8190 ha        1 CKE      0.159000
     51 H101       -6.5660   -0.7380   -3.6130 hn        1 CKE      0.356800
     52 H102       -5.1310   -0.2980   -2.9730 hn        1 CKE      0.356800
     53 H17         3.2590    2.0460    1.2610 ha        1 CKE      0.136000
     54 H18         1.1700    1.8290    2.5170 ha        1 CKE      0.134500
     55 H231        5.6410    1.4760   -2.5620 h1        1 CKE      0.061450
     56 H232        6.5910    2.5310   -1.4170 h1        1 CKE      0.061450
     57 H25        -1.0110    1.4890    1.0050 h1        1 CKE      0.068700
     58 H261       -3.9860    2.0410    0.2700 hc        1 CKE      0.059950
     59 H262       -3.2550    2.2360    1.9160 hc        1 CKE      0.059950
     60 H281       -1.6380    3.9060    1.0530 hc        1 CKE      0.042200
     61 H282       -3.3360    4.3990    0.6780 hc        1 CKE      0.042200
     62 H291       -0.2080    2.8630   -0.9000 hc        1 CKE      0.042200
     63 H292       -0.9970    2.7000   -2.5190 hc        1 CKE      0.042200
     64 H091       -6.9710   -2.2820   -1.8280 h1        1 CKE      0.048200
     65 H092       -6.9970   -0.5460   -1.2710 h1        1 CKE      0.048200
@<TRIPOS>BOND
     1    1    2 1   
     2    1   19 2   
     3    1   20 1   
     4    2    3 1   
     5    2   32 1   
     6    2   33 1   
     7    3    4 ar  
     8    3   23 ar  
     9    4    5 ar  
    10    4   34 1   
    11    5    6 ar  
    12    5   35 1   
    13    6   22 ar  
    14    6   24 1   
    15    7    8 1   
    16    7   24 1   
    17    7   36 1   
    18    7   37 1   
    19    8   25 1   
    20    8   38 1   
    21    8   39 1   
    22    9   24 1   
    23    9   26 1   
    24    9   40 1   
    25    9   41 1   
    26   10   27 1   
    27   10   30 1   
    28   10   42 1   
    29   10   43 1   
    30   11   29 1   
    31   11   30 1   
    32   11   44 1   
    33   11   45 1   
    34   12   25 1   
    35   12   46 1   
    36   12   47 1   
    37   12   48 1   
    38   13   14 ar  
    39   13   18 ar  
    40   14   15 ar  
    41   14   49 1   
    42   15   16 ar  
    43   15   19 1   
    44   16   17 ar  
    45   16   20 1   
    46   17   18 ar  
    47   18   31 1   
    48   19   50 1   
    49   20   27 1   
    50   21   31 1   
    51   21   51 1   
    52   21   52 1   
    53   22   23 ar  
    54   22   53 1   
    55   23   54 1   
    56   25   26 1   
    57   26   55 1   
    58   26   56 1   
    59   27   28 1   
    60   27   57 1   
    61   28   29 1   
    62   28   58 1   
    63   28   59 1   
    64   29   60 1   
    65   29   61 1   
    66   30   62 1   
    67   30   63 1   
    68   31   64 1   
    69   31   65 1   
@<TRIPOS>SUBSTRUCTURE
     1 CKE         1 TEMP              0 ****  ****    0 ROOT
