@<TRIPOS>MOLECULE
CKG
   56    60     1     0     0
SMALL
bcc


@<TRIPOS>ATOM
      1 O9         -0.0550    0.6080    0.3400 o         1 CKG     -0.429100
      2 C8          1.1430    0.4960    0.1280 c         1 CKG      0.513600
      3 N24         2.0160    0.6150    1.3730 n4        1 CKG     -0.755400
      4 C5          1.8570    0.2780   -1.0990 cc        1 CKG      0.153800
      5 C4          1.2690    0.1470   -2.4050 cc        1 CKG     -0.100600
      6 C2         -0.1190    0.1520   -2.8750 c3        1 CKG     -0.025100
      7 N6          3.2440    0.1810   -1.2010 nd        1 CKG     -0.502800
      8 N7          3.5410    0.0080   -2.4690 na        1 CKG      0.229400
      9 C17         4.9260   -0.1320   -2.9480 c3        1 CKG      0.036300
     10 C25         5.4050   -1.5810   -3.0820 c3        1 CKG     -0.076700
     11 C30         6.7450   -1.5560   -3.8090 c3        1 CKG     -0.077400
     12 C29         7.3410   -2.9610   -3.8920 c3        1 CKG      0.165800
     13 N28         7.4350   -3.6090   -2.5990 n3        1 CKG     -0.823200
     14 C27         6.1820   -3.6390   -1.8750 c3        1 CKG      0.165800
     15 C26         5.5510   -2.2530   -1.7270 c3        1 CKG     -0.077400
     16 C3          2.3810   -0.0290   -3.2670 cd        1 CKG     -0.170800
     17 C11         2.2030   -0.1830   -4.7050 ca        1 CKG      0.509800
     18 N18         3.2270   -0.5760   -5.4960 nb        1 CKG     -0.705000
     19 C12         2.9550   -0.6940   -6.8470 ca        1 CKG      0.868000
     20 N13         1.6960   -0.4950   -7.4070 nb        1 CKG     -0.691000
     21 C14         0.7170   -0.1140   -6.5820 ca        1 CKG      0.458200
     22 C10         0.8970    0.0780   -5.1910 ca        1 CKG     -0.317900
     23 C1         -0.2100    0.5700   -4.3370 c3        1 CKG     -0.022100
     24 N15         4.0710   -0.8930   -7.7030 ne        1 CKG     -0.665700
     25 C16         4.1760   -1.9050   -8.5160 cf        1 CKG      0.607900
     26 C23         5.3480   -1.9520   -9.4140 cf        1 CKG     -0.269600
     27 C22         5.5240   -2.9430  -10.2990 c2        1 CKG     -0.098700
     28 C21         4.5850   -4.0760  -10.4610 c3        1 CKG     -0.054000
     29 C20         3.4450   -4.0350   -9.5190 c2        1 CKG     -0.098700
     30 C19         3.2570   -3.0490   -8.6290 cf        1 CKG     -0.269600
     31 H241        2.6650    1.4000    1.2640 hn        1 CKG      0.468133
     32 H242        2.5610   -0.2440    1.4940 hn        1 CKG      0.468133
     33 H21C       -0.5440   -0.8840   -2.7490 hc        1 CKG      0.080200
     34 H22C       -0.7450    0.8420   -2.2460 hc        1 CKG      0.080200
     35 H11C       -0.2210    1.6950   -4.3970 hc        1 CKG      0.072200
     36 H12C       -1.1940    0.2110   -4.7470 hc        1 CKG      0.072200
     37 H171        4.9730    0.3790   -3.9520 h1        1 CKG      0.100200
     38 H172        5.6020    0.4180   -2.2300 h1        1 CKG      0.100200
     39 H25         4.6730   -2.1670   -3.7050 hc        1 CKG      0.080700
     40 H301        6.6060   -1.1650   -4.8500 hc        1 CKG      0.051450
     41 H302        7.4550   -0.8750   -3.2720 hc        1 CKG      0.051450
     42 H261        6.1880   -1.6190   -1.0560 hc        1 CKG      0.051450
     43 H262        4.5500   -2.3760   -1.2410 hc        1 CKG      0.051450
     44 H291        6.7230   -3.5610   -4.6240 h1        1 CKG      0.035950
     45 H292        8.3860   -2.8850   -4.3060 h1        1 CKG      0.035950
     46 H28         7.8010   -4.5370   -2.7000 hn        1 CKG      0.376800
     47 H271        6.3950   -4.0520   -0.8490 h1        1 CKG      0.035950
     48 H272        5.4210   -4.3180   -2.3640 h1        1 CKG      0.035950
     49 H14        -0.2750    0.0470   -7.0500 h4        1 CKG      0.043100
     50 H23         6.0740   -1.1240   -9.3350 ha        1 CKG      0.151000
     51 H19         2.3880   -3.0660   -7.9520 ha        1 CKG      0.151000
     52 H22         6.4010   -2.9510  -10.9670 ha        1 CKG      0.142000
     53 H211        5.1460   -5.0450  -10.3240 hc        1 CKG      0.089200
     54 H212        4.1900   -4.0790  -11.5180 hc        1 CKG      0.089200
     55 H20         2.7370   -4.8780   -9.5890 ha        1 CKG      0.142000
     56 H243        1.4280    0.7680    2.1990 hn        1 CKG      0.468133
@<TRIPOS>BOND
     1    1    2 2   
     2    2    3 1   
     3    2    4 1   
     4    3   31 1   
     5    3   32 1   
     6    3   56 1   
     7    4    5 1   
     8    4    7 2   
     9    5    6 1   
    10    5   16 2   
    11    6   23 1   
    12    6   33 1   
    13    6   34 1   
    14    7    8 1   
    15    8    9 1   
    16    8   16 1   
    17    9   10 1   
    18    9   37 1   
    19    9   38 1   
    20   10   11 1   
    21   10   15 1   
    22   10   39 1   
    23   11   12 1   
    24   11   40 1   
    25   11   41 1   
    26   12   13 1   
    27   12   44 1   
    28   12   45 1   
    29   13   14 1   
    30   13   46 1   
    31   14   15 1   
    32   14   47 1   
    33   14   48 1   
    34   15   42 1   
    35   15   43 1   
    36   16   17 1   
    37   17   18 ar  
    38   17   22 ar  
    39   18   19 ar  
    40   19   20 ar  
    41   19   24 1   
    42   20   21 ar  
    43   21   22 ar  
    44   21   49 1   
    45   22   23 1   
    46   23   35 1   
    47   23   36 1   
    48   24   25 2   
    49   25   26 1   
    50   25   30 1   
    51   26   27 2   
    52   26   50 1   
    53   27   28 1   
    54   27   52 1   
    55   28   29 1   
    56   28   53 1   
    57   28   54 1   
    58   29   30 2   
    59   29   55 1   
    60   30   51 1   
@<TRIPOS>SUBSTRUCTURE
     1 CKG         1 TEMP              0 ****  ****    0 ROOT
