@<TRIPOS>MOLECULE
CKG
   56    60     1     0     0
SMALL
bcc


@<TRIPOS>ATOM
      1 O9         -0.0490    0.6090    0.3410 o         1 CKG     -0.429100
      2 C8          1.1490    0.4990    0.1250 c         1 CKG      0.513600
      3 N24         2.0240    0.6200    1.3690 n4        1 CKG     -0.755400
      4 C5          1.8590    0.2810   -1.1020 cc        1 CKG      0.153800
      5 C4          1.2690    0.1470   -2.4070 cc        1 CKG     -0.100600
      6 C2         -0.1200    0.1500   -2.8740 c3        1 CKG     -0.025100
      7 N6          3.2470    0.1850   -1.2080 nd        1 CKG     -0.502800
      8 N7          3.5410    0.0100   -2.4770 na        1 CKG      0.229400
      9 C17         4.9240   -0.1280   -2.9580 c3        1 CKG      0.036300
     10 C25         5.4050   -1.5780   -3.0910 c3        1 CKG     -0.076700
     11 C30         6.7430   -1.5520   -3.8210 c3        1 CKG     -0.077400
     12 C29         7.3410   -2.9560   -3.9030 c3        1 CKG      0.165800
     13 N28         7.4390   -3.6020   -2.6100 n3        1 CKG     -0.823200
     14 C27         6.1870   -3.6330   -1.8830 c3        1 CKG      0.165800
     15 C26         5.5550   -2.2480   -1.7360 c3        1 CKG     -0.077400
     16 C3          2.3790   -0.0290   -3.2710 cd        1 CKG     -0.170800
     17 C11         2.1980   -0.1840   -4.7100 ca        1 CKG      0.509800
     18 N18         3.2200   -0.5770   -5.5020 nb        1 CKG     -0.705000
     19 C12         2.9440   -0.6970   -6.8520 ca        1 CKG      0.868000
     20 N13         1.6840   -0.5000   -7.4090 nb        1 CKG     -0.691000
     21 C14         0.7070   -0.1190   -6.5830 ca        1 CKG      0.458200
     22 C10         0.8900    0.0750   -5.1920 ca        1 CKG     -0.317900
     23 C1         -0.2150    0.5670   -4.3360 c3        1 CKG     -0.022100
     24 N15         4.0580   -0.8970   -7.7110 ne        1 CKG     -0.665700
     25 C16         4.1620   -1.9090   -8.5230 cf        1 CKG      0.607900
     26 C23         5.3320   -1.9560   -9.4240 cf        1 CKG     -0.269600
     27 C22         5.5060   -2.9470  -10.3090 c2        1 CKG     -0.098700
     28 C21         4.5680   -4.0810  -10.4680 c3        1 CKG     -0.054000
     29 C20         3.4300   -4.0400   -9.5230 c2        1 CKG     -0.098700
     30 C19         3.2430   -3.0540   -8.6340 cf        1 CKG     -0.269600
     31 H241        2.6720    1.4060    1.2580 hn        1 CKG      0.468133
     32 H242        1.4380    0.7730    2.1960 hn        1 CKG      0.468133
     33 H21C       -0.5440   -0.8860   -2.7460 hc        1 CKG      0.080200
     34 H22C       -0.7460    0.8400   -2.2440 hc        1 CKG      0.080200
     35 H11C       -1.2000    0.2070   -4.7430 hc        1 CKG      0.072200
     36 H12C       -0.2270    1.6920   -4.3960 hc        1 CKG      0.072200
     37 H171        4.9690    0.3810   -3.9640 h1        1 CKG      0.100200
     38 H172        5.6020    0.4230   -2.2440 h1        1 CKG      0.100200
     39 H25         4.6730   -2.1650   -3.7120 hc        1 CKG      0.080700
     40 H301        7.4540   -0.8700   -3.2860 hc        1 CKG      0.051450
     41 H302        6.6020   -1.1630   -4.8630 hc        1 CKG      0.051450
     42 H261        4.5550   -2.3710   -1.2470 hc        1 CKG      0.051450
     43 H262        6.1920   -1.6120   -1.0670 hc        1 CKG      0.051450
     44 H291        8.3850   -2.8800   -4.3200 h1        1 CKG      0.035950
     45 H292        6.7230   -3.5580   -4.6340 h1        1 CKG      0.035950
     46 H28         7.8060   -4.5300   -2.7100 hn        1 CKG      0.376800
     47 H271        6.4040   -4.0440   -0.8560 h1        1 CKG      0.035950
     48 H272        5.4260   -4.3130   -2.3690 h1        1 CKG      0.035950
     49 H14        -0.2860    0.0420   -7.0480 h4        1 CKG      0.043100
     50 H23         6.0580   -1.1280   -9.3470 ha        1 CKG      0.151000
     51 H19         2.3760   -3.0710   -7.9540 ha        1 CKG      0.151000
     52 H22         6.3810   -2.9560  -10.9800 ha        1 CKG      0.142000
     53 H211        5.1290   -5.0500  -10.3320 hc        1 CKG      0.089200
     54 H212        4.1690   -4.0850  -11.5240 hc        1 CKG      0.089200
     55 H20         2.7210   -4.8830   -9.5910 ha        1 CKG      0.142000
     56 H243        2.5700   -0.2380    1.4890 hn        1 CKG      0.468133
@<TRIPOS>BOND
     1    1    2 2   
     2    2    3 1   
     3    2    4 1   
     4    3   31 1   
     5    3   32 1   
     6    3   56 1   
     7    4    5 1   
     8    4    7 2   
     9    5    6 1   
    10    5   16 2   
    11    6   23 1   
    12    6   33 1   
    13    6   34 1   
    14    7    8 1   
    15    8    9 1   
    16    8   16 1   
    17    9   10 1   
    18    9   37 1   
    19    9   38 1   
    20   10   11 1   
    21   10   15 1   
    22   10   39 1   
    23   11   12 1   
    24   11   40 1   
    25   11   41 1   
    26   12   13 1   
    27   12   44 1   
    28   12   45 1   
    29   13   14 1   
    30   13   46 1   
    31   14   15 1   
    32   14   47 1   
    33   14   48 1   
    34   15   42 1   
    35   15   43 1   
    36   16   17 1   
    37   17   18 ar  
    38   17   22 ar  
    39   18   19 ar  
    40   19   20 ar  
    41   19   24 1   
    42   20   21 ar  
    43   21   22 ar  
    44   21   49 1   
    45   22   23 1   
    46   23   35 1   
    47   23   36 1   
    48   24   25 2   
    49   25   26 1   
    50   25   30 1   
    51   26   27 2   
    52   26   50 1   
    53   27   28 1   
    54   27   52 1   
    55   28   29 1   
    56   28   53 1   
    57   28   54 1   
    58   29   30 2   
    59   29   55 1   
    60   30   51 1   
@<TRIPOS>SUBSTRUCTURE
     1 CKG         1 TEMP              0 ****  ****    0 ROOT
