@<TRIPOS>MOLECULE
CKG
   56    60     1     0     0
SMALL
bcc


@<TRIPOS>ATOM
      1 O9         -0.0560    0.6180    0.3350 o         1 CKG     -0.429100
      2 C8          1.1430    0.5070    0.1230 c         1 CKG      0.513600
      3 N24         2.0150    0.6280    1.3680 nz        1 CKG     -0.755400
      4 C5          1.8560    0.2860   -1.1030 cc        1 CKG      0.153800
      5 C4          1.2690    0.1510   -2.4090 cc        1 CKG     -0.100600
      6 C2         -0.1190    0.1550   -2.8790 c3        1 CKG     -0.025100
      7 N6          3.2440    0.1880   -1.2050 nd        1 CKG     -0.502800
      8 N7          3.5400    0.0120   -2.4730 na        1 CKG      0.229400
      9 C17         4.9250   -0.1280   -2.9510 c3        1 CKG      0.036300
     10 C25         5.4050   -1.5780   -3.0810 c3        1 CKG     -0.076700
     11 C30         6.7450   -1.5550   -3.8080 c3        1 CKG     -0.077400
     12 C29         7.3410   -2.9590   -3.8870 c3        1 CKG      0.165800
     13 N28         7.4350   -3.6040   -2.5920 n7        1 CKG     -0.823200
     14 C27         6.1820   -3.6330   -1.8680 c3        1 CKG      0.165800
     15 C26         5.5510   -2.2470   -1.7240 c3        1 CKG     -0.077400
     16 C3          2.3810   -0.0270   -3.2700 cd        1 CKG     -0.170800
     17 C11         2.2030   -0.1830   -4.7090 ca        1 CKG      0.509800
     18 N18         3.2270   -0.5780   -5.4980 nb        1 CKG     -0.705000
     19 C12         2.9550   -0.6990   -6.8490 ca        1 CKG      0.868000
     20 N13         1.6960   -0.5020   -7.4100 nb        1 CKG     -0.691000
     21 C14         0.7170   -0.1190   -6.5860 ca        1 CKG      0.458200
     22 C10         0.8960    0.0760   -5.1950 ca        1 CKG     -0.317900
     23 C1         -0.2100    0.5700   -4.3420 c3        1 CKG     -0.022100
     24 N15         4.0710   -0.9010   -7.7050 ne        1 CKG     -0.665700
     25 C16         4.1760   -1.9150   -8.5150 cf        1 CKG      0.607900
     26 C23         5.3490   -1.9630   -9.4130 cf        1 CKG     -0.269600
     27 C22         5.5240   -2.9560  -10.2950 c2        1 CKG     -0.098700
     28 C21         4.5860   -4.0900  -10.4550 c3        1 CKG     -0.054000
     29 C20         3.4460   -4.0470   -9.5120 c2        1 CKG     -0.098700
     30 C19         3.2570   -3.0590   -8.6260 cf        1 CKG     -0.269600
     31 H241        2.5600   -0.2300    1.4910 hn        1 CKG      0.468133
     32 H242        1.4270    0.7830    2.1940 hn        1 CKG      0.468133
     33 H21C       -0.7450    0.8470   -2.2520 hc        1 CKG      0.080200
     34 H22C       -0.5450   -0.8810   -2.7510 hc        1 CKG      0.080200
     35 H11C       -0.2210    1.6950   -4.4040 hc        1 CKG      0.072200
     36 H12C       -1.1940    0.2100   -4.7510 hc        1 CKG      0.072200
     37 H171        4.9730    0.3800   -3.9570 h1        1 CKG      0.100200
     38 H172        5.6020    0.4230   -2.2350 h1        1 CKG      0.100200
     39 H25         4.6730   -2.1660   -3.7030 hc        1 CKG      0.080700
     40 H301        6.6060   -1.1670   -4.8500 hc        1 CKG      0.051450
     41 H302        7.4550   -0.8730   -3.2720 hc        1 CKG      0.051450
     42 H261        6.1880   -1.6110   -1.0550 hc        1 CKG      0.051450
     43 H262        4.5500   -2.3680   -1.2380 hc        1 CKG      0.051450
     44 H291        8.3860   -2.8850   -4.3020 h1        1 CKG      0.035950
     45 H292        6.7240   -3.5620   -4.6180 h1        1 CKG      0.035950
     46 H28         7.8020   -4.5330   -2.6910 hn        1 CKG      0.376800
     47 H271        6.3960   -4.0430   -0.8410 h1        1 CKG      0.035950
     48 H272        5.4210   -4.3130   -2.3560 h1        1 CKG      0.035950
     49 H14        -0.2740    0.0420   -7.0540 h4        1 CKG      0.043100
     50 H23         6.0740   -1.1350   -9.3360 ha        1 CKG      0.151000
     51 H19         2.3880   -3.0740   -7.9490 ha        1 CKG      0.151000
     52 H22         6.4020   -2.9660  -10.9640 ha        1 CKG      0.142000
     53 H211        4.1910   -4.0960  -11.5110 hc        1 CKG      0.089200
     54 H212        5.1470   -5.0590  -10.3150 hc        1 CKG      0.089200
     55 H20         2.7380   -4.8900   -9.5810 ha        1 CKG      0.142000
     56 H243        2.6640    1.4130    1.2580 hn        1 CKG      0.468133
@<TRIPOS>BOND
     1    1    2 2   
     2    2    3 1   
     3    2    4 1   
     4    3   31 1   
     5    3   32 1   
     6    3   56 1   
     7    4    5 1   
     8    4    7 2   
     9    5    6 1   
    10    5   16 2   
    11    6   23 1   
    12    6   33 1   
    13    6   34 1   
    14    7    8 1   
    15    8    9 1   
    16    8   16 1   
    17    9   10 1   
    18    9   37 1   
    19    9   38 1   
    20   10   11 1   
    21   10   15 1   
    22   10   39 1   
    23   11   12 1   
    24   11   40 1   
    25   11   41 1   
    26   12   13 1   
    27   12   44 1   
    28   12   45 1   
    29   13   14 1   
    30   13   46 1   
    31   14   15 1   
    32   14   47 1   
    33   14   48 1   
    34   15   42 1   
    35   15   43 1   
    36   16   17 1   
    37   17   18 ar  
    38   17   22 ar  
    39   18   19 ar  
    40   19   20 ar  
    41   19   24 1   
    42   20   21 ar  
    43   21   22 ar  
    44   21   49 1   
    45   22   23 1   
    46   23   35 1   
    47   23   36 1   
    48   24   25 2   
    49   25   26 1   
    50   25   30 1   
    51   26   27 2   
    52   26   50 1   
    53   27   28 1   
    54   27   52 1   
    55   28   29 1   
    56   28   53 1   
    57   28   54 1   
    58   29   30 2   
    59   29   55 1   
    60   30   51 1   
@<TRIPOS>SUBSTRUCTURE
     1 CKG         1 TEMP              0 ****  ****    0 ROOT
