@<TRIPOS>MOLECULE
CKG
   55    51     1     0     0
SMALL
bcc


@<TRIPOS>ATOM
      1 O9         -2.9760   -0.3240    4.7620 o         1 CKG     -0.384000
      2 C8         -2.3480    0.6560    4.4470 c1        1 CKG      0.387000
      3 N24        -2.1990    1.7130    5.3550 n2        1 CKG     -0.424000
      4 C5         -1.6540    0.7240    3.0620 c2        1 CKG     -0.171000
      5 C4         -2.1850    0.7230    1.7810 c1        1 CKG     -0.076000
      6 C2         -3.5640    0.9680    1.2860 c2        1 CKG     -0.099000
      7 N6         -0.3710    0.2350    2.9880 n2        1 CKG     -0.056000
      8 N7         -0.1010   -0.0720    1.6570 n2        1 CKG     -0.054000
      9 C17         1.3700   -0.1690    1.5480 c2        1 CKG     -0.009000
     10 C25         1.8740   -1.4480    2.3370 c3        1 CKG     -0.119000
     11 C30         3.2990   -1.7530    1.9340 c3        1 CKG     -0.155000
     12 C29         3.9110   -2.8590    2.7760 c3        1 CKG     -0.073000
     13 N28         3.7720   -2.6140    4.2060 n3        1 CKG     -0.300000
     14 C27         2.3700   -2.3140    4.6070 c3        1 CKG     -0.073000
     15 C26         1.7460   -1.2010    3.7630 c3        1 CKG     -0.155000
     16 C3         -1.2130    0.2270    0.9160 c2        1 CKG     -0.075000
     17 C11        -1.4760    0.1660   -0.5760 c1        1 CKG      0.103000
     18 N18        -0.4440   -0.1340   -1.4250 n1        1 CKG     -0.181000
     19 C12        -0.6110    0.0020   -2.7920 c1        1 CKG      0.091000
     20 N13        -1.8180    0.4380   -3.3030 n1        1 CKG     -0.177000
     21 C14        -2.8410    0.7350   -2.4650 c1        1 CKG     -0.027000
     22 C10        -2.6740    0.5990   -1.0830 c1        1 CKG     -0.172000
     23 C1         -3.8190    0.9070   -0.1530 c3        1 CKG     -0.108000
     24 N15         0.2170   -0.3350   -3.9400 n2        1 CKG     -0.127000
     25 C16         0.1720    0.4000   -5.0120 c1        1 CKG      0.110000
     26 C23         0.1650   -0.2380   -6.3380 c1        1 CKG     -0.133500
     27 C22         0.2970    0.6110   -7.6030 c1        1 CKG     -0.133500
     28 C21         0.7030    2.1050   -7.5050 c2        1 CKG     -0.129000
     29 C20         0.6590    2.6920   -6.0420 c2        1 CKG     -0.109000
     30 C19         0.1750    1.8520   -4.8940 c2        1 CKG     -0.187000
     31 H241       -2.6700    1.7030    6.1630 hn        1 CKG      0.232000
     32 H242       -1.6650    2.4050    5.1560 hn        1 CKG      0.232000
     33 H21C       -4.1560    0.3060    1.7200 ha        1 CKG      0.117500
     34 H22C       -3.8370    1.8710    1.5990 ha        1 CKG      0.117500
     35 H11C       -4.5080    0.2240   -0.3000 hc        1 CKG      0.096500
     36 H12C       -4.1860    1.7580   -0.4170 hc        1 CKG      0.096500
     37 H171        1.7660    0.6060    1.9190 ha        1 CKG      0.123500
     38 H172        1.6220   -0.2450    0.6060 ha        1 CKG      0.123500
     39 H25         1.3360   -2.1730    2.1100 hc        1 CKG      0.109000
     40 H301        3.8260   -0.9560    2.0330 hc        1 CKG      0.092500
     41 H302        3.3110   -2.0390    0.9570 hc        1 CKG      0.092500
     42 H261        2.1940   -0.3430    3.9790 hc        1 CKG      0.092500
     43 H262        0.8000   -1.1290    3.9870 hc        1 CKG      0.092500
     44 H291        4.8730   -2.9350    2.5570 h1        1 CKG      0.069000
     45 H292        3.4620   -3.7170    2.5540 h1        1 CKG      0.069000
     46 H28         4.0660   -3.3370    4.6630 hn        1 CKG      0.157000
     47 H271        1.8300   -3.1310    4.5060 h1        1 CKG      0.069000
     48 H272        2.3600   -2.0460    5.5310 h1        1 CKG      0.069000
     49 H14        -3.7200    1.0530   -2.8360 ha        1 CKG      0.168000
     50 H23        -0.0790   -1.1370   -6.4120 ha        1 CKG      0.143500
     51 H19         0.1530    2.2550   -3.9840 ha        1 CKG      0.144000
     52 H22         0.2930    0.1870   -8.4470 ha        1 CKG      0.143500
     53 H211        1.5010    2.2270   -8.0830 ha        1 CKG      0.115500
     54 H212        0.0730    2.6610   -7.9760 ha        1 CKG      0.115500
     55 H20         0.9210    3.6390   -5.8830 ha        1 CKG      0.133000
@<TRIPOS>BOND
     1    1    2 1   
     2    2    4 1   
     3    3   31 1   
     4    3   32 1   
     5    4    5 1   
     6    4    7 1   
     7    5   16 1   
     8    6   23 1   
     9    6   33 1   
    10    6   34 1   
    11    7    8 1   
    12    8   16 1   
    13    9   10 1   
    14    9   37 1   
    15    9   38 1   
    16   10   11 1   
    17   10   15 1   
    18   10   39 1   
    19   11   12 1   
    20   11   40 1   
    21   11   41 1   
    22   12   13 1   
    23   12   44 1   
    24   12   45 1   
    25   13   14 1   
    26   13   46 1   
    27   14   15 1   
    28   14   47 1   
    29   14   48 1   
    30   15   42 1   
    31   15   43 1   
    32   16   17 1   
    33   17   22 1   
    34   18   19 1   
    35   19   24 1   
    36   20   21 1   
    37   21   49 1   
    38   22   23 1   
    39   23   35 1   
    40   23   36 1   
    41   24   25 1   
    42   25   30 1   
    43   26   27 1   
    44   26   50 1   
    45   27   52 1   
    46   28   29 1   
    47   28   53 1   
    48   28   54 1   
    49   29   30 1   
    50   29   55 1   
    51   30   51 1   
@<TRIPOS>SUBSTRUCTURE
     1 CKG         1 TEMP              0 ****  ****    0 ROOT
