@<TRIPOS>MOLECULE
CKG
   55    59     1     0     0
SMALL
bcc


@<TRIPOS>ATOM
      1 O9          5.8390   -1.3430   -0.7740 o         1 CKG     -0.623100
      2 C8          5.3670   -0.2860   -0.3000 c         1 CKG      0.603600
      3 N24         6.1770    0.8040   -0.1120 n         1 CKG     -0.664000
      4 C5          3.9360   -0.1860    0.0630 cc        1 CKG      0.246800
      5 C4          2.9630   -1.2280   -0.1190 cc        1 CKG     -0.148600
      6 C2          3.0600   -2.5720   -0.6950 c3        1 CKG     -0.013100
      7 N6          3.3340    0.9060    0.6440 nd        1 CKG     -0.489800
      8 N7          2.0530    0.6120    0.8440 na        1 CKG      0.158400
      9 C17         1.1100    1.5520    1.4410 c3        1 CKG      0.053300
     10 C25         0.3270    2.3980    0.4300 c3        1 CKG     -0.077700
     11 C30        -0.8060    3.0970    1.1700 c3        1 CKG     -0.076900
     12 C29        -1.5770    4.0200    0.2280 c3        1 CKG      0.164300
     13 N28        -0.7260    4.9630   -0.4710 n3        1 CKG     -0.821200
     14 C27         0.3950    4.3450   -1.1520 c3        1 CKG      0.164300
     15 C26         1.2170    3.4260   -0.2480 c3        1 CKG     -0.076900
     16 C3          1.7570   -0.6840    0.3880 cd        1 CKG     -0.206800
     17 C11         0.5230   -1.4540    0.3840 ca        1 CKG      0.537800
     18 N18        -0.6740   -0.8760    0.6320 nb        1 CKG     -0.705000
     19 C12        -1.7810   -1.7000    0.5750 ca        1 CKG      0.835000
     20 N13        -1.7490   -3.0420    0.2320 nb        1 CKG     -0.704000
     21 C14        -0.5390   -3.5710   -0.0040 ca        1 CKG      0.439200
     22 C10         0.6610   -2.8340    0.0620 ca        1 CKG     -0.308900
     23 C1          1.9760   -3.4890   -0.1470 c3        1 CKG     -0.022100
     24 N15        -3.0240   -1.1430    1.0140 ne        1 CKG     -0.632700
     25 C16        -3.9860   -0.8760    0.1820 cf        1 CKG      0.570900
     26 C23        -5.2520   -0.3350    0.7230 cf        1 CKG     -0.250600
     27 C22        -6.2910   -0.0370   -0.0670 c2        1 CKG     -0.122700
     28 C21        -6.2850   -0.2130   -1.5380 c3        1 CKG     -0.042000
     29 C20        -5.0040   -0.7420   -2.0610 c2        1 CKG     -0.122700
     30 C19        -3.9570   -1.0440   -1.2820 cf        1 CKG     -0.250600
     31 H241        7.1360    0.7330   -0.3420 hn        1 CKG      0.318500
     32 H242        5.8380    1.6450    0.2790 hn        1 CKG      0.318500
     33 H21C        2.9670   -2.4940   -1.8140 hc        1 CKG      0.078200
     34 H22C        4.0750   -3.0080   -0.4840 hc        1 CKG      0.078200
     35 H11C        1.8570   -4.3610   -0.8450 hc        1 CKG      0.057700
     36 H12C        2.3140   -3.9030    0.8440 hc        1 CKG      0.057700
     37 H171        0.3890    0.9510    2.0640 h1        1 CKG      0.082700
     38 H172        1.6830    2.2420    2.1270 h1        1 CKG      0.082700
     39 H25        -0.1210    1.7270   -0.3560 hc        1 CKG      0.071700
     40 H301       -1.5170    2.3370    1.5850 hc        1 CKG      0.053950
     41 H302       -0.3900    3.6890    2.0250 hc        1 CKG      0.053950
     42 H261        1.7480    4.0360    0.5280 hc        1 CKG      0.053950
     43 H262        1.9920    2.9180   -0.8760 hc        1 CKG      0.053950
     44 H291       -2.1700    3.3740   -0.4860 h1        1 CKG      0.028450
     45 H292       -2.3140    4.6210    0.8330 h1        1 CKG      0.028450
     46 H28        -1.2720    5.4930   -1.1260 hn        1 CKG      0.361800
     47 H271        0.0640    3.7450   -2.0520 h1        1 CKG      0.028450
     48 H272        1.0580    5.1760   -1.5240 h1        1 CKG      0.028450
     49 H14        -0.5290   -4.6450   -0.2660 h4        1 CKG      0.031100
     50 H23        -5.3060   -0.1890    1.8150 ha        1 CKG      0.149000
     51 H19        -3.0250   -1.4390   -1.7190 ha        1 CKG      0.149000
     52 H22        -7.2260    0.3620    0.3590 ha        1 CKG      0.133500
     53 H211       -7.1190   -0.9140   -1.8290 hc        1 CKG      0.076200
     54 H212       -6.5050    0.7760   -2.0300 hc        1 CKG      0.076200
     55 H20        -4.9570   -0.8800   -3.1540 ha        1 CKG      0.133500
@<TRIPOS>BOND
     1    1    2 2   
     2    2    3 1   
     3    2    4 1   
     4    3   31 1   
     5    3   32 1   
     6    4    5 1   
     7    4    7 2   
     8    5    6 1   
     9    5   16 2   
    10    6   23 1   
    11    6   33 1   
    12    6   34 1   
    13    7    8 1   
    14    8    9 1   
    15    8   16 1   
    16    9   10 1   
    17    9   37 1   
    18    9   38 1   
    19   10   11 1   
    20   10   15 1   
    21   10   39 1   
    22   11   12 1   
    23   11   40 1   
    24   11   41 1   
    25   12   13 1   
    26   12   44 1   
    27   12   45 1   
    28   13   14 1   
    29   13   46 1   
    30   14   15 1   
    31   14   47 1   
    32   14   48 1   
    33   15   42 1   
    34   15   43 1   
    35   16   17 1   
    36   17   18 ar  
    37   17   22 ar  
    38   18   19 ar  
    39   19   20 ar  
    40   19   24 1   
    41   20   21 ar  
    42   21   22 ar  
    43   21   49 1   
    44   22   23 1   
    45   23   35 1   
    46   23   36 1   
    47   24   25 2   
    48   25   26 1   
    49   25   30 1   
    50   26   27 2   
    51   26   50 1   
    52   27   28 1   
    53   27   52 1   
    54   28   29 1   
    55   28   53 1   
    56   28   54 1   
    57   29   30 2   
    58   29   55 1   
    59   30   51 1   
@<TRIPOS>SUBSTRUCTURE
     1 CKG         1 TEMP              0 ****  ****    0 ROOT
