@<TRIPOS>MOLECULE
CKH
   40    42     1     0     0
SMALL
bcc


@<TRIPOS>ATOM
      1 CAQ        -0.2880    0.3800   -0.4690 c3        1 CKH     -0.056900
      2 CAP         1.1410    0.0240   -0.3620 cc        1 CKH     -0.002300
      3 NAO         1.7060   -0.4420    0.8270 na        1 CKH     -0.171400
      4 CAN         3.0740   -0.6540    0.6250 ca        1 CKH     -0.042200
      5 CAM         4.0690   -1.1070    1.5050 ca        1 CKH     -0.123000
      6 CAL         5.3600   -1.2190    1.0130 ca        1 CKH     -0.105000
      7 CAA         5.6720   -0.8890   -0.3200 ca        1 CKH     -0.128000
      8 CAB         4.6980   -0.4420   -1.1990 ca        1 CKH     -0.113000
      9 CAC         3.3820   -0.3200   -0.7450 ca        1 CKH     -0.086800
     10 CAD         2.1370    0.1030   -1.3510 cd        1 CKH     -0.215400
     11 CAE         1.9870    0.5630   -2.7340 c3        1 CKH     -0.001200
     12 CAF         2.1540   -0.6360   -3.6730 c3        1 CKH      0.098800
     13 NAG         2.1390   -0.2430   -5.1170 n4        1 CKH     -0.680800
     14 CAH         2.3920   -1.4490   -6.0060 c         1 CKH      0.579700
     15 OAR         3.5680   -1.7110   -6.1990 o         1 CKH     -0.392100
     16 CAI         1.1940   -2.1300   -6.4990 ca        1 CKH     -0.249600
     17 CAJ         0.1550   -1.4160   -7.1190 ca        1 CKH     -0.076000
     18 CAK        -0.9420   -2.0880   -7.6410 ca        1 CKH     -0.131000
     19 CAU        -1.0220   -3.4840   -7.5520 ca        1 CKH     -0.036000
     20 CAT        -0.0070   -4.2120   -6.9450 ca        1 CKH     -0.157000
     21 CAS         1.1150   -3.5410   -6.4170 ca        1 CKH      0.213900
     22 FAV         2.0990   -4.2450   -5.8210 f         1 CKH     -0.101900
     23 H1         -0.4630    1.3990   -0.0390 hc        1 CKH      0.060700
     24 H2         -0.9360   -0.3490    0.0800 hc        1 CKH      0.060700
     25 H3         -0.6020    0.3890   -1.5420 hc        1 CKH      0.060700
     26 H4          1.2290   -0.5470    1.6840 hn        1 CKH      0.312700
     27 H5          3.8330   -1.3610    2.5480 ha        1 CKH      0.147000
     28 H6          6.1650   -1.5690    1.6780 ha        1 CKH      0.147000
     29 H7          6.7140   -0.9880   -0.6610 ha        1 CKH      0.142000
     30 H8          4.9560   -0.1750   -2.2330 ha        1 CKH      0.117000
     31 H9          2.7750    1.3350   -2.9560 hc        1 CKH      0.061700
     32 H10         0.9820    1.0390   -2.8890 hc        1 CKH      0.061700
     33 H11         1.3230   -1.3780   -3.5050 hx        1 CKH      0.115700
     34 H12         3.1430   -1.1420   -3.4630 hx        1 CKH      0.115700
     35 H13         2.8770    0.4550   -5.2730 hn        1 CKH      0.452800
     36 H14         0.2170   -0.3220   -7.2320 ha        1 CKH      0.138000
     37 H15        -1.7490   -1.5230   -8.1360 ha        1 CKH      0.170000
     38 H16        -1.8970   -4.0100   -7.9730 ha        1 CKH      0.174000
     39 H17        -0.0570   -5.3110   -6.8740 ha        1 CKH      0.185000
     40 HAG2        1.2340    0.1770   -5.3450 hn        1 CKH      0.452800
@<TRIPOS>BOND
     1    1    2 1   
     2    1   23 1   
     3    1   24 1   
     4    1   25 1   
     5    2    3 1   
     6    2   10 2   
     7    3    4 1   
     8    3   26 1   
     9    4    5 ar  
    10    4    9 ar  
    11    5    6 ar  
    12    5   27 1   
    13    6    7 ar  
    14    6   28 1   
    15    7    8 ar  
    16    7   29 1   
    17    8    9 ar  
    18    8   30 1   
    19    9   10 1   
    20   10   11 1   
    21   11   12 1   
    22   11   31 1   
    23   11   32 1   
    24   12   13 1   
    25   12   33 1   
    26   12   34 1   
    27   13   14 1   
    28   13   35 1   
    29   13   40 1   
    30   14   15 2   
    31   14   16 1   
    32   16   17 ar  
    33   16   21 ar  
    34   17   18 ar  
    35   17   36 1   
    36   18   19 ar  
    37   18   37 1   
    38   19   20 ar  
    39   19   38 1   
    40   20   21 ar  
    41   20   39 1   
    42   21   22 1   
@<TRIPOS>SUBSTRUCTURE
     1 CKH         1 TEMP              0 ****  ****    0 ROOT
