@<TRIPOS>MOLECULE
CKH
   40    42     1     0     0
SMALL
bcc


@<TRIPOS>ATOM
      1 CAQ        -0.2930    0.3330   -0.4510 c3        1 CKH     -0.056900
      2 CAP         1.1410   -0.0030   -0.3540 cc        1 CKH     -0.002300
      3 NAO         1.7190   -0.4700    0.8290 na        1 CKH     -0.171400
      4 CAN         3.0890   -0.6610    0.6180 ca        1 CKH     -0.042200
      5 CAM         4.0950   -1.1070    1.4900 ca        1 CKH     -0.123000
      6 CAL         5.3840   -1.1970    0.9900 ca        1 CKH     -0.105000
      7 CAA         5.6840   -0.8540   -0.3420 ca        1 CKH     -0.128000
      8 CAB         4.7000   -0.4150   -1.2130 ca        1 CKH     -0.113000
      9 CAC         3.3850   -0.3140   -0.7510 ca        1 CKH     -0.086800
     10 CAD         2.1310    0.0960   -1.3470 cd        1 CKH     -0.215400
     11 CAE         1.9670    0.5640   -2.7260 c3        1 CKH     -0.001200
     12 CAF         2.1450   -0.6270   -3.6740 c3        1 CKH      0.098800
     13 NAG         2.1170   -0.2230   -5.1150 ny        1 CKH     -0.680800
     14 CAH         2.3810   -1.4200   -6.0150 c         1 CKH      0.579700
     15 OAR         3.5600   -1.6610   -6.2210 o         1 CKH     -0.392100
     16 CAI         1.1900   -2.1170   -6.5000 ca        1 CKH     -0.249600
     17 CAJ         0.1320   -1.4180   -7.1040 ca        1 CKH     -0.076000
     18 CAK        -0.9590   -2.1040   -7.6190 ca        1 CKH     -0.131000
     19 CAU        -1.0140   -3.5020   -7.5380 ca        1 CKH     -0.036000
     20 CAT         0.0190   -4.2170   -6.9470 ca        1 CKH     -0.157000
     21 CAS         1.1360   -3.5310   -6.4270 ca        1 CKH      0.213900
     22 FAV         2.1380   -4.2210   -5.8460 f         1 CKH     -0.101900
     23 H1         -0.9280   -0.4050    0.1010 hc        1 CKH      0.060700
     24 H2         -0.4790    1.3500   -0.0180 hc        1 CKH      0.060700
     25 H3         -0.6140    0.3400   -1.5220 hc        1 CKH      0.060700
     26 H4          1.2480   -0.5870    1.6880 hn        1 CKH      0.312700
     27 H5          3.8680   -1.3710    2.5320 ha        1 CKH      0.148000
     28 H6          6.1980   -1.5410    1.6480 ha        1 CKH      0.147000
     29 H7          6.7260   -0.9360   -0.6900 ha        1 CKH      0.142000
     30 H8          4.9480   -0.1370   -2.2460 ha        1 CKH      0.117000
     31 H9          0.9540    1.0260   -2.8730 hc        1 CKH      0.061700
     32 H10         2.7430    1.3490   -2.9470 hc        1 CKH      0.061700
     33 H11         1.3260   -1.3810   -3.5080 hx        1 CKH      0.115700
     34 H12         3.1430   -1.1190   -3.4730 hx        1 CKH      0.115700
     35 H13         1.2050    0.1860   -5.3350 hn        1 CKH      0.452800
     36 H14         0.1750   -0.3220   -7.2100 ha        1 CKH      0.138000
     37 H15        -1.7810   -1.5500   -8.1010 ha        1 CKH      0.170000
     38 H16        -1.8840   -4.0400   -7.9540 ha        1 CKH      0.174000
     39 H17        -0.0100   -5.3170   -6.8840 ha        1 CKH      0.185000
     40 HAG2        2.8450    0.4850   -5.2710 hn        1 CKH      0.452800
@<TRIPOS>BOND
     1    1    2 1   
     2    1   23 1   
     3    1   24 1   
     4    1   25 1   
     5    2    3 1   
     6    2   10 2   
     7    3    4 1   
     8    3   26 1   
     9    4    5 ar  
    10    4    9 ar  
    11    5    6 ar  
    12    5   27 1   
    13    6    7 ar  
    14    6   28 1   
    15    7    8 ar  
    16    7   29 1   
    17    8    9 ar  
    18    8   30 1   
    19    9   10 1   
    20   10   11 1   
    21   11   12 1   
    22   11   31 1   
    23   11   32 1   
    24   12   13 1   
    25   12   33 1   
    26   12   34 1   
    27   13   14 1   
    28   13   35 1   
    29   13   40 1   
    30   14   15 2   
    31   14   16 1   
    32   16   17 ar  
    33   16   21 ar  
    34   17   18 ar  
    35   17   36 1   
    36   18   19 ar  
    37   18   37 1   
    38   19   20 ar  
    39   19   38 1   
    40   20   21 ar  
    41   20   39 1   
    42   21   22 1   
@<TRIPOS>SUBSTRUCTURE
     1 CKH         1 TEMP              0 ****  ****    0 ROOT
