@<TRIPOS>MOLECULE
CKH
   40    42     1     0     0
SMALL
bcc


@<TRIPOS>ATOM
      1 CAQ        -0.2790    0.3670   -0.4570 c3        1 CKH     -0.056900
      2 CAP         1.1550    0.0250   -0.3620 cc        1 CKH     -0.002300
      3 NAO         1.7350   -0.4330    0.8230 na        1 CKH     -0.171400
      4 CAN         3.1030   -0.6320    0.6090 ca        1 CKH     -0.042200
      5 CAM         4.1100   -1.0740    1.4820 ca        1 CKH     -0.123000
      6 CAL         5.3970   -1.1740    0.9790 ca        1 CKH     -0.105000
      7 CAA         5.6940   -0.8440   -0.3580 ca        1 CKH     -0.128000
      8 CAB         4.7080   -0.4080   -1.2290 ca        1 CKH     -0.113000
      9 CAC         3.3960   -0.2980   -0.7640 ca        1 CKH     -0.086800
     10 CAD         2.1410    0.1120   -1.3590 cd        1 CKH     -0.215400
     11 CAE         1.9740    0.5680   -2.7420 c3        1 CKH     -0.001200
     12 CAF         2.1450   -0.6320   -3.6800 c3        1 CKH      0.098800
     13 NAG         2.1130   -0.2420   -5.1240 n4        1 CKH     -0.680800
     14 CAH         2.3700   -1.4480   -6.0140 c         1 CKH      0.579700
     15 OAR         3.5470   -1.6950   -6.2220 o         1 CKH     -0.392100
     16 CAI         1.1750   -2.1460   -6.4880 ca        1 CKH     -0.249600
     17 CAJ         0.1170   -1.4480   -7.0940 ca        1 CKH     -0.076000
     18 CAK        -0.9790   -2.1360   -7.5980 ca        1 CKH     -0.131000
     19 CAU        -1.0380   -3.5330   -7.5040 ca        1 CKH     -0.036000
     20 CAT        -0.0040   -4.2450   -6.9110 ca        1 CKH     -0.157000
     21 CAS         1.1170   -3.5580   -6.4010 ca        1 CKH      0.213900
     22 FAV         2.1180   -4.2460   -5.8180 f         1 CKH     -0.101900
     23 H1         -0.9140   -0.3640    0.1030 hc        1 CKH      0.060700
     24 H2         -0.4590    1.3880   -0.0320 hc        1 CKH      0.060700
     25 H3         -0.6030    0.3660   -1.5270 hc        1 CKH      0.060700
     26 H4          1.2660   -0.5400    1.6850 hn        1 CKH      0.312700
     27 H5          3.8850   -1.3280    2.5270 ha        1 CKH      0.148000
     28 H6          6.2110   -1.5150    1.6370 ha        1 CKH      0.147000
     29 H7          6.7340   -0.9330   -0.7080 ha        1 CKH      0.142000
     30 H8          4.9550   -0.1410   -2.2660 ha        1 CKH      0.117000
     31 H9          0.9630    1.0330   -2.8890 hc        1 CKH      0.061700
     32 H10         2.7520    1.3470   -2.9720 hc        1 CKH      0.061700
     33 H11         1.3230   -1.3820   -3.5030 hx        1 CKH      0.115700
     34 H12         3.1410   -1.1270   -3.4780 hx        1 CKH      0.115700
     35 H13         1.2020    0.1690   -5.3450 hn        1 CKH      0.452800
     36 H14         0.1620   -0.3540   -7.2100 ha        1 CKH      0.138000
     37 H15        -1.8010   -1.5840   -8.0820 ha        1 CKH      0.170000
     38 H16        -1.9110   -4.0720   -7.9110 ha        1 CKH      0.174000
     39 H17        -0.0380   -5.3450   -6.8370 ha        1 CKH      0.185000
     40 HAG2        2.8430    0.4630   -5.2880 hn        1 CKH      0.452800
@<TRIPOS>BOND
     1    1    2 1   
     2    1   23 1   
     3    1   24 1   
     4    1   25 1   
     5    2    3 1   
     6    2   10 2   
     7    3    4 1   
     8    3   26 1   
     9    4    5 ar  
    10    4    9 ar  
    11    5    6 ar  
    12    5   27 1   
    13    6    7 ar  
    14    6   28 1   
    15    7    8 ar  
    16    7   29 1   
    17    8    9 ar  
    18    8   30 1   
    19    9   10 1   
    20   10   11 1   
    21   11   12 1   
    22   11   31 1   
    23   11   32 1   
    24   12   13 1   
    25   12   33 1   
    26   12   34 1   
    27   13   14 1   
    28   13   35 1   
    29   13   40 1   
    30   14   15 2   
    31   14   16 1   
    32   16   17 ar  
    33   16   21 ar  
    34   17   18 ar  
    35   17   36 1   
    36   18   19 ar  
    37   18   37 1   
    38   19   20 ar  
    39   19   38 1   
    40   20   21 ar  
    41   20   39 1   
    42   21   22 1   
@<TRIPOS>SUBSTRUCTURE
     1 CKH         1 TEMP              0 ****  ****    0 ROOT
