@<TRIPOS>MOLECULE
CKH
   39    41     1     0     0
SMALL
bcc


@<TRIPOS>ATOM
      1 CAQ        -1.8610    2.7110   -0.0680 c3        1 CKH     -0.060900
      2 CAP        -2.7230    1.5150    0.0080 cc        1 CKH     -0.038300
      3 NAO        -4.1030    1.5660   -0.2450 na        1 CKH     -0.192400
      4 CAN        -4.6330    0.2850   -0.0890 ca        1 CKH     -0.043200
      5 CAM        -5.9470   -0.1880   -0.2270 ca        1 CKH     -0.146000
      6 CAL        -6.1740   -1.5370   -0.0030 ca        1 CKH     -0.116000
      7 CAA        -5.1300   -2.4110    0.3520 ca        1 CKH     -0.158000
      8 CAB        -3.8270   -1.9580    0.4910 ca        1 CKH     -0.087000
      9 CAC        -3.5530   -0.6070    0.2730 ca        1 CKH     -0.084800
     10 CAD        -2.3530    0.2010    0.3260 cd        1 CKH     -0.148400
     11 CAE        -1.0060   -0.2670    0.6740 c3        1 CKH     -0.026200
     12 CAF        -0.1040   -0.3050   -0.5700 c3        1 CKH      0.093000
     13 NAG         1.2990   -0.4250   -0.2840 n         1 CKH     -0.560900
     14 CAH         2.0810    0.6770   -0.0210 c         1 CKH      0.674700
     15 OAR         1.6010    1.8310   -0.0670 o         1 CKH     -0.620100
     16 CAI         3.5160    0.4710    0.3390 ca        1 CKH     -0.176600
     17 CAJ         4.0940    1.4310    1.1830 ca        1 CKH     -0.058000
     18 CAK         5.4260    1.3360    1.5700 ca        1 CKH     -0.153000
     19 CAU         6.2130    0.2790    1.1090 ca        1 CKH     -0.085000
     20 CAT         5.6710   -0.6800    0.2620 ca        1 CKH     -0.175000
     21 CAS         4.3190   -0.5900   -0.1280 ca        1 CKH      0.150900
     22 FAV         3.8280   -1.5400   -0.9600 f         1 CKH     -0.138900
     23 H1         -2.1650    3.4670    0.6990 hc        1 CKH      0.062033
     24 H2         -0.7930    2.4210    0.1200 hc        1 CKH      0.062033
     25 H3         -1.9240    3.1870   -1.0780 hc        1 CKH      0.062033
     26 H4         -4.6100    2.3730   -0.4900 hn        1 CKH      0.296700
     27 H5         -6.7660    0.4880   -0.5030 ha        1 CKH      0.130000
     28 H6         -7.1940   -1.9370   -0.1040 ha        1 CKH      0.128000
     29 H7         -5.3600   -3.4730    0.5200 ha        1 CKH      0.127000
     30 H8         -3.0170   -2.6460    0.7710 ha        1 CKH      0.130000
     31 H9         -0.5590    0.4220    1.4420 hc        1 CKH      0.051200
     32 H10        -1.0640   -1.2910    1.1310 hc        1 CKH      0.051200
     33 H11        -0.4050   -1.1790   -1.2140 h1        1 CKH      0.063200
     34 H12        -0.2680    0.6440   -1.1580 h1        1 CKH      0.063200
     35 H13         1.6790   -1.3340   -0.1720 hn        1 CKH      0.318500
     36 H14         3.4690    2.2740    1.5260 ha        1 CKH      0.164000
     37 H15         5.8600    2.0970    2.2360 ha        1 CKH      0.144000
     38 H16         7.2690    0.2040    1.4130 ha        1 CKH      0.142000
     39 H17         6.2830   -1.5120   -0.1150 ha        1 CKH      0.153000
@<TRIPOS>BOND
     1    1    2 1   
     2    1   23 1   
     3    1   24 1   
     4    1   25 1   
     5    2    3 1   
     6    2   10 2   
     7    3    4 1   
     8    3   26 1   
     9    4    5 ar  
    10    4    9 ar  
    11    5    6 ar  
    12    5   27 1   
    13    6    7 ar  
    14    6   28 1   
    15    7    8 ar  
    16    7   29 1   
    17    8    9 ar  
    18    8   30 1   
    19    9   10 1   
    20   10   11 1   
    21   11   12 1   
    22   11   31 1   
    23   11   32 1   
    24   12   13 1   
    25   12   33 1   
    26   12   34 1   
    27   13   14 1   
    28   13   35 1   
    29   14   15 2   
    30   14   16 1   
    31   16   17 ar  
    32   16   21 ar  
    33   17   18 ar  
    34   17   36 1   
    35   18   19 ar  
    36   18   37 1   
    37   19   20 ar  
    38   19   38 1   
    39   20   21 ar  
    40   20   39 1   
    41   21   22 1   
@<TRIPOS>SUBSTRUCTURE
     1 CKH         1 TEMP              0 ****  ****    0 ROOT
