@<TRIPOS>MOLECULE
CKH
   39    32     1     0     0
SMALL
bcc


@<TRIPOS>ATOM
      1 CAQ         2.9340    1.8300    2.2570 c3        1 CKH     -0.167000
      2 CAP         1.4900    1.5310    2.4650 c2        1 CKH     -0.020000
      3 NAO         1.2460    1.7630    3.7910 n2        1 CKH     -0.213000
      4 CAN        -0.1050    1.5720    4.0180 c1        1 CKH      0.004000
      5 CAM        -0.8870    1.6750    5.1780 c1        1 CKH     -0.126500
      6 CAL        -2.2530    1.4210    5.1210 c1        1 CKH     -0.126500
      7 CAA        -2.8450    1.0650    3.9090 c1        1 CKH     -0.126500
      8 CAB        -2.0740    0.9640    2.7650 c1        1 CKH     -0.126500
      9 CAC        -0.6910    1.2200    2.8220 c1        1 CKH     -0.073000
     10 CAD         0.2900    1.1940    1.8610 c1        1 CKH     -0.147000
     11 CAE         0.1830    1.0640    0.3600 c2        1 CKH     -0.105000
     12 CAF         0.2210   -0.4210   -0.0310 c3        1 CKH     -0.026000
     13 NAG         0.0840   -0.5430   -1.4660 n         1 CKH     -0.375000
     14 CAH         0.1440   -1.8320   -2.0830 c2        1 CKH      0.350000
     15 OAR         0.3770   -2.8110   -1.4130 o         1 CKH     -0.368000
     16 CAI         0.0100   -1.9620   -3.6110 c2        1 CKH     -0.153000
     17 CAJ        -1.2340   -2.1970   -4.1810 c2        1 CKH     -0.058000
     18 CAK        -1.3470   -2.3770   -5.5550 c1        1 CKH     -0.152000
     19 CAU        -0.2160   -2.3230   -6.3570 c1        1 CKH     -0.126500
     20 CAT         1.0300   -2.0870   -5.7870 c1        1 CKH     -0.126500
     21 CAS         1.1430   -1.9070   -4.4150 c1        1 CKH      0.113000
     22 FAV         2.3530   -1.8060   -3.8540 f         1 CKH     -0.107000
     23 H1          3.4580    1.4060    2.9580 hc        1 CKH      0.091667
     24 H2          3.2160    1.4860    1.3860 hc        1 CKH      0.091667
     25 H3          3.0750    2.8030    2.2850 hc        1 CKH      0.091667
     26 H4          1.8650    2.0460    4.4130 DU        1 CKH      0.248000
     27 H5         -0.4720    1.9240    6.0260 ha        1 CKH      0.136167
     28 H6         -2.7990    1.4920    5.9310 ha        1 CKH      0.136167
     29 H7         -3.8130    0.8850    3.8690 ha        1 CKH      0.136167
     30 H8         -2.4910    0.7140    1.9140 ha        1 CKH      0.136167
     31 H9          0.9340    1.5330   -0.0630 ha        1 CKH      0.088500
     32 H10        -0.6580    1.4590    0.0570 ha        1 CKH      0.088500
     33 H11        -0.5150   -0.8950    0.4110 h1        1 CKH      0.102500
     34 H12         1.0760   -0.8110    0.2490 h1        1 CKH      0.102500
     35 H13        -0.0130    0.2020   -1.9780 hn        1 CKH      0.229000
     36 H14        -2.0260   -2.2360   -3.6200 ha        1 CKH      0.164000
     37 H15        -2.2220   -2.5430   -5.9560 ha        1 CKH      0.144000
     38 H16        -0.2950   -2.4490   -7.3220 ha        1 CKH      0.136167
     39 H17         1.8250   -2.0490   -6.3520 ha        1 CKH      0.136167
@<TRIPOS>BOND
     1    1    2 1   
     2    1   23 1   
     3    1   24 1   
     4    1   25 1   
     5    2    3 1   
     6    2   10 1   
     7    3    4 1   
     8    4    9 1   
     9    5    6 1   
    10    5   27 1   
    11    6   28 1   
    12    7    8 1   
    13    7   29 1   
    14    8   30 1   
    15   11   12 1   
    16   11   31 1   
    17   11   32 1   
    18   12   13 1   
    19   12   33 1   
    20   12   34 1   
    21   13   14 1   
    22   13   35 1   
    23   14   15 1   
    24   14   16 1   
    25   16   17 1   
    26   16   21 1   
    27   17   18 1   
    28   17   36 1   
    29   18   37 1   
    30   19   20 1   
    31   19   38 1   
    32   20   39 1   
@<TRIPOS>SUBSTRUCTURE
     1 CKH         1 TEMP              0 ****  ****    0 ROOT
