@<TRIPOS>MOLECULE
CKI
   30    25     1     0     0
SMALL
bcc


@<TRIPOS>ATOM
      1 C1          2.1860    0.7500   -0.2300 c1        1 CKI     -0.072000
      2 N2          3.5690    0.8300   -0.2310 n1        1 CKI     -0.111000
      3 C3          4.2700    0.8630    0.9770 c1        1 CKI     -0.116500
      4 C4          3.5720    0.8150    2.1960 c1        1 CKI     -0.116500
      5 C5          1.4350    0.7190    3.4410 c1        1 CKI      0.002000
      6 CL5         2.2060    0.6860    5.0430 cl        1 CKI      0.010000
      7 C6          0.0550    0.6740    3.4350 c2        1 CKI     -0.146000
      8 C7         -0.6370    0.6410    2.2220 c1        1 CKI     -0.002000
      9 C8          0.0710    0.6550    1.0080 c1        1 CKI     -0.785000
     10 C9          1.4710    0.7010    1.0100 c1        1 CKI      0.005000
     11 C10         2.1560    0.7330    2.2000 c1        1 CKI     -0.033000
     12 S          -1.1420    0.7670   -0.2790 s4        1 CKI      2.065800
     13 O1S        -0.7310    1.6970   -1.3150 o         1 CKI     -0.538900
     14 O2S        -2.3710    1.4010    0.2030 o         1 CKI     -0.538900
     15 N1'        -1.4330   -0.6920   -0.8890 n2        1 CKI     -0.894000
     16 C1'        -2.5040   -0.8800   -1.8160 c3        1 CKI     -0.016000
     17 C2'        -1.9980   -1.6800   -3.0300 c3        1 CKI     -0.094000
     18 N2'        -3.0890   -1.8100   -4.0210 n3        1 CKI     -0.349000
     19 H1          1.6960    0.7270   -1.0810 ha        1 CKI      0.183000
     20 H3          5.2450    0.9200    0.9730 ha        1 CKI      0.162500
     21 H4          4.0720    0.8390    3.0570 ha        1 CKI      0.162500
     22 H6         -0.4240    0.6640    4.2560 ha        1 CKI      0.160000
     23 H7         -1.6540    0.6090    2.2170 ha        1 CKI      0.171000
     24 HN1        -0.8990   -1.4190   -0.6370 hn        1 CKI      0.247000
     25 H1'1       -2.8430    0.0120   -2.1200 h1        1 CKI      0.100000
     26 H1'2       -3.2330   -1.3760   -1.3780 h1        1 CKI      0.100000
     27 H2'1       -1.7150   -2.5680   -2.7390 h1        1 CKI      0.072500
     28 H2'2       -1.2450   -1.2160   -3.4340 h1        1 CKI      0.072500
     29 HN21       -2.8600   -1.3380   -4.8090 hn        1 CKI      0.150500
     30 HN22       -3.2230   -2.7230   -4.2270 hn        1 CKI      0.150500
@<TRIPOS>BOND
     1    1    2 1   
     2    1   19 1   
     3    3    4 1   
     4    3   20 1   
     5    4   21 1   
     6    5    7 1   
     7    5   11 1   
     8    7    8 1   
     9    7   22 1   
    10    8   23 1   
    11    9   10 1   
    12    9   12 1   
    13   10   11 1   
    14   12   13 1   
    15   12   14 1   
    16   15   16 1   
    17   15   24 1   
    18   16   17 1   
    19   16   25 1   
    20   16   26 1   
    21   17   18 1   
    22   17   27 1   
    23   17   28 1   
    24   18   29 1   
    25   18   30 1   
@<TRIPOS>SUBSTRUCTURE
     1 CKI         1 TEMP              0 ****  ****    0 ROOT
