@<TRIPOS>MOLECULE
CKI
   32    32     1     0     0
SMALL
bcc


@<TRIPOS>ATOM
      1 C1         -0.2850    0.6710    0.1550 ca        1 CKI      0.340200
      2 N2          0.8470    1.2120   -0.2820 nb        1 CKI     -0.566000
      3 C3          1.7790    1.5890    0.6340 ca        1 CKI      0.406200
      4 C4          1.5960    1.4290    2.0040 ca        1 CKI     -0.167300
      5 C5          0.1530    0.6480    3.8750 ca        1 CKI      0.212400
      6 CL5         1.2690    1.1150    5.0230 cl        1 CKI      0.080600
      7 C6         -1.0440    0.0530    4.2940 ca        1 CKI     -0.189000
      8 C7         -1.9940   -0.3310    3.3710 ca        1 CKI      0.087000
      9 C8         -1.8350   -0.1530    1.9670 ca        1 CKI     -0.645500
     10 C9         -0.5940    0.4450    1.5340 ca        1 CKI     -0.024300
     11 C10         0.3940    0.8430    2.4790 ca        1 CKI     -0.074000
     12 S          -2.9960   -0.5610    1.0520 s4        1 CKI      1.677300
     13 O1S        -2.9850   -0.3140   -0.2830 o         1 CKI     -0.435900
     14 O2S        -4.1010   -1.1010    1.6320 o         1 CKI     -0.435900
     15 N1'        -2.5480   -3.0600    0.2570 n3        1 CKI     -0.970800
     16 C1'        -3.3250   -3.2470   -0.9450 c3        1 CKI      0.118800
     17 C2'        -3.2160   -4.6540   -1.5780 c3        1 CKI      0.056800
     18 N2'        -4.0450   -4.7940   -2.8050 n4        1 CKI     -0.831600
     19 H1         -0.9990    0.4150   -0.6540 h4        1 CKI      0.050100
     20 H3          2.7010    2.0430    0.2170 h4        1 CKI      0.074100
     21 H4          2.3800    1.7560    2.7080 ha        1 CKI      0.188000
     22 H6         -1.2350   -0.1030    5.3740 ha        1 CKI      0.204000
     23 H7         -2.9350   -0.7900    3.7470 ha        1 CKI      0.184000
     24 HN1        -1.5730   -3.2420    0.0940 hn        1 CKI      0.397300
     25 H1'1       -4.4070   -3.0400   -0.6900 h1        1 CKI      0.099200
     26 H1'2       -2.9870   -2.4710   -1.6940 h1        1 CKI      0.099200
     27 H2'1       -3.5580   -5.4410   -0.8420 hx        1 CKI      0.122200
     28 H2'2       -2.1440   -4.8710   -1.8620 hx        1 CKI      0.122200
     29 HN21       -3.9360   -5.7410   -3.1920 hn        1 CKI      0.474800
     30 HN22       -5.0380   -4.6390   -2.5890 hn        1 CKI      0.474800
     31 H1'3       -2.8760   -3.6560    0.9990 hn        1 CKI      0.397300
     32 H2'3       -3.7560   -4.1110   -3.5160 hn        1 CKI      0.474800
@<TRIPOS>BOND
     1    1    2 ar  
     2    1   10 ar  
     3    1   19 1   
     4    2    3 ar  
     5    3    4 ar  
     6    3   20 1   
     7    4   11 ar  
     8    4   21 1   
     9    5    6 1   
    10    5    7 ar  
    11    5   11 ar  
    12    7    8 ar  
    13    7   22 1   
    14    8    9 ar  
    15    8   23 1   
    16    9   10 ar  
    17    9   12 1   
    18   10   11 ar  
    19   12   13 1   
    20   12   14 1   
    21   15   16 1   
    22   15   24 1   
    23   15   31 1   
    24   16   17 1   
    25   16   25 1   
    26   16   26 1   
    27   17   18 1   
    28   17   27 1   
    29   17   28 1   
    30   18   29 1   
    31   18   30 1   
    32   18   32 1   
@<TRIPOS>SUBSTRUCTURE
     1 CKI         1 TEMP              0 ****  ****    0 ROOT
