@<TRIPOS>MOLECULE
CKI
   32    32     1     0     0
SMALL
bcc


@<TRIPOS>ATOM
      1 C1         -0.3040    0.6730    0.1360 ca        1 CKI      0.340200
      2 N2          0.8240    1.2170   -0.3080 nb        1 CKI     -0.566000
      3 C3          1.7560    1.6090    0.6010 ca        1 CKI      0.406200
      4 C4          1.5790    1.4590    1.9730 ca        1 CKI     -0.167300
      5 C5          0.1460    0.6860    3.8560 ca        1 CKI      0.212400
      6 CL5         1.2630    1.1690    4.9960 cl        1 CKI      0.080600
      7 C6         -1.0460    0.0860    4.2840 ca        1 CKI     -0.189000
      8 C7         -1.9970   -0.3120    3.3660 ca        1 CKI      0.087000
      9 C8         -1.8430   -0.1450    1.9600 ca        1 CKI     -0.645500
     10 C9         -0.6060    0.4570    1.5190 ca        1 CKI     -0.024300
     11 C10         0.3810    0.8690    2.4570 ca        1 CKI     -0.074000
     12 S          -3.0040   -0.5670    1.0520 s4        1 CKI      1.677300
     13 O1S        -2.9980   -0.3310   -0.2840 o         1 CKI     -0.435400
     14 O2S        -4.1040   -1.1090    1.6400 o         1 CKI     -0.435400
     15 N1'        -2.5440   -3.0710    0.2770 n3        1 CKI     -0.970800
     16 C1'        -3.3130   -3.2690   -0.9280 c3        1 CKI      0.118800
     17 C2'        -3.1970   -4.6810   -1.5500 c3        1 CKI      0.056800
     18 N2'        -4.0180   -4.8320   -2.7810 n4        1 CKI     -0.831600
     19 H1         -1.0180    0.4060   -0.6670 h4        1 CKI      0.050100
     20 H3          2.6750    2.0640    0.1780 h4        1 CKI      0.074100
     21 H4          2.3620    1.7970    2.6720 ha        1 CKI      0.188000
     22 H6         -1.2320   -0.0620    5.3650 ha        1 CKI      0.204000
     23 H7         -2.9330   -0.7730    3.7490 ha        1 CKI      0.184000
     24 HN1        -2.8760   -3.6610    1.0210 hn        1 CKI      0.397300
     25 H1'1       -4.3960   -3.0610   -0.6830 h1        1 CKI      0.099200
     26 H1'2       -2.9700   -2.4980   -1.6820 h1        1 CKI      0.099200
     27 H2'1       -2.1220   -4.8970   -1.8250 hx        1 CKI      0.122200
     28 H2'2       -3.5410   -5.4620   -0.8090 hx        1 CKI      0.122200
     29 HN21       -3.7250   -4.1550   -3.4950 hn        1 CKI      0.474800
     30 HN22       -3.9040   -5.7820   -3.1600 hn        1 CKI      0.474800
     31 H1'3       -1.5680   -3.2520    0.1220 hn        1 CKI      0.397300
     32 H2'3       -5.0120   -4.6780   -2.5730 hn        1 CKI      0.474800
@<TRIPOS>BOND
     1    1    2 ar  
     2    1   10 ar  
     3    1   19 1   
     4    2    3 ar  
     5    3    4 ar  
     6    3   20 1   
     7    4   11 ar  
     8    4   21 1   
     9    5    6 1   
    10    5    7 ar  
    11    5   11 ar  
    12    7    8 ar  
    13    7   22 1   
    14    8    9 ar  
    15    8   23 1   
    16    9   10 ar  
    17    9   12 1   
    18   10   11 ar  
    19   12   13 1   
    20   12   14 1   
    21   15   16 1   
    22   15   24 1   
    23   15   31 1   
    24   16   17 1   
    25   16   25 1   
    26   16   26 1   
    27   17   18 1   
    28   17   27 1   
    29   17   28 1   
    30   18   29 1   
    31   18   30 1   
    32   18   32 1   
@<TRIPOS>SUBSTRUCTURE
     1 CKI         1 TEMP              0 ****  ****    0 ROOT
