@<TRIPOS>MOLECULE
CKI
   30    31     1     0     0
SMALL
bcc


@<TRIPOS>ATOM
      1 C1          2.0170   -0.7780   -0.4870 ca        1 CKI      0.393200
      2 N2          3.0530   -0.6750   -1.3000 nb        1 CKI     -0.638000
      3 C3          2.8180   -0.2870   -2.5910 ca        1 CKI      0.380200
      4 C4          1.5550   -0.0160   -3.0860 ca        1 CKI     -0.215300
      5 C5         -0.9040    0.1270   -2.6480 ca        1 CKI      0.079400
      6 CL5        -1.2210    0.5680   -4.2570 cl        1 CKI     -0.069400
      7 C6         -1.9560    0.0120   -1.7640 ca        1 CKI     -0.146000
      8 C7         -1.7080   -0.3340   -0.4200 ca        1 CKI     -0.002000
      9 C8         -0.4310   -0.5780    0.0490 ca        1 CKI     -0.340500
     10 C9          0.6550   -0.4940   -0.8650 ca        1 CKI     -0.060300
     11 C10         0.4330   -0.1210   -2.2180 ca        1 CKI     -0.034000
     12 S          -0.2510   -0.9630    1.7040 sy        1 CKI      1.511200
     13 O1S         0.6450   -2.0420    1.8360 o         1 CKI     -0.649300
     14 O2S        -1.5450   -1.1370    2.2400 o         1 CKI     -0.649300
     15 N1'         0.4480    0.3600    2.3020 n3        1 CKI     -0.921100
     16 C1'        -0.2520    1.4850    2.8520 c3        1 CKI      0.221800
     17 C2'         0.2320    1.8640    4.2730 c3        1 CKI      0.146800
     18 N2'        -0.4560    3.0270    4.7730 n3        1 CKI     -0.916800
     19 H1          2.2430   -1.1430    0.5360 h4        1 CKI      0.046100
     20 H3          3.7180   -0.2130   -3.2270 h4        1 CKI      0.030100
     21 H4          1.4140    0.2750   -4.1360 ha        1 CKI      0.157000
     22 H6         -2.9940    0.1900   -2.0890 ha        1 CKI      0.160000
     23 H7         -2.5730   -0.4130    0.2680 ha        1 CKI      0.173000
     24 HN1         1.4360    0.4560    2.3250 hn        1 CKI      0.449800
     25 H1'1       -1.3540    1.2420    2.8990 h1        1 CKI      0.059200
     26 H1'2       -0.1180    2.3750    2.1710 h1        1 CKI      0.059200
     27 H2'1        1.3550    2.0000    4.2450 h1        1 CKI      0.032700
     28 H2'2        0.0160    1.0080    4.9720 h1        1 CKI      0.032700
     29 HN21       -0.1920    3.2090    5.7200 hn        1 CKI      0.355300
     30 HN22       -0.2650    3.8330    4.2120 hn        1 CKI      0.355300
@<TRIPOS>BOND
     1    1    2 ar  
     2    1   10 ar  
     3    1   19 1   
     4    2    3 ar  
     5    3    4 ar  
     6    3   20 1   
     7    4   11 ar  
     8    4   21 1   
     9    5    6 1   
    10    5    7 ar  
    11    5   11 ar  
    12    7    8 ar  
    13    7   22 1   
    14    8    9 ar  
    15    8   23 1   
    16    9   10 ar  
    17    9   12 1   
    18   10   11 ar  
    19   12   13 2   
    20   12   14 2   
    21   12   15 1   
    22   15   16 1   
    23   15   24 1   
    24   16   17 1   
    25   16   25 1   
    26   16   26 1   
    27   17   18 1   
    28   17   27 1   
    29   17   28 1   
    30   18   29 1   
    31   18   30 1   
@<TRIPOS>SUBSTRUCTURE
     1 CKI         1 TEMP              0 ****  ****    0 ROOT
