@<TRIPOS>MOLECULE
CKI
   32    32     1     0     0
SMALL
bcc


@<TRIPOS>ATOM
      1 C1         -0.2450    0.6430    0.1630 ca        1 CKI      0.340200
      2 N2          0.9070    1.1620   -0.2480 nb        1 CKI     -0.566000
      3 C3          1.8150    1.5440    0.6900 ca        1 CKI      0.406200
      4 C4          1.5880    1.4110    2.0560 ca        1 CKI     -0.167300
      5 C5          0.0770    0.6830    3.8950 ca        1 CKI      0.212400
      6 Cl5         1.1630    1.1570    5.0690 cl        1 CKI      0.080600
      7 C6         -1.1400    0.1110    4.2870 ca        1 CKI     -0.189000
      8 C7         -2.0670   -0.2780    3.3410 ca        1 CKI      0.087000
      9 C8         -1.8610   -0.1280    1.9400 ca        1 CKI     -0.645500
     10 C9         -0.5990    0.4460    1.5360 ca        1 CKI     -0.024300
     11 C10         0.3630    0.8490    2.5040 ca        1 CKI     -0.074000
     12 S          -2.9990   -0.5370    0.9970 s4        1 CKI      1.677300
     13 O1S        -2.9430   -0.3140   -0.3410 o         1 CKI     -0.435400
     14 O2S        -4.1280   -1.0530    1.5510 o         1 CKI     -0.435400
     15 N1'        -2.5590   -3.0560    0.2610 n8        1 CKI     -0.970800
     16 C1'        -3.2980   -3.2540   -0.9640 c3        1 CKI      0.118800
     17 C2'        -3.1870   -4.6740   -1.5690 c3        1 CKI      0.056800
     18 N2'        -3.9760   -4.8240   -2.8210 nz        1 CKI     -0.831600
     19 H1         -0.9370    0.3820   -0.6630 h4        1 CKI      0.050100
     20 H3          2.7560    1.9780    0.2940 h4        1 CKI      0.074100
     21 H4          2.3530    1.7420    2.7780 ha        1 CKI      0.188000
     22 H6         -1.3660   -0.0240    5.3630 ha        1 CKI      0.204000
     23 H7         -3.0240   -0.7190    3.6960 ha        1 CKI      0.184000
     24 HN1        -2.9210   -3.6340    1.0010 hn        1 CKI      0.397300
     25 H1'1       -4.3850   -3.0280   -0.7500 h1        1 CKI      0.099200
     26 H1'2       -2.9240   -2.4950   -1.7150 h1        1 CKI      0.099200
     27 H2'1       -2.1090   -4.9090   -1.8120 hx        1 CKI      0.122200
     28 H2'2       -3.5640   -5.4420   -0.8310 hx        1 CKI      0.122200
     29 HN21       -3.6530   -4.1580   -3.5330 hn        1 CKI      0.474800
     30 HN22       -3.8660   -5.7790   -3.1880 hn        1 CKI      0.474800
     31 H1'3       -1.5820   -3.2540    0.1340 hn        1 CKI      0.397300
     32 H2'3       -4.9730   -4.6520   -2.6410 hn        1 CKI      0.474800
@<TRIPOS>BOND
     1    1    2 ar  
     2    1   10 ar  
     3    1   19 1   
     4    2    3 ar  
     5    3    4 ar  
     6    3   20 1   
     7    4   11 ar  
     8    4   21 1   
     9    5    6 1   
    10    5    7 ar  
    11    5   11 ar  
    12    7    8 ar  
    13    7   22 1   
    14    8    9 ar  
    15    8   23 1   
    16    9   10 ar  
    17    9   12 1   
    18   10   11 ar  
    19   12   13 1   
    20   12   14 1   
    21   15   16 1   
    22   15   24 1   
    23   15   31 1   
    24   16   17 1   
    25   16   25 1   
    26   16   26 1   
    27   17   18 1   
    28   17   27 1   
    29   17   28 1   
    30   18   29 1   
    31   18   30 1   
    32   18   32 1   
@<TRIPOS>SUBSTRUCTURE
     1 CKI         1 TEMP              0 ****  ****    0 ROOT
