@<TRIPOS>MOLECULE
CKJ
   58    61     1     0     0
SMALL
bcc


@<TRIPOS>ATOM
      1 C           3.7540   -2.0770   -0.1740 ca        1 CKJ     -0.083000
      2 F           5.0850   -5.4560   -0.5740 f         1 CKJ     -0.139900
      3 N           1.8530   -0.0870    1.0600 nc        1 CKJ     -0.508100
      4 C01         0.8090    3.0750    0.4790 c3        1 CKJ     -0.087700
      5 C02        -4.9130   -1.0830   -0.3320 c3        1 CKJ      0.210800
      6 N02         0.7440    0.6650    1.2260 na        1 CKJ     -0.004800
      7 C03        -6.3090   -0.4600   -0.3190 c3        1 CKJ     -0.095400
      8 C04        -7.3450   -1.5160   -0.6420 c3        1 CKJ     -0.078400
      9 C05        -8.7360   -0.9370   -0.6380 c3        1 CKJ     -0.094100
     10 C06         2.4410   -2.3570    0.2330 ca        1 CKJ     -0.109900
     11 C07         2.0320   -3.6910    0.3740 ca        1 CKJ     -0.083000
     12 C08         2.9100   -4.7340    0.1060 ca        1 CKJ     -0.170000
     13 C09         4.2240   -4.4450   -0.3090 ca        1 CKJ      0.131900
     14 C10         4.6440   -3.1100   -0.4470 ca        1 CKJ     -0.170000
     15 C23        -0.9050   -2.1580   -0.2640 ca        1 CKJ      0.531200
     16 N24        -2.1880   -1.8100   -0.3410 nb        1 CKJ     -0.759000
     17 C25        -2.5490   -0.5280    0.1150 ca        1 CKJ      0.900900
     18 N26        -1.6890    0.4090    0.6710 nb        1 CKJ     -0.770000
     19 C27         0.0740   -1.3020    0.2600 ca        1 CKJ     -0.486500
     20 C28        -0.3950    0.0010    0.7170 ca        1 CKJ      0.484800
     21 C31         1.5060   -1.2800    0.5120 cd        1 CKJ      0.435500
     22 C32         0.7610    2.0600    1.6300 c3        1 CKJ      0.065300
     23 C33         0.4810    4.4520    1.0410 c3        1 CKJ     -0.074400
     24 C35         2.1720    3.0910   -0.1930 c3        1 CKJ     -0.074400
     25 C36         2.2410    4.1510   -1.2720 c3        1 CKJ     -0.075400
     26 C37         1.9370    5.5400   -0.6870 c3        1 CKJ      0.171500
     27 C38         0.5450    5.5130   -0.0360 c3        1 CKJ     -0.075400
     28 N39         2.0310    6.5800   -1.7000 n3        1 CKJ     -0.913800
     29 H           4.0870   -1.0330   -0.2800 ha        1 CKJ      0.146500
     30 H01         0.0290    2.8080   -0.2880 hc        1 CKJ      0.071700
     31 HN01       -4.1500    0.7040    0.4320 hn        1 CKJ      0.436800
     32 H02        -4.7180   -1.5280   -1.3500 h1        1 CKJ      0.054700
     33 H02A       -4.8860   -1.9280    0.4170 h1        1 CKJ      0.054700
     34 H03        -6.5280   -0.0160    0.6880 hc        1 CKJ      0.048200
     35 H03A       -6.3700    0.3700   -1.0710 hc        1 CKJ      0.048200
     36 H04        -7.1240   -1.9600   -1.6490 hc        1 CKJ      0.044200
     37 H04A       -7.2800   -2.3480    0.1080 hc        1 CKJ      0.044200
     38 H05        -9.4850   -1.7300   -0.8790 hc        1 CKJ      0.035700
     39 H05A       -8.9840   -0.5120    0.3650 hc        1 CKJ      0.035700
     40 H05B       -8.8280   -0.1230   -1.3970 hc        1 CKJ      0.035700
     41 H07         1.0080   -3.9150    0.7100 ha        1 CKJ      0.146500
     42 H08         2.5920   -5.7810    0.2180 ha        1 CKJ      0.150500
     43 H10         5.6730   -2.8930   -0.7690 ha        1 CKJ      0.150500
     44 H23        -0.6530   -3.1680   -0.6380 h4        1 CKJ      0.031100
     45 H32         1.6480    2.2240    2.3050 h1        1 CKJ      0.073700
     46 H32A       -0.1840    2.2280    2.2230 h1        1 CKJ      0.073700
     47 H33        -0.5490    4.4400    1.4850 hc        1 CKJ      0.044950
     48 H33A        1.2020    4.7010    1.8630 hc        1 CKJ      0.044950
     49 H35         2.9660    3.2810    0.5760 hc        1 CKJ      0.044950
     50 H35A        2.3810    2.0900   -0.6530 hc        1 CKJ      0.044950
     51 H36         3.2640    4.1460   -1.7290 hc        1 CKJ      0.048950
     52 H36A        1.5040    3.9170   -2.0840 hc        1 CKJ      0.048950
     53 H37         2.6890    5.7190    0.1470 h1        1 CKJ      0.005700
     54 H38        -0.2320    5.3090   -0.8180 hc        1 CKJ      0.048950
     55 H38A        0.3170    6.5130    0.4180 hc        1 CKJ      0.048950
     56 HN39        1.8630    7.4770   -1.2900 hn        1 CKJ      0.349300
     57 HN3A        2.9390    6.5710   -2.1200 hn        1 CKJ      0.349300
     58 N01        -3.8740   -0.1220   -0.0540 nh        1 CKJ     -0.839900
@<TRIPOS>BOND
     1    1   10 ar  
     2    1   14 ar  
     3    1   29 1   
     4    2   13 1   
     5    3    6 1   
     6    3   21 2   
     7    4   22 1   
     8    4   23 1   
     9    4   24 1   
    10    4   30 1   
    11    5    7 1   
    12    5   32 1   
    13    5   33 1   
    14    5   58 1   
    15    6   20 1   
    16    6   22 1   
    17    7    8 1   
    18    7   34 1   
    19    7   35 1   
    20    8    9 1   
    21    8   36 1   
    22    8   37 1   
    23    9   38 1   
    24    9   39 1   
    25    9   40 1   
    26   10   11 ar  
    27   10   21 1   
    28   11   12 ar  
    29   11   41 1   
    30   12   13 ar  
    31   12   42 1   
    32   13   14 ar  
    33   14   43 1   
    34   15   16 ar  
    35   15   19 ar  
    36   15   44 1   
    37   16   17 ar  
    38   17   18 ar  
    39   17   58 1   
    40   18   20 ar  
    41   19   20 ar  
    42   19   21 1   
    43   22   45 1   
    44   22   46 1   
    45   23   27 1   
    46   23   47 1   
    47   23   48 1   
    48   24   25 1   
    49   24   49 1   
    50   24   50 1   
    51   25   26 1   
    52   25   51 1   
    53   25   52 1   
    54   26   27 1   
    55   26   28 1   
    56   26   53 1   
    57   27   54 1   
    58   27   55 1   
    59   28   56 1   
    60   28   57 1   
    61   31   58 1   
@<TRIPOS>SUBSTRUCTURE
     1 CKJ         1 TEMP              0 ****  ****    0 ROOT
