@<TRIPOS>MOLECULE
CKJ
   58    55     1     0     0
SMALL
bcc


@<TRIPOS>ATOM
      1 C          -1.7350   -2.4620    4.3230 c1        1 CKJ     -0.076000
      2 F          -4.2590   -2.1990    6.9400 f         1 CKJ     -0.105000
      3 N          -1.7020   -1.4650    1.2980 n2        1 CKJ     -0.042000
      4 C01        -1.9460   -1.0290   -2.0360 c3        1 CKJ     -0.128000
      5 N01         3.2570    1.6110    0.0590 n3        1 CKJ     -0.282000
      6 C02         4.2700    2.2570    0.8390 c3        1 CKJ     -0.027000
      7 N02        -0.9470   -1.0950    0.2110 n2        1 CKJ     -0.139000
      8 C03         5.4210    2.7070   -0.0860 c3        1 CKJ     -0.174000
      9 C04         6.6180    3.1090    0.7510 c3        1 CKJ     -0.157000
     10 C05         7.8120    3.4280   -0.1770 c3        1 CKJ     -0.212000
     11 C06        -1.9780   -1.2940    3.6210 c1        1 CKJ     -0.028000
     12 C07        -3.0140   -0.4320    4.0280 c1        1 CKJ     -0.091000
     13 C08        -3.7950   -0.7550    5.1370 c1        1 CKJ     -0.170000
     14 C09        -3.5530   -1.9250    5.8400 c2        1 CKJ      0.097000
     15 C10        -2.5200   -2.7860    5.4350 c2        1 CKJ     -0.171000
     16 C23         0.9700    0.5160    2.7380 c1        1 CKJ      0.066000
     17 N24         1.9870    1.1290    2.0850 n1        1 CKJ     -0.232000
     18 C25         2.0880    1.0260    0.7160 c2        1 CKJ      0.181000
     19 N26         1.1470    0.2930    0.0040 n2        1 CKJ     -0.243000
     20 C27         0.0150   -0.2280    2.0150 c1        1 CKJ     -0.272000
     21 C28         0.1160   -0.3280    0.6640 c1        1 CKJ      0.092000
     22 C31        -1.1230   -0.9390    2.4140 c1        1 CKJ     -0.019000
     23 C32        -1.2580   -1.9120   -0.9680 c2        1 CKJ      0.004000
     24 C33        -1.2360   -1.2190   -3.3680 c3        1 CKJ     -0.153500
     25 C35        -3.3970   -1.3980   -2.1070 c3        1 CKJ     -0.153500
     26 C36        -4.1160   -0.7090   -3.2590 c3        1 CKJ     -0.153000
     27 C37        -3.4010   -0.8990   -4.5870 c3        1 CKJ     -0.026000
     28 C38        -1.9630   -0.5330   -4.5190 c3        1 CKJ     -0.153000
     29 N39        -4.0560   -0.0590   -5.6060 n3        1 CKJ     -0.346000
     30 H          -0.9980   -3.0760    4.0340 ha        1 CKJ      0.153000
     31 H01        -1.8710   -0.1200   -1.7750 hc        1 CKJ      0.111000
     32 HN01        3.3420    1.5610   -0.8380 hn        1 CKJ      0.231000
     33 H02         3.8770    3.0610    1.3000 h1        1 CKJ      0.094000
     34 H02A        4.6090    1.6400    1.4980 h1        1 CKJ      0.094000
     35 H03         5.6750    1.9600   -0.6870 hc        1 CKJ      0.087500
     36 H03A        5.1250    3.4760   -0.6250 hc        1 CKJ      0.087500
     37 H04         6.8680    2.3440    1.3780 hc        1 CKJ      0.083000
     38 H04A        6.3890    3.9200    1.2890 hc        1 CKJ      0.083000
     39 H05         7.5110    4.0340   -0.9060 hc        1 CKJ      0.075000
     40 H05A        8.1360    2.6440   -0.5430 hc        1 CKJ      0.075000
     41 H05B        8.5150    3.8610    0.3360 hc        1 CKJ      0.075000
     42 H07        -3.1830    0.3830    3.5400 ha        1 CKJ      0.142000
     43 H08        -4.5360   -0.1360    5.4290 ha        1 CKJ      0.150000
     44 H10        -2.3430   -3.6320    5.9450 ha        1 CKJ      0.151000
     45 H23         0.8940    0.5930    3.7580 ha        1 CKJ      0.168000
     46 H32        -0.4340   -2.2790   -1.3330 ha        1 CKJ      0.113000
     47 H32A       -1.8430   -2.6260   -0.7180 ha        1 CKJ      0.113000
     48 H33        -1.1740   -2.1610   -3.5570 hc        1 CKJ      0.084750
     49 H33A       -0.2950   -0.8320   -3.2990 hc        1 CKJ      0.084750
     50 H35        -3.4690   -2.3520   -2.2220 hc        1 CKJ      0.084750
     51 H35A       -3.8240   -1.1510   -1.2800 hc        1 CKJ      0.084750
     52 H36        -5.0500   -1.0850   -3.3350 hc        1 CKJ      0.088250
     53 H36A       -4.1740    0.2560   -3.0670 hc        1 CKJ      0.088250
     54 H37        -3.4780   -1.8580   -4.8590 h1        1 CKJ      0.045000
     55 H38        -1.8920    0.4190   -4.4090 hc        1 CKJ      0.088250
     56 H38A       -1.5420   -0.7820   -5.3420 hc        1 CKJ      0.088250
     57 HN39       -3.6280   -0.1830   -6.4410 hn        1 CKJ      0.144500
     58 HN3A       -4.9100   -0.2870   -5.6740 hn        1 CKJ      0.144500
@<TRIPOS>BOND
     1    1   15 1   
     2    1   30 1   
     3    2   14 1   
     4    3    7 1   
     5    3   22 1   
     6    4   23 1   
     7    4   24 1   
     8    4   25 1   
     9    4   31 1   
    10    5    6 1   
    11    5   18 1   
    12    5   32 1   
    13    6    8 1   
    14    6   33 1   
    15    6   34 1   
    16    7   21 1   
    17    8    9 1   
    18    8   35 1   
    19    8   36 1   
    20    9   10 1   
    21    9   37 1   
    22    9   38 1   
    23   10   39 1   
    24   10   40 1   
    25   10   41 1   
    26   11   12 1   
    27   11   22 1   
    28   12   42 1   
    29   13   14 1   
    30   13   43 1   
    31   14   15 1   
    32   15   44 1   
    33   16   20 1   
    34   16   45 1   
    35   17   18 1   
    36   18   19 1   
    37   19   21 1   
    38   23   46 1   
    39   23   47 1   
    40   24   28 1   
    41   24   48 1   
    42   24   49 1   
    43   25   26 1   
    44   25   50 1   
    45   25   51 1   
    46   26   27 1   
    47   26   52 1   
    48   26   53 1   
    49   27   28 1   
    50   27   29 1   
    51   27   54 1   
    52   28   55 1   
    53   28   56 1   
    54   29   57 1   
    55   29   58 1   
@<TRIPOS>SUBSTRUCTURE
     1 CKJ         1 TEMP              0 ****  ****    0 ROOT
