@<TRIPOS>MOLECULE
CKJ
   60    60     1     0     0
SMALL
bcc


@<TRIPOS>ATOM
      1 C           0.1750   -0.1710   -1.2070 c2        1 CKJ     -0.456000
      2 F          -0.9050    0.3400    2.8850 f         1 CKJ     -0.067000
      3 N           2.5510   -1.1950   -2.6680 n2        1 CKJ     -0.116000
      4 C01         2.8320    0.0490   -5.4450 c2        1 CKJ     -0.300000
      5 C02         8.2310    2.9570   -2.4850 c3        1 CKJ     -0.011000
      6 N02         3.7450   -1.2130   -3.4580 n4        1 CKJ      0.063000
      7 C03         9.6410    3.1940   -3.0400 c3        1 CKJ     -0.197000
      8 C04        10.2610    4.3870   -2.3420 c3        1 CKJ     -0.286000
      9 C05        11.5820    4.7370   -2.7380 c2        1 CKJ      0.295000
     10 C06         1.5390    0.0670   -0.7940 c2        1 CKJ     -0.036000
     11 C07         1.8720    0.5160    0.4460 c2        1 CKJ     -0.029000
     12 C08         0.9400    0.8080    1.4980 c2        1 CKJ     -0.263000
     13 C09        -0.0570   -0.0170    1.9100 c2        1 CKJ      0.097000
     14 C10        -0.8670   -0.3580   -0.4080 c1        1 CKJ      0.253000
     15 C23         4.4510    1.6800   -1.3080 c2        1 CKJ      0.106000
     16 N24         5.6620    2.1090   -1.6890 n2        1 CKJ     -0.215000
     17 C25         6.3210    1.4130   -2.7040 c2        1 CKJ      0.222000
     18 N26         5.7950    0.2900   -3.3910 n2        1 CKJ     -0.186000
     19 C27         3.8460    0.5600   -1.8950 c2        1 CKJ     -0.277000
     20 C28         4.5900   -0.0710   -2.9550 c2        1 CKJ      0.049000
     21 C31         2.5880   -0.2010   -1.7710 c2        1 CKJ      0.159000
     22 C32         3.5270   -1.1660   -4.9690 c3        1 CKJ     -0.029000
     23 C33         1.6450   -0.0030   -6.0700 c2        1 CKJ     -0.013000
     24 C35        -1.2190   -0.0080   -4.7660 c3        1 CKJ     -0.214000
     25 C36        -1.3340    1.1670   -5.7010 c3        1 CKJ     -0.165000
     26 C37        -0.5000    0.9740   -6.9790 c3        1 CKJ     -0.015000
     27 C38         1.0020    1.1880   -6.6680 c3        1 CKJ     -0.207000
     28 N39        -1.0000    1.8000   -8.0550 n3        1 CKJ     -0.341000
     29 H          -0.0360   -0.1820   -2.3010 ha        1 CKJ      0.206000
     30 H01        -0.1670   -0.1380   -4.4120 hc        1 CKJ      0.072333
     31 HN01        3.1820    2.9460   -6.5770 ha        1 CKJ      0.000500
     32 H02         8.0390    1.3380   -3.8330 hn        1 CKJ      0.270000
     33 H02A        8.2980    2.7910   -1.3690 h1        1 CKJ      0.114000
     34 H03         7.6050    3.8820   -2.6590 h1        1 CKJ      0.114000
     35 H03A       10.2790    2.2840   -2.8760 hc        1 CKJ      0.128500
     36 H04         9.5940    3.3830   -4.1460 hc        1 CKJ      0.128500
     37 H04A       10.2480    4.2440   -1.2000 hc        1 CKJ      0.249500
     38 H05         9.5880    5.3150   -2.4440 hc        1 CKJ      0.249500
     39 H05A       12.1330    4.1660   -3.5150 ha        1 CKJ      0.198500
     40 H05B       12.1070    5.6010   -2.2750 ha        1 CKJ      0.198500
     41 H07         2.9310    0.7170    0.6950 ha        1 CKJ      0.135000
     42 H08         1.0880    1.7820    2.0020 ha        1 CKJ      0.174000
     43 H10        -0.2050   -1.0630    1.5650 h4        1 CKJ      0.174000
     44 H23         3.9580    2.2680   -0.5060 h4        1 CKJ      0.210000
     45 H32         4.2230   -2.1080   -3.2470 hn        1 CKJ      0.278000
     46 H32A        4.5630   -1.2260   -5.4140 hx        1 CKJ      0.148500
     47 H33         2.9470   -2.1020   -5.2240 hx        1 CKJ      0.148500
     48 H33A        1.1070   -0.9620   -6.1990 ha        1 CKJ      0.146000
     49 H35         3.3740    1.0010   -5.3260 ha        1 CKJ      0.140000
     50 H35A       -1.5390   -0.9520   -5.2720 hc        1 CKJ      0.072333
     51 H36        -1.8750    0.1500   -3.8750 hc        1 CKJ      0.072333
     52 H36A       -2.4160    1.2950   -5.9820 hc        1 CKJ      0.100000
     53 H37        -1.0150    2.1070   -5.1800 hc        1 CKJ      0.100000
     54 H38        -0.6300   -0.0970   -7.3250 h1        1 CKJ      0.105000
     55 H38A        1.1250    2.0780   -5.9960 hc        1 CKJ      0.108500
     56 HN39        1.5570    1.4210   -7.6210 hc        1 CKJ      0.108500
     57 HN3A       -0.4590    1.6870   -8.8870 hn        1 CKJ      0.157000
     58 H393       -1.0420    2.7650   -7.7990 hn        1 CKJ      0.157000
     59 H012        3.7280    3.2620   -6.3320 ha        1 CKJ      0.000500
     60 N01         7.5810    1.8230   -3.0920 nh        1 CKJ     -0.287000
@<TRIPOS>BOND
     1    1   10 1   
     2    1   14 1   
     3    1   29 1   
     4    2   13 1   
     5    3    6 1   
     6    3   21 1   
     7    4   22 1   
     8    4   23 1   
     9    4   49 1   
    10    5    7 1   
    11    5   33 1   
    12    5   34 1   
    13    5   60 1   
    14    6   20 1   
    15    6   22 1   
    16    6   45 1   
    17    7    8 1   
    18    7   35 1   
    19    7   36 1   
    20    8    9 1   
    21    8   37 1   
    22    8   38 1   
    23    9   39 1   
    24    9   40 1   
    25   10   11 1   
    26   10   21 1   
    27   11   12 1   
    28   11   41 1   
    29   12   13 1   
    30   12   42 1   
    31   13   43 1   
    32   15   16 1   
    33   15   19 1   
    34   15   44 1   
    35   16   17 1   
    36   17   18 1   
    37   17   60 1   
    38   18   20 1   
    39   19   20 1   
    40   19   21 1   
    41   22   46 1   
    42   22   47 1   
    43   23   27 1   
    44   23   48 1   
    45   24   25 1   
    46   24   30 1   
    47   24   50 1   
    48   24   51 1   
    49   25   26 1   
    50   25   52 1   
    51   25   53 1   
    52   26   27 1   
    53   26   28 1   
    54   26   54 1   
    55   27   55 1   
    56   27   56 1   
    57   28   57 1   
    58   28   58 1   
    59   31   59 1   
    60   32   60 1   
@<TRIPOS>SUBSTRUCTURE
     1 CKJ         1 TEMP              0 ****  ****    0 ROOT
