@<TRIPOS>MOLECULE
CKK
   68    67     1     0     0
SMALL
bcc


@<TRIPOS>ATOM
      1 N14         0.2790    1.2120    0.5280 n         1 CKK     -0.281000
      2 C17         4.0300    1.0670    0.2070 c2        1 CKK      0.274000
      3 C16         2.7160    1.2190    0.7990 c2        1 CKK     -0.235000
      4 C15         1.5930    1.0510    0.0390 c2        1 CKK      0.079000
      5 C19         1.6990    0.6860   -1.4230 c3        1 CKK     -0.183000
      6 C20         3.0370    0.5240   -1.9670 c1        1 CKK     -0.099000
      7 C21         4.1480    0.7180   -1.1410 c2        1 CKK     -0.102000
      8 C23         6.0070    1.4520   -2.4220 c2        1 CKK      0.134000
      9 C12        -0.0240    1.5010    1.8400 c2        1 CKK      0.340000
     10 C27         7.4240    1.1660   -2.8090 c2        1 CKK     -0.045000
     11 C33         7.2130   -2.5440   -2.3060 c1        1 CKK      0.031000
     12 C2         -2.3470    1.5340    7.0670 c2        1 CKK      0.070000
     13 C3         -3.4800    1.8950    6.3730 c2        1 CKK     -0.147000
     14 C4         -3.7130    1.3790    5.0530 c2        1 CKK     -0.051000
     15 C5         -1.3170    0.7180    6.4560 c1        1 CKK     -0.014000
     16 C6         -1.5930    0.1260    5.1600 c3        1 CKK     -0.210000
     17 C7         -2.8220    0.5550    4.4410 c2        1 CKK     -0.248000
     18 C8         -3.1090   -0.0590    3.1250 c3        1 CKK     -0.130000
     19 O10        -2.3900    0.1250    0.7940 o         1 CKK     -0.202000
     20 N11        -1.4980    1.7370    2.1910 n4        1 CKK     -0.181000
     21 O13         0.7320    1.6150    2.8080 o         1 CKK     -0.219000
     22 O22         5.4370    0.4690   -1.6270 os        1 CKK     -0.136000
     23 N24         5.3320    2.5100   -2.8170 n2        1 CKK     -0.198000
     24 C25         6.0290    3.3490   -3.7160 c2        1 CKK     -0.108000
     25 N26         7.2270    3.1180   -4.2250 n2        1 CKK     -0.032000
     26 N28         7.8530    1.9790   -3.9120 na        1 CKK     -0.209000
     27 C29        10.0170    0.0190   -3.9880 c1        1 CKK      0.231000
     28 C30         9.5940    0.0190   -2.7380 c2        1 CKK     -0.461000
     29 C31         8.2490    0.2410   -2.2400 c2        1 CKK     -0.085000
     30 C32         7.8910   -0.5930   -1.0440 c3        1 CKK     -0.016000
     31 N34         7.4420   -1.9340   -1.2610 n2        1 CKK     -0.124000
     32 C35         3.6100    0.3830   -5.2930 c2        1 CKK     -0.023000
     33 C36         4.5980   -0.2120   -5.9860 c2        1 CKK     -0.283000
     34 C37         5.5290   -1.0970   -5.3270 c2        1 CKK      0.183000
     35 C38         6.9480   -3.3460   -3.3140 c2        1 CKK     -0.373000
     36 N39         6.5630   -1.6650   -5.9000 n3        1 CKK     -0.192000
     37 HN14       -0.4630    1.0200   -0.1210 hn        1 CKK      0.284000
     38 H16         2.7000    1.4800    1.8740 ha        1 CKK      0.202000
     39 H19         1.1450   -0.2820   -1.6200 hc        1 CKK      0.181000
     40 H20         1.1980    1.4830   -2.0550 hc        1 CKK      0.181000
     41 H33         3.9470   -3.1030   -4.6080 ha        1 CKK      0.001500
     42 H33A        3.6260   -3.6920   -4.5030 ha        1 CKK      0.001500
     43 H5         -0.6700    0.2520    4.5230 hc        1 CKK      0.172500
     44 H6         -1.6560   -0.9920    5.3860 hc        1 CKK      0.172500
     45 H8         -4.2090    0.0170    2.8680 hc        1 CKK      0.178000
     46 H8A        -2.8550   -1.1620    3.1470 hc        1 CKK      0.178000
     47 HN11       -1.8580    2.5280    1.6440 hn        1 CKK      0.282000
     48 H25         5.4960    4.2740   -4.0150 h5        1 CKK      0.221000
     49 H29         8.8590    2.0740   -4.0080 hn        1 CKK      0.266000
     50 H30        10.3620   -0.2110   -1.9600 ha        1 CKK      0.222000
     51 H32         7.0980   -0.0820   -0.4200 h1        1 CKK      0.138000
     52 H32A        8.8100   -0.6870   -0.3860 h1        1 CKK      0.138000
     53 H35         2.9000    1.0610   -5.7970 ha        1 CKK      0.172000
     54 H35A        4.4960   -2.1850   -2.4380 ha        1 CKK      0.001500
     55 H36         4.7230   -0.0330   -7.0700 ha        1 CKK      0.175000
     56 H36A        3.4500    0.2530   -4.1990 ha        1 CKK      0.172000
     57 H37         4.1200   -1.6230   -2.3760 ha        1 CKK      0.001500
     58 H38         7.7210   -4.0130   -3.7220 ha        1 CKK      0.153000
     59 H38A        5.9180   -3.5180   -3.6530 ha        1 CKK      0.153000
     60 HN39        5.3590   -1.3220   -4.2390 h4        1 CKK      0.204000
     61 HN3A        6.7930   -1.5130   -6.8640 hn        1 CKK      0.284500
     62 C9         -2.3690    0.5180    1.9520 c2        1 CKK      0.279000
     63 H3         -4.2380    2.5660    6.8140 ha        1 CKK      0.184000
     64 F1         -2.1400    1.9750    8.3220 f         1 CKK     -0.043000
     65 H112       -1.5230    1.9910    3.1960 hn        1 CKK      0.282000
     66 H393        7.1680   -2.2780   -5.3730 hn        1 CKK      0.284500
     67 F18         5.0920    1.2520    0.9950 f         1 CKK     -0.032000
     68 H4         -4.6650    1.6630    4.5700 ha        1 CKK      0.155000
@<TRIPOS>BOND
     1    1    4 1   
     2    1    9 1   
     3    1   37 1   
     4    2    3 1   
     5    2    7 1   
     6    2   67 1   
     7    3    4 1   
     8    3   38 1   
     9    4    5 1   
    10    5    6 1   
    11    5   39 1   
    12    5   40 1   
    13    6    7 1   
    14    7   22 1   
    15    8   10 1   
    16    8   22 1   
    17    8   23 1   
    18    9   20 1   
    19    9   21 1   
    20   10   26 1   
    21   10   29 1   
    22   11   31 1   
    23   11   35 1   
    24   12   13 1   
    25   12   15 1   
    26   12   64 1   
    27   13   14 1   
    28   13   63 1   
    29   14   17 1   
    30   14   68 1   
    31   15   16 1   
    32   16   17 1   
    33   16   43 1   
    34   16   44 1   
    35   17   18 1   
    36   18   45 1   
    37   18   46 1   
    38   18   62 1   
    39   19   62 1   
    40   20   47 1   
    41   20   62 1   
    42   20   65 1   
    43   23   24 1   
    44   24   25 1   
    45   24   48 1   
    46   25   26 1   
    47   26   49 1   
    48   27   28 1   
    49   28   29 1   
    50   28   50 1   
    51   29   30 1   
    52   30   31 1   
    53   30   51 1   
    54   30   52 1   
    55   32   33 1   
    56   32   53 1   
    57   32   56 1   
    58   33   34 1   
    59   33   55 1   
    60   34   36 1   
    61   34   60 1   
    62   35   58 1   
    63   35   59 1   
    64   36   61 1   
    65   36   66 1   
    66   41   42 1   
    67   54   57 1   
@<TRIPOS>SUBSTRUCTURE
     1 CKK         1 TEMP              0 ****  ****    0 ROOT
