@<TRIPOS>MOLECULE
CKK
   66    68     1     0     0
SMALL
bcc


@<TRIPOS>ATOM
      1 N14         1.0730    0.4910    0.7170 n         1 CKK     -0.305000
      2 C17         4.8150    0.2870    0.5610 c2        1 CKK      0.270000
      3 C16         3.4810    0.2150    1.0870 c2        1 CKK     -0.307000
      4 C15         2.3960    0.5390    0.3020 c2        1 CKK      0.139000
      5 C19         2.6100    0.9840   -1.1280 c3        1 CKK     -0.194000
      6 C20         3.9780    1.0550   -1.6050 c1        1 CKK     -0.113000
      7 C21         5.0210    0.6560   -0.7740 c2        1 CKK     -0.131000
      8 C23         7.0080    1.7290   -1.4920 c2        1 CKK      0.173000
      9 C12         0.6240    0.0740    1.9800 c2        1 CKK      0.412000
     10 C27         8.1930    1.6070   -2.3990 c2        1 CKK     -0.035000
     11 C33         6.1320   -2.3210   -3.2400 c3        1 CKK     -0.066000
     12 C2         -3.5130    1.5390    6.2010 ca        1 CKK      0.106000
     13 C3         -3.6510    2.5080    5.1890 ca        1 CKK     -0.160500
     14 C4         -3.5470    2.1260    3.8570 ca        1 CKK     -0.098000
     15 C5         -3.2740    0.1930    5.8640 ca        1 CKK     -0.160500
     16 C6         -3.1730   -0.1690    4.5260 ca        1 CKK     -0.098000
     17 C7         -3.3050    0.7900    3.5130 ca        1 CKK     -0.120000
     18 C8         -3.2190    0.3910    2.0850 c3        1 CKK     -0.140000
     19 O10        -1.6590    0.9490    0.3410 o         1 CKK     -0.356000
     20 N11        -0.7600    0.0890    2.2850 n         1 CKK     -0.378000
     21 O13         1.3860   -0.3330    2.8830 o         1 CKK     -0.353000
     22 O22         6.3140    0.5490   -1.3040 os        1 CKK     -0.131000
     23 N24         6.6600    2.8410   -0.8750 n2        1 CKK     -0.209000
     24 C25         7.4950    3.9460   -1.1390 c2        1 CKK     -0.100000
     25 N26         8.5480    3.9620   -1.9390 n2        1 CKK     -0.070000
     26 N28         8.8250    2.8690   -2.6530 na        1 CKK     -0.202000
     27 C29        10.2670    1.4210   -4.6490 c1        1 CKK      0.188000
     28 C30         9.7710    0.4570   -3.8980 c2        1 CKK     -0.424000
     29 C31         8.6340    0.4630   -3.0010 c2        1 CKK     -0.052000
     30 C32         8.0110   -0.8880   -2.7800 c3        1 CKK     -0.021000
     31 N34         6.8880   -1.1570   -3.6600 n3        1 CKK     -0.292000
     32 C35         4.2050    0.7870   -4.9160 c2        1 CKK     -0.204000
     33 C36         3.9750   -0.5120   -5.0850 c2        1 CKK     -0.183000
     34 C37         3.8310   -1.4690   -3.9300 c3        1 CKK     -0.016000
     35 C38         4.8850   -2.5860   -4.0800 c3        1 CKK     -0.188000
     36 N39         2.4570   -1.9320   -3.7830 n3        1 CKK     -0.340000
     37 HN14        0.3880    0.7830    0.0420 hn        1 CKK      0.278000
     38 H16         3.3790   -0.1060    2.1380 ha        1 CKK      0.194000
     39 H19         2.1490    2.0040   -1.2870 hc        1 CKK      0.182000
     40 H20         2.0750    0.2730   -1.8360 hc        1 CKK      0.182000
     41 H33         6.8150   -3.2140   -3.3320 h1        1 CKK      0.063500
     42 H33A        5.8200   -2.2530   -2.1540 h1        1 CKK      0.063500
     43 H4         -3.6590    2.8830    3.0650 ha        1 CKK      0.143000
     44 H5         -3.1720   -0.5580    6.6610 ha        1 CKK      0.157000
     45 H6         -2.9980   -1.2240    4.2640 ha        1 CKK      0.143000
     46 H8         -3.8970    1.0340    1.4590 hc        1 CKK      0.132500
     47 H8A        -3.5450   -0.6770    1.9530 hc        1 CKK      0.132500
     48 HN11       -0.9620   -0.2030    3.2220 hn        1 CKK      0.266000
     49 H25         7.2190    4.8800   -0.6140 h5        1 CKK      0.200000
     50 H29         9.8050    2.8220   -2.9010 hn        1 CKK      0.246000
     51 H30        10.2770   -0.5320   -4.0120 ha        1 CKK      0.198000
     52 H32         7.7460   -0.9940   -1.6840 h1        1 CKK      0.078000
     53 H32A        8.7820   -1.6870   -2.9900 h1        1 CKK      0.078000
     54 H35         6.2850   -0.3530   -3.7290 hn        1 CKK      0.175000
     55 H35A        4.2820    1.2510   -3.9160 ha        1 CKK      0.133500
     56 H36         3.8910   -0.9680   -6.0840 ha        1 CKK      0.112000
     57 H36A        4.3330    1.4690   -5.7670 ha        1 CKK      0.133500
     58 H37         4.0520   -0.9080   -2.9660 h1        1 CKK      0.108000
     59 H38         4.4710   -3.5720   -3.7390 hc        1 CKK      0.085500
     60 H38A        5.1680   -2.7010   -5.1580 hc        1 CKK      0.085500
     61 HN39        2.4360   -2.7890   -3.2650 hn        1 CKK      0.137000
     62 HN3A        2.0370   -2.0920   -4.6780 hn        1 CKK      0.137000
     63 F18         5.8280   -0.0270    1.3810 f         1 CKK     -0.067000
     64 C9         -1.8220    0.5150    1.4960 c2        1 CKK      0.322000
     65 H3         -3.8400    3.5570    5.4620 ha        1 CKK      0.157000
     66 F1         -3.6140    1.9010    7.5010 f         1 CKK     -0.096000
@<TRIPOS>BOND
     1    1    4 1   
     2    1    9 1   
     3    1   37 1   
     4    2    3 1   
     5    2    7 1   
     6    2   63 1   
     7    3    4 1   
     8    3   38 1   
     9    4    5 1   
    10    5    6 1   
    11    5   39 1   
    12    5   40 1   
    13    6    7 1   
    14    7   22 1   
    15    8   10 1   
    16    8   22 1   
    17    8   23 1   
    18    9   20 1   
    19    9   21 1   
    20   10   26 1   
    21   10   29 1   
    22   11   31 1   
    23   11   35 1   
    24   11   41 1   
    25   11   42 1   
    26   12   13 1   
    27   12   15 1   
    28   12   66 1   
    29   13   14 1   
    30   13   65 1   
    31   14   17 1   
    32   14   43 1   
    33   15   16 1   
    34   15   44 1   
    35   16   17 1   
    36   16   45 1   
    37   17   18 1   
    38   18   46 1   
    39   18   47 1   
    40   18   64 1   
    41   19   64 1   
    42   20   48 1   
    43   20   64 1   
    44   23   24 1   
    45   24   25 1   
    46   24   49 1   
    47   25   26 1   
    48   26   50 1   
    49   27   28 1   
    50   28   29 1   
    51   28   51 1   
    52   29   30 1   
    53   30   31 1   
    54   30   52 1   
    55   30   53 1   
    56   31   54 1   
    57   32   33 1   
    58   32   55 1   
    59   32   57 1   
    60   33   34 1   
    61   33   56 1   
    62   34   35 1   
    63   34   36 1   
    64   34   58 1   
    65   35   59 1   
    66   35   60 1   
    67   36   61 1   
    68   36   62 1   
@<TRIPOS>SUBSTRUCTURE
     1 CKK         1 TEMP              0 ****  ****    0 ROOT
