@<TRIPOS>MOLECULE
CKK
   66    70     1     0     0
SMALL
bcc


@<TRIPOS>ATOM
      1 N14         3.1720   -0.3260   -0.1660 n         1 CKK     -0.483100
      2 C17        -0.3120    0.2460   -1.3990 ca        1 CKK      0.168900
      3 C16         1.0600   -0.0580   -1.4170 ca        1 CKK     -0.189000
      4 C15         1.7940   -0.0650   -0.2170 ca        1 CKK      0.112600
      5 C19         1.1330    0.2370    1.0020 ca        1 CKK     -0.196000
      6 C20        -0.2220    0.5330    1.0180 ca        1 CKK     -0.064000
      7 C21        -0.9510    0.5290   -0.1720 ca        1 CKK      0.022100
      8 C23        -2.8460    1.9250    0.1530 cc        1 CKK      0.715600
      9 C12         3.9200   -0.9560   -1.1800 c         1 CKK      0.786100
     10 C27        -4.2870    2.0200    0.0430 cc        1 CKK     -0.251600
     11 C33        -6.2950   -2.3260   -1.2420 c3        1 CKK      0.166800
     12 C2          9.0820    0.4300    1.9120 ca        1 CKK      0.134900
     13 C3          8.4430   -0.8010    2.1520 ca        1 CKK     -0.163500
     14 C4          7.9660   -1.5450    1.0780 ca        1 CKK     -0.102000
     15 C5          9.2380    0.9010    0.5950 ca        1 CKK     -0.163500
     16 C6          8.7570    0.1410   -0.4650 ca        1 CKK     -0.102000
     17 C7          8.1150   -1.0830   -0.2350 ca        1 CKK     -0.118300
     18 C8          7.6220   -1.8940   -1.3770 c3        1 CKK     -0.113100
     19 O10         5.9920   -1.4220   -3.0850 o         1 CKK     -0.522100
     20 N11         5.2850   -1.2130   -0.8890 n         1 CKK     -0.615500
     21 O13         3.4250   -1.2880   -2.2710 o         1 CKK     -0.555100
     22 O22        -2.3390    0.6840   -0.1810 os        1 CKK     -0.341400
     23 N24        -2.0830    2.9450    0.5550 nd        1 CKK     -0.772000
     24 C25        -2.7810    4.1150    0.8540 cd        1 CKK      0.615900
     25 N26        -4.0970    4.3370    0.7960 nc        1 CKK     -0.518800
     26 N28        -4.8490    3.3040    0.3990 na        1 CKK      0.190200
     27 C29        -6.2290    3.2270    0.2370 cc        1 CKK     -0.108100
     28 C30        -6.5530    1.9310   -0.2100 cd        1 CKK     -0.173000
     29 C31        -5.3510    1.1760   -0.3350 cd        1 CKK     -0.056200
     30 C32        -5.2100   -0.2150   -0.8280 c3        1 CKK      0.227000
     31 N34        -6.3350   -1.0810   -0.4860 n3        1 CKK     -0.726600
     32 C35        -6.4530   -1.2970    0.9500 c3        1 CKK      0.166800
     33 C36        -7.6120   -2.2120    1.3320 c3        1 CKK     -0.075900
     34 C37        -7.4930   -3.5530    0.5950 c3        1 CKK      0.170500
     35 C38        -7.4490   -3.2690   -0.9130 c3        1 CKK     -0.075900
     36 N39        -8.5750   -4.4600    0.9430 n3        1 CKK     -0.912800
     37 HN14        3.6080   -0.1310    0.7070 hn        1 CKK      0.318500
     38 H16         1.5330   -0.2850   -2.3880 ha        1 CKK      0.197000
     39 H19         1.6880    0.2460    1.9530 ha        1 CKK      0.138000
     40 H20        -0.7280    0.7770    1.9650 ha        1 CKK      0.157000
     41 H33        -6.3530   -2.0610   -2.3350 h1        1 CKK      0.033200
     42 H33A       -5.3210   -2.8780   -1.0770 h1        1 CKK      0.033200
     43 H4          7.4790   -2.5140    1.2660 ha        1 CKK      0.144500
     44 H5          9.7430    1.8620    0.4160 ha        1 CKK      0.155500
     45 H6          8.8840    0.5060   -1.4970 ha        1 CKK      0.144500
     46 H8          8.3250   -1.8010   -2.2500 hc        1 CKK      0.090700
     47 H8A         7.5700   -2.9810   -1.0970 hc        1 CKK      0.090700
     48 HN11        5.6130   -1.1260    0.0460 hn        1 CKK      0.320500
     49 H25        -2.1510    4.9670    1.1810 h5        1 CKK      0.067100
     50 H29        -6.8760    4.0810    0.4460 h4        1 CKK      0.187000
     51 H30        -7.5560    1.5660   -0.4240 ha        1 CKK      0.177000
     52 H32        -5.1460   -0.1700   -1.9570 h1        1 CKK      0.054200
     53 H32A       -4.2280   -0.6360   -0.4530 h1        1 CKK      0.054200
     54 H35        -5.5000   -1.7260    1.3820 h1        1 CKK      0.033200
     55 H35A       -6.6160   -0.2870    1.4230 h1        1 CKK      0.033200
     56 H36        -7.5820   -2.3720    2.4400 hc        1 CKK      0.054200
     57 H36A       -8.5880   -1.7250    1.0780 hc        1 CKK      0.054200
     58 H37        -6.4860   -4.0000    0.8780 h1        1 CKK      0.003700
     59 H38        -8.4200   -2.8170   -1.2420 hc        1 CKK      0.054200
     60 H38A       -7.2980   -4.2200   -1.4860 hc        1 CKK      0.054200
     61 HN39       -8.4700   -5.3260    0.4530 hn        1 CKK      0.348800
     62 HN3A       -8.5780   -4.6310    1.9280 hn        1 CKK      0.348800
     63 F18        -1.0110    0.2540   -2.5550 f         1 CKK     -0.118900
     64 C9          6.2420   -1.4850   -1.8760 c         1 CKK      0.674100
     65 H3          8.3330   -1.1660    3.1840 ha        1 CKK      0.155500
     66 F1          9.5470    1.1620    2.9510 f         1 CKK     -0.133900
@<TRIPOS>BOND
     1    1    4 1   
     2    1    9 1   
     3    1   37 1   
     4    2    3 ar  
     5    2    7 ar  
     6    2   63 1   
     7    3    4 ar  
     8    3   38 1   
     9    4    5 ar  
    10    5    6 ar  
    11    5   39 1   
    12    6    7 ar  
    13    6   40 1   
    14    7   22 1   
    15    8   10 1   
    16    8   22 1   
    17    8   23 2   
    18    9   20 1   
    19    9   21 2   
    20   10   26 1   
    21   10   29 2   
    22   11   31 1   
    23   11   35 1   
    24   11   41 1   
    25   11   42 1   
    26   12   13 ar  
    27   12   15 ar  
    28   12   66 1   
    29   13   14 ar  
    30   13   65 1   
    31   14   17 ar  
    32   14   43 1   
    33   15   16 ar  
    34   15   44 1   
    35   16   17 ar  
    36   16   45 1   
    37   17   18 1   
    38   18   46 1   
    39   18   47 1   
    40   18   64 1   
    41   19   64 2   
    42   20   48 1   
    43   20   64 1   
    44   23   24 1   
    45   24   25 2   
    46   24   49 1   
    47   25   26 1   
    48   26   27 1   
    49   27   28 2   
    50   27   50 1   
    51   28   29 1   
    52   28   51 1   
    53   29   30 1   
    54   30   31 1   
    55   30   52 1   
    56   30   53 1   
    57   31   32 1   
    58   32   33 1   
    59   32   54 1   
    60   32   55 1   
    61   33   34 1   
    62   33   56 1   
    63   33   57 1   
    64   34   35 1   
    65   34   36 1   
    66   34   58 1   
    67   35   59 1   
    68   35   60 1   
    69   36   61 1   
    70   36   62 1   
@<TRIPOS>SUBSTRUCTURE
     1 CKK         1 TEMP              0 ****  ****    0 ROOT
