@<TRIPOS>MOLECULE
CKK
   66    58     1     0     0
SMALL
bcc


@<TRIPOS>ATOM
      1 N14        -3.7030    0.7720    2.2950 n         1 CKK     -0.312000
      2 C17        -0.2900   -0.5390    1.3550 c1        1 CKK      0.131000
      3 C16        -1.4090   -0.1850    2.1150 c1        1 CKK     -0.198000
      4 C15        -2.5280    0.3990    1.4940 c2        1 CKK      0.119000
      5 C19        -2.5250    0.6250    0.1180 c2        1 CKK     -0.188000
      6 C20        -1.4020    0.2700   -0.6510 c1        1 CKK     -0.064000
      7 C21        -0.2850   -0.3120   -0.0340 c1        1 CKK     -0.024000
      8 C23         1.6160   -0.2600   -1.3890 c1        1 CKK      0.217000
      9 C12        -3.5410    1.5420    3.4960 c2        1 CKK      0.417000
     10 C27         2.8520   -0.3780   -2.0220 c1        1 CKK     -0.161000
     11 C33         4.6690   -3.6730   -5.0090 c3        1 CKK     -0.071000
     12 F1         -4.3970    5.2430   11.0740 f         1 CKK     -0.098000
     13 C2         -4.7910    4.8800    9.8680 c2        1 CKK      0.104000
     14 C3         -4.5330    5.6910    8.7920 c2        1 CKK     -0.161000
     15 C4         -4.8600    5.2730    7.5220 c1        1 CKK     -0.088000
     16 C5         -5.3770    3.6490    9.6800 c1        1 CKK     -0.160000
     17 C6         -5.7020    3.2320    8.4190 c1        1 CKK     -0.108000
     18 C7         -5.4430    4.0480    7.3320 c1        1 CKK     -0.116000
     19 C8         -5.7630    3.5770    5.9520 c3        1 CKK     -0.142000
     20 C9         -4.5720    2.7730    5.3960 c2        1 CKK      0.321000
     21 O10        -3.4710    2.8570    5.9350 o         1 CKK     -0.361000
     22 N11        -4.7180    2.0380    4.1990 n         1 CKK     -0.379000
     23 O13        -2.4410    1.8840    3.8490 o         1 CKK     -0.372000
     24 F18         0.7840   -1.1720    1.9590 f         1 CKK     -0.087000
     25 O22         0.4610   -1.0110   -1.0490 o         1 CKK     -0.126000
     26 N24         1.3680    0.8000   -0.5800 n2        1 CKK     -0.245000
     27 C25         2.3300    1.7530   -0.3850 c1        1 CKK     -0.047000
     28 N26         3.5450    1.6380   -1.0070 n1        1 CKK     -0.059000
     29 N28         3.8000    0.5660   -1.8270 n1        1 CKK     -0.059000
     30 C29         4.9110    0.2390   -2.6140 c1        1 CKK     -0.067000
     31 C30         4.6210   -0.9350   -3.3020 c1        1 CKK     -0.173000
     32 C31         3.3640   -1.3280   -2.9520 c1        1 CKK     -0.067000
     33 C32         3.0300   -2.7270   -3.5470 c2        1 CKK     -0.014000
     34 N34         3.4850   -2.7890   -4.9210 n3        1 CKK     -0.251000
     35 C35         2.3720   -3.2300   -5.7850 c3        1 CKK     -0.071000
     36 C36         2.8050   -3.4640   -7.2190 c3        1 CKK     -0.154000
     37 C37         3.9930   -4.3610   -7.3140 c3        1 CKK     -0.028000
     38 C38         5.1140   -3.9070   -6.4370 c3        1 CKK     -0.154000
     39 N39         4.4550   -4.3880   -8.6940 n3        1 CKK     -0.345000
     40 HN14       -4.5280    0.5930    1.9870 hn        1 CKK      0.273000
     41 H16        -1.4140   -0.3450    3.0980 ha        1 CKK      0.195000
     42 H19        -3.3280    1.0430   -0.3250 ha        1 CKK      0.147000
     43 H20        -1.4000    0.4310   -1.6260 ha        1 CKK      0.158000
     44 H33         5.4260   -3.2510   -4.4990 h1        1 CKK      0.073250
     45 H33A        4.4560   -4.5170   -4.6070 h1        1 CKK      0.073250
     46 H3         -4.1220    6.5560    8.9260 ha        1 CKK      0.156000
     47 H4         -4.6770    5.8500    6.7580 ha        1 CKK      0.146000
     48 H5         -5.5570    3.0800   10.4390 ha        1 CKK      0.156000
     49 H6         -6.1090    2.3750    8.2890 ha        1 CKK      0.140000
     50 H8         -6.5620    3.0060    5.9770 hc        1 CKK      0.130000
     51 H8A        -5.9300    4.3440    5.3790 hc        1 CKK      0.130000
     52 HN11       -5.5710    1.8490    3.8700 hn        1 CKK      0.263000
     53 H25         2.1490    2.5280    0.2050 ha        1 CKK      0.204000
     54 H29         5.7430    0.7470   -2.6700 DU        1 CKK      0.181500
     55 H30         5.2170   -1.3930   -3.9550 DU        1 CKK      0.181500
     56 H32         2.0660   -2.8710   -3.5190 h4        1 CKK      0.092000
     57 H32A        3.4780   -3.4200   -3.0230 h4        1 CKK      0.092000
     58 H35         1.6890   -2.5580   -5.7740 h1        1 CKK      0.073250
     59 H35A        2.0100   -4.0460   -5.4330 h1        1 CKK      0.073250
     60 H36         3.0280   -2.5900   -7.6340 hc        1 CKK      0.092750
     61 H36A        2.0490   -3.8760   -7.7210 hc        1 CKK      0.092750
     62 H37         3.7200   -5.2940   -7.0420 h1        1 CKK      0.045000
     63 H38         5.8400   -4.6110   -6.4430 hc        1 CKK      0.092750
     64 H38A        5.4760   -3.0770   -6.7940 hc        1 CKK      0.092750
     65 HN39        5.2200   -4.8770   -8.7470 hn        1 CKK      0.144500
     66 HN3A        3.8080   -4.7710   -9.2280 hn        1 CKK      0.144500
@<TRIPOS>BOND
     1    1    4 1   
     2    1    9 1   
     3    1   40 1   
     4    2    7 1   
     5    2   24 1   
     6    3    4 1   
     7    3   41 1   
     8    4    5 1   
     9    5    6 1   
    10    5   42 1   
    11    6   43 1   
    12    7   25 1   
    13    8   10 1   
    14    8   26 1   
    15    9   22 1   
    16    9   23 1   
    17   11   34 1   
    18   11   38 1   
    19   11   44 1   
    20   11   45 1   
    21   12   13 1   
    22   13   14 1   
    23   13   16 1   
    24   14   15 1   
    25   14   46 1   
    26   15   47 1   
    27   16   48 1   
    28   17   18 1   
    29   17   49 1   
    30   18   19 1   
    31   19   20 1   
    32   19   50 1   
    33   19   51 1   
    34   20   21 1   
    35   20   22 1   
    36   22   52 1   
    37   26   27 1   
    38   27   53 1   
    39   28   29 1   
    40   30   31 1   
    41   31   32 1   
    42   33   34 1   
    43   33   56 1   
    44   33   57 1   
    45   34   35 1   
    46   35   36 1   
    47   35   58 1   
    48   35   59 1   
    49   36   37 1   
    50   36   60 1   
    51   36   61 1   
    52   37   38 1   
    53   37   39 1   
    54   37   62 1   
    55   38   63 1   
    56   38   64 1   
    57   39   65 1   
    58   39   66 1   
@<TRIPOS>SUBSTRUCTURE
     1 CKK         1 TEMP              0 ****  ****    0 ROOT
