@<TRIPOS>MOLECULE
CKP
   25    24     1     0     0
SMALL
bcc


@<TRIPOS>ATOM
      1 O3P        -0.0080   -3.9230    1.9960 o         1 CKP     -0.943500
      2 P          -0.9040   -3.9700    0.7810 p4        1 CKP      1.686200
      3 O1P        -0.6120   -5.2210   -0.0120 os        1 CKP     -1.252000
      4 O2P        -2.3490   -3.9790    1.2210 o         1 CKP     -0.992300
      5 O1         -0.6360   -2.7000   -0.1200 os        1 CKP     -0.567200
      6 C1         -0.0250   -1.5750    0.4680 c3        1 CKP      0.224400
      7 C2          0.3280   -0.5680   -0.6110 c3        1 CKP      0.067100
      8 O2         -1.8040    2.1490    0.4110 oh        1 CKP     -0.618800
      9 C3          1.2120    0.2710   -0.1680 c3        1 CKP      0.084100
     10 O3          2.0570    0.7290   -1.2670 oh        1 CKP     -0.636800
     11 C4          0.3970    1.5240    0.4640 c3        1 CKP      0.079100
     12 O4          1.2230    2.6590    0.5060 oh        1 CKP     -0.625800
     13 C5         -0.6950    1.7630   -0.3640 c3        1 CKP      0.194600
     14 O5         -0.9480    0.3050   -0.9840 os        1 CKP     -0.463600
     15 C6         -0.5900    2.9760   -1.3760 c         1 CKP      0.945600
     16 O6B        -0.5600    2.7600   -2.6160 o         1 CKP     -0.854300
     17 O6A        -0.5510    4.1570   -0.9410 o         1 CKP     -0.854300
     18 H11        -0.6430   -1.1660    1.1080 h1        1 CKP     -0.008800
     19 H12         0.7900   -1.8540    0.9340 h1        1 CKP     -0.008800
     20 H2          0.6670   -1.0280   -1.4050 h1        1 CKP      0.063700
     21 HO2        -2.5100    2.2660   -0.1180 ho        1 CKP      0.398000
     22 H3          1.7600   -0.1540    0.5210 h1        1 CKP      0.161700
     23 HO3         2.8860    0.4310   -1.1480 ho        1 CKP      0.417000
     24 H4          0.0890    1.3010    1.3660 h1        1 CKP      0.074700
     25 HO4         1.4260    2.8470    1.3510 ho        1 CKP      0.429000
@<TRIPOS>BOND
     1    1    2 1   
     2    2    4 2   
     3    2    5 1   
     4    5    6 1   
     5    6    7 1   
     6    6   18 1   
     7    6   19 1   
     8    7    9 1   
     9    7   14 1   
    10    7   20 1   
    11    8   13 1   
    12    8   21 1   
    13    9   10 1   
    14    9   11 1   
    15    9   22 1   
    16   10   23 1   
    17   11   12 1   
    18   11   13 1   
    19   11   24 1   
    20   12   25 1   
    21   13   14 1   
    22   13   15 1   
    23   15   16 1   
    24   15   17 1   
@<TRIPOS>SUBSTRUCTURE
     1 CKP         1 TEMP              0 ****  ****    0 ROOT
