@<TRIPOS>MOLECULE
CKP
   25    25     1     0     0
SMALL
bcc


@<TRIPOS>ATOM
      1 O3P        -2.4540    2.1170   -0.7670 o         1 CKP     -0.941833
      2 P          -3.3720    1.0110   -0.3090 p5        1 CKP      1.319900
      3 O1P        -3.9330    0.1490   -1.4110 o         1 CKP     -0.941833
      4 O2P        -4.3430    1.3570    0.7910 o         1 CKP     -0.941833
      5 O1         -2.2550   -0.0510    0.4870 os        1 CKP     -0.573200
      6 C1         -1.1380   -0.3680   -0.2450 c3        1 CKP      0.226400
      7 C2          0.1500   -0.0270    0.5390 c3        1 CKP      0.081100
      8 O2          2.2580   -1.1990   -1.6940 oh        1 CKP     -0.624800
      9 C3          0.7270    1.3540    0.1820 c3        1 CKP      0.083100
     10 O3          1.3410    1.9770    1.2980 oh        1 CKP     -0.633800
     11 C4          1.8000    1.0280   -0.8880 c3        1 CKP      0.112100
     12 O4          2.8610    1.9520   -0.9210 oh        1 CKP     -0.627800
     13 C5          2.2380   -0.4170   -0.5190 c3        1 CKP      0.186600
     14 O5          1.1860   -0.9990    0.2550 os        1 CKP     -0.462600
     15 C6          3.5790   -0.5430    0.2580 c         1 CKP      0.911600
     16 O6B         3.8760    0.3310    1.1260 o         1 CKP     -0.861800
     17 O6A         4.3300   -1.5220   -0.0290 o         1 CKP     -0.861800
     18 H11        -1.1300    0.1720   -1.2330 h1        1 CKP     -0.002300
     19 H12        -1.1050   -1.4830   -0.4400 h1        1 CKP     -0.002300
     20 H2         -0.0430   -0.1090    1.6410 h1        1 CKP      0.056700
     21 HO2         2.7290   -2.0110   -1.4620 ho        1 CKP      0.407000
     22 H3         -0.0810    2.0570   -0.1720 h1        1 CKP      0.166700
     23 HO3         2.0100    1.3550    1.6270 ho        1 CKP      0.412000
     24 H4          1.3550    1.0460   -1.9180 h1        1 CKP      0.085700
     25 HO4         3.2540    1.9660   -0.0340 ho        1 CKP      0.427000
@<TRIPOS>BOND
     1    1    2 1   
     2    2    3 1   
     3    2    4 1   
     4    2    5 1   
     5    5    6 1   
     6    6    7 1   
     7    6   18 1   
     8    6   19 1   
     9    7    9 1   
    10    7   14 1   
    11    7   20 1   
    12    8   13 1   
    13    8   21 1   
    14    9   10 1   
    15    9   11 1   
    16    9   22 1   
    17   10   23 1   
    18   11   12 1   
    19   11   13 1   
    20   11   24 1   
    21   12   25 1   
    22   13   14 1   
    23   13   15 1   
    24   15   16 1   
    25   15   17 1   
@<TRIPOS>SUBSTRUCTURE
     1 CKP         1 TEMP              0 ****  ****    0 ROOT
