@<TRIPOS>MOLECULE
CKP
   25    25     1     0     0
SMALL
bcc


@<TRIPOS>ATOM
      1 O3P        -0.5130   -1.9450   -0.1060 o         1 CKP     -0.942500
      2 P           0.3020   -0.6820    0.0720 p5        1 CKP      1.330900
      3 O1P         0.6980   -0.3770    1.4940 o         1 CKP     -0.942500
      4 O2P        -0.1260    0.5030   -0.7520 o         1 CKP     -0.942500
      5 O1          1.7890   -1.1580   -0.6630 os        1 CKP     -0.577200
      6 C1          2.4720   -2.1600   -0.0140 c3        1 CKP      0.222400
      7 C2          2.4010   -3.4900   -0.7990 c3        1 CKP      0.077100
      8 O2          4.2320   -5.6200    0.8140 oh        1 CKP     -0.644800
      9 C3          1.3530   -4.4740   -0.2450 c3        1 CKP      0.119100
     10 O3          0.2250   -4.5640   -1.0850 oh        1 CKP     -0.660800
     11 C4          2.0640   -5.8460   -0.1650 c3        1 CKP      0.144100
     12 O4          1.5290   -6.8160   -1.0310 oh        1 CKP     -0.616800
     13 C5          3.5600   -5.5270   -0.4320 c3        1 CKP      0.191600
     14 O5          3.6860   -4.1470   -0.7620 os        1 CKP     -0.448600
     15 C6          4.2900   -6.3990   -1.4970 c         1 CKP      0.918600
     16 O6B         3.7170   -6.6970   -2.5810 o         1 CKP     -0.858300
     17 O6A         5.4600   -6.7920   -1.1980 o         1 CKP     -0.858300
     18 H11         2.0710   -2.3040    1.0290 h1        1 CKP     -0.002800
     19 H12         3.5640   -1.8770    0.0590 h1        1 CKP     -0.002800
     20 H2          2.1850   -3.2710   -1.8800 h1        1 CKP      0.057700
     21 HO2         5.1750   -5.6590    0.6060 ho        1 CKP      0.410000
     22 H3          1.0270   -4.1560    0.7840 h1        1 CKP      0.055700
     23 HO3        -0.2330   -3.6980   -0.9890 ho        1 CKP      0.485000
     24 H4          1.9490   -6.2880    0.8620 h1        1 CKP      0.048700
     25 HO4         1.7000   -6.5080   -1.9340 ho        1 CKP      0.437000
@<TRIPOS>BOND
     1    1    2 1   
     2    2    3 1   
     3    2    4 1   
     4    2    5 1   
     5    5    6 1   
     6    6    7 1   
     7    6   18 1   
     8    6   19 1   
     9    7    9 1   
    10    7   14 1   
    11    7   20 1   
    12    8   13 1   
    13    8   21 1   
    14    9   10 1   
    15    9   11 1   
    16    9   22 1   
    17   10   23 1   
    18   11   12 1   
    19   11   13 1   
    20   11   24 1   
    21   12   25 1   
    22   13   14 1   
    23   13   15 1   
    24   15   16 1   
    25   15   17 1   
@<TRIPOS>SUBSTRUCTURE
     1 CKP         1 TEMP              0 ****  ****    0 ROOT
