@<TRIPOS>MOLECULE
CKR
   44    45     1     0     0
SMALL
bcc


@<TRIPOS>ATOM
      1 N2          0.4280    1.3650    1.2060 n2        1 CKR     -0.149000
      2 C3          1.4960    0.5510    1.0540 c2        1 CKR      0.066000
      3 C4          2.7860    0.5740    1.6600 c2        1 CKR     -0.136000
      4 C5          3.8410    0.1020    0.9200 c2        1 CKR     -0.004000
      5 C6          5.2110    0.1500    1.4890 c2        1 CKR      0.350000
      6 O1          5.5040    0.4690    2.6430 o         1 CKR     -0.239000
      7 N7          6.2770   -0.1990    0.6210 ns        1 CKR     -0.337000
      8 C8          6.0770   -0.5850   -0.7090 cz        1 CKR      0.356000
      9 N22         7.1680   -0.8780   -1.5020 nv        1 CKR     -0.375000
     10 N9          4.8120   -0.6590   -1.2140 na        1 CKR     -0.171000
     11 C10         3.6630   -0.4030   -0.4190 c2        1 CKR     -0.169000
     12 C11         2.4360   -0.6380   -0.9920 c1        1 CKR     -0.189000
     13 C12         1.2700   -0.4380   -0.1160 c3        1 CKR     -0.049000
     14 N13         0.0030    0.0670   -0.6580 n7        1 CKR     -0.192000
     15 C1         -0.4500    1.0360    0.1700 c2        1 CKR      0.128000
     16 N14        -2.6810    0.3370   -2.0860 n8        1 CKR     -0.374000
     17 C2         -2.5140   -0.4860   -3.2610 c3        1 CKR     -0.048000
     18 C7         -3.6290   -0.4210   -4.2850 c2        1 CKR     -0.114000
     19 H4          2.9260    1.0140    2.6630 ha        1 CKR      0.202000
     20 HN7         7.2080   -0.1570    0.9910 hn        1 CKR      0.281000
     21 HN22        4.6310   -0.9630   -2.1540 hn        1 CKR      0.297000
     22 HN2A        8.0920   -0.7900   -1.1470 hn        1 CKR      0.273500
     23 H11         1.0800   -1.4850    0.3110 h1        1 CKR      0.212000
     24 HN13       -0.4380   -0.3070   -1.4700 hn        1 CKR      0.317000
     25 HN14       -1.4250    1.5490    0.0430 h5        1 CKR      0.246000
     26 H2         -3.4710    0.0280   -1.5480 hn        1 CKR      0.158000
     27 H2A        -1.5510   -0.1770   -3.7620 h1        1 CKR      0.099000
     28 H7         -2.8500    1.2900   -2.3540 hn        1 CKR      0.158000
     29 H7A        -2.4010   -1.5590   -2.9290 h1        1 CKR      0.099000
     30 N71        -4.9400   -0.5890   -3.7820 n7        1 CKR     -0.269000
     31 C121       -6.0130   -0.5120   -4.7580 c3        1 CKR     -0.190000
     32 C13        -5.6380   -0.3590   -6.2010 c1        1 CKR      0.047000
     33 O2         -4.4080   -0.1600   -6.5480 os        1 CKR     -0.053000
     34 C14        -3.3620   -0.1430   -5.5870 c2        1 CKR     -0.102000
     35 C15        -2.0650    0.1750   -6.2110 c3        1 CKR     -0.160000
     36 H13        -6.6350    0.3990   -4.4960 h1        1 CKR      0.136500
     37 H14        -6.6960   -1.4080   -4.6870 h1        1 CKR      0.136500
     38 H15        -5.8300   -2.6200   -7.1370 ha        1 CKR      0.003500
     39 H16        -5.6630   -2.8060   -6.5060 ha        1 CKR      0.003500
     40 H17        -1.3500   -0.6750   -6.0810 hc        1 CKR      0.098333
     41 H18        -2.1980    0.3620   -7.3070 hc        1 CKR      0.098333
     42 H19        -5.0030   -1.4080   -3.2070 hn        1 CKR      0.180000
     43 H20        -1.6260    1.0930   -5.7460 hc        1 CKR      0.098333
     44 H223        7.0480   -1.1570   -2.4480 hn        1 CKR      0.273500
@<TRIPOS>BOND
     1    1    2 1   
     2    1   15 1   
     3    2    3 1   
     4    2   13 1   
     5    3    4 1   
     6    3   19 1   
     7    4    5 1   
     8    4   11 1   
     9    5    6 1   
    10    5    7 1   
    11    7    8 1   
    12    7   20 1   
    13    8    9 1   
    14    8   10 1   
    15    9   22 1   
    16    9   44 1   
    17   10   11 1   
    18   10   21 1   
    19   11   12 1   
    20   12   13 1   
    21   13   14 1   
    22   13   23 1   
    23   14   15 1   
    24   14   24 1   
    25   15   25 1   
    26   16   17 1   
    27   16   26 1   
    28   16   28 1   
    29   17   18 1   
    30   17   27 1   
    31   17   29 1   
    32   18   30 1   
    33   18   34 1   
    34   30   31 1   
    35   30   42 1   
    36   31   32 1   
    37   31   36 1   
    38   31   37 1   
    39   32   33 1   
    40   33   34 1   
    41   34   35 1   
    42   35   40 1   
    43   35   41 1   
    44   35   43 1   
    45   38   39 1   
@<TRIPOS>SUBSTRUCTURE
     1 CKR         1 TEMP              0 ****  ****    0 ROOT
