@<TRIPOS>MOLECULE
CKR
   43    46     1     0     0
SMALL
bcc


@<TRIPOS>ATOM
      1 N2         -0.4440   -1.8220    0.4090 nc        1 CKR     -0.595100
      2 C3         -1.6380   -1.0900    0.2380 ca        1 CKR      0.057400
      3 C4         -2.9310   -1.3430    0.6840 ca        1 CKR     -0.002000
      4 C5         -3.9320   -0.4230    0.3610 ca        1 CKR     -0.216600
      5 C6         -5.3050   -0.6750    0.8290 c         1 CKR      0.721100
      6 O1         -5.6670   -1.6530    1.5070 o         1 CKR     -0.623500
      7 N7         -6.2820    0.2680    0.4650 n         1 CKR     -0.508400
      8 C8         -5.9280    1.4220   -0.2700 cc        1 CKR      0.662800
      9 N22        -6.9470    2.3900   -0.4740 nh        1 CKR     -0.884800
     10 N9         -4.6930    1.6600   -0.7250 nd        1 CKR     -0.682100
     11 C10        -3.6770    0.7590   -0.4020 ca        1 CKR      0.217400
     12 C11        -2.3670    1.0310   -0.8560 ca        1 CKR     -0.146000
     13 C12        -1.3720    0.1150   -0.5380 ca        1 CKR     -0.030200
     14 N13         0.0040    0.1200   -0.7960 na        1 CKR     -0.295300
     15 C1          0.5100   -1.1090   -0.2500 cd        1 CKR      0.590700
     16 N14         1.8490   -1.5130   -0.4620 nh        1 CKR     -0.764200
     17 C2          2.8540   -0.4740   -0.3120 c3        1 CKR      0.167800
     18 C7          4.2740   -1.0750   -0.1950 c3        1 CKR      0.163800
     19 H4         -3.1730   -2.2390    1.2780 ha        1 CKR      0.173000
     20 HN7        -7.2020    0.1580    0.8300 hn        1 CKR      0.335500
     21 HN22       -7.8360    2.0090   -0.7140 hn        1 CKR      0.411800
     22 HN2A       -6.6700    3.1460   -1.0660 hn        1 CKR      0.411800
     23 H11        -2.1510    1.9370   -1.4380 ha        1 CKR      0.155000
     24 HN13        0.4480    0.6500   -1.4980 hn        1 CKR      0.306700
     25 HN14        2.0630   -2.3430    0.0620 hn        1 CKR      0.414800
     26 H2          2.8060    0.1800   -1.2280 h1        1 CKR      0.051200
     27 H2A         2.6500    0.1760    0.5870 h1        1 CKR      0.051200
     28 H7          4.3230   -1.7220    0.7300 h1        1 CKR      0.043700
     29 H7A         4.4550   -1.7410   -1.0870 h1        1 CKR      0.043700
     30 N71         5.2950   -0.0380   -0.1820 n3        1 CKR     -0.729600
     31 C121        6.5850   -0.5330   -0.6480 c3        1 CKR      0.132300
     32 C13         7.6810    0.5360   -0.5790 c3        1 CKR      0.126400
     33 O2          7.7670    1.1190    0.7160 os        1 CKR     -0.413600
     34 C14         6.5270    1.6760    1.1340 c3        1 CKR      0.126400
     35 C15         5.4020    0.6350    1.1060 c3        1 CKR      0.132300
     36 H13         6.9240   -1.4310   -0.0520 h1        1 CKR      0.042950
     37 H14         6.4660   -0.8520   -1.7210 h1        1 CKR      0.042950
     38 H15         8.6870    0.0670   -0.7420 h1        1 CKR      0.055700
     39 H16         7.5000    1.3390   -1.3410 h1        1 CKR      0.055700
     40 H17         6.7130    2.0140    2.1870 h1        1 CKR      0.055700
     41 H18         6.2710    2.5540    0.4850 h1        1 CKR      0.055700
     42 H19         4.4260    1.1610    1.3040 h1        1 CKR      0.042950
     43 H20         5.5770   -0.1010    1.9450 h1        1 CKR      0.042950
@<TRIPOS>BOND
     1    1    2 1   
     2    1   15 2   
     3    2    3 ar  
     4    2   13 ar  
     5    3    4 ar  
     6    3   19 1   
     7    4    5 1   
     8    4   11 ar  
     9    5    6 2   
    10    5    7 1   
    11    7    8 1   
    12    7   20 1   
    13    8    9 1   
    14    8   10 2   
    15    9   21 1   
    16    9   22 1   
    17   10   11 1   
    18   11   12 ar  
    19   12   13 ar  
    20   12   23 1   
    21   13   14 1   
    22   14   15 1   
    23   14   24 1   
    24   15   16 1   
    25   16   17 1   
    26   16   25 1   
    27   17   18 1   
    28   17   26 1   
    29   17   27 1   
    30   18   28 1   
    31   18   29 1   
    32   18   30 1   
    33   30   31 1   
    34   30   35 1   
    35   31   32 1   
    36   31   36 1   
    37   31   37 1   
    38   32   33 1   
    39   32   38 1   
    40   32   39 1   
    41   33   34 1   
    42   34   35 1   
    43   34   40 1   
    44   34   41 1   
    45   35   42 1   
    46   35   43 1   
@<TRIPOS>SUBSTRUCTURE
     1 CKR         1 TEMP              0 ****  ****    0 ROOT
