@<TRIPOS>MOLECULE
CKR
   44    43     1     0     0
SMALL
bcc


@<TRIPOS>ATOM
      1 N2         -0.0750    0.4650    0.0510 nc        1 CKR     -0.336300
      2 C3          1.1850    0.1440   -0.1340 ca        1 CKR      0.064000
      3 C4          2.2720    0.0190    0.8220 ca        1 CKR     -0.019000
      4 C5          3.4970   -0.3390    0.3830 ca        1 CKR     -0.145600
      5 C6          4.6260   -0.4720    1.3590 c         1 CKR      0.625700
      6 O1          4.4870   -0.2610    2.5710 o         1 CKR     -0.513100
      7 N7          5.8740   -0.8630    0.8060 n         1 CKR     -0.429500
      8 C8          6.0790   -1.0580   -0.5140 c1        1 CKR      0.312400
      9 N22         6.1310    1.7910   -0.6510 n3        1 CKR     -1.037400
     10 N9          5.0190   -0.9480   -1.4380 ne        1 CKR     -0.507800
     11 C10         3.8210   -0.6120   -1.0440 ca        1 CKR      0.216400
     12 C11         2.7180   -0.4930   -2.0160 ca        1 CKR     -0.059000
     13 C12         1.4960   -0.1350   -1.5840 ca        1 CKR     -0.085000
     14 N13         0.2610   -0.0230   -2.2950 na        1 CKR     -0.318500
     15 C1         -0.7080    0.4180   -1.2850 cc        1 CKR      0.684800
     16 N14        -1.9570    0.6450   -1.5620 n2        1 CKR     -0.903100
     17 C2         -2.2450   -2.5350   -3.4390 c3        1 CKR     -0.122900
     18 C7         -4.8600   -0.1320   -3.4800 c2        1 CKR     -0.111000
     19 H4          2.0690    0.2190    1.8920 ha        1 CKR      0.200000
     20 HN7         6.6480   -0.9480    1.4340 hn        1 CKR      0.363500
     21 HN22        5.7770    2.4200   -1.3410 hn        1 CKR      0.346133
     22 HN2A        6.8890    1.2720   -1.0500 hn        1 CKR      0.346133
     23 H11         2.9470   -0.7090   -3.0740 ha        1 CKR      0.183000
     24 HN13        0.2960    0.5250   -3.1300 hn        1 CKR      0.270700
     25 HN14       -2.5300    0.8860   -0.7800 hn        1 CKR      0.446400
     26 H2         -2.8510   -2.1030   -2.6070 hc        1 CKR      0.085367
     27 H2A        -2.4820   -3.6300   -3.5120 hc        1 CKR      0.085367
     28 H7         -4.9360   -1.1740   -3.1130 hx        1 CKR      0.192000
     29 H7A        -1.1570   -2.4440   -3.1660 hc        1 CKR      0.085367
     30 N71        -3.5060    0.2050   -3.9130 n4        1 CKR     -0.544600
     31 C121       -5.8880    0.7190   -3.5230 c2        1 CKR     -0.135000
     32 C13        -3.1910   -0.1910   -6.3780 c         1 CKR      0.566100
     33 O2         -2.7640   -0.8430   -7.3250 o         1 CKR     -0.458100
     34 C14        -3.0290   -0.6790   -4.9760 ce        1 CKR     -0.219200
     35 C15        -2.4700   -1.8890   -4.7370 c2        1 CKR      0.017800
     36 H13        -6.8810    0.4040   -3.1610 ha        1 CKR      0.164000
     37 H14        -3.4790    1.1740   -4.2570 hn        1 CKR      0.477800
     38 H15        -3.7140    0.7830   -6.5090 h4        1 CKR      0.025200
     39 H16        -5.8340    1.7520   -3.9010 ha        1 CKR      0.164000
     40 H17        -4.4820    3.2110   -5.8280 ha        1 CKR      0.001500
     41 H18        -4.4030    2.6570   -5.4450 ha        1 CKR      0.001500
     42 H19        -2.8550    0.1460   -3.0750 hn        1 CKR      0.477800
     43 H20        -2.1230   -2.4610   -5.6280 ha        1 CKR      0.194000
     44 H223        6.4790    2.3250    0.1190 hn        1 CKR      0.346133
@<TRIPOS>BOND
     1    1    2 2   
     2    1   15 1   
     3    2    3 ar  
     4    2   13 ar  
     5    3    4 ar  
     6    3   19 1   
     7    4    5 1   
     8    4   11 ar  
     9    5    6 2   
    10    5    7 1   
    11    7    8 2   
    12    7   20 1   
    13    8   10 2   
    14    9   21 1   
    15    9   22 1   
    16    9   44 1   
    17   10   11 1   
    18   11   12 ar  
    19   12   13 ar  
    20   12   23 1   
    21   13   14 2   
    22   14   15 1   
    23   14   24 1   
    24   15   16 2   
    25   16   25 1   
    26   17   26 1   
    27   17   27 1   
    28   17   29 1   
    29   17   35 1   
    30   18   28 1   
    31   18   30 1   
    32   18   31 2   
    33   30   34 1   
    34   30   37 1   
    35   30   42 1   
    36   31   36 1   
    37   31   39 1   
    38   32   33 2   
    39   32   34 1   
    40   32   38 1   
    41   34   35 2   
    42   35   43 1   
    43   40   41 1   
@<TRIPOS>SUBSTRUCTURE
     1 CKR         1 TEMP              0 ****  ****    0 ROOT
