@<TRIPOS>MOLECULE
CKR
   45    45     1     0     0
SMALL
bcc


@<TRIPOS>ATOM
      1 N2        324.5560   28.7000  125.7500 n2        1 CKR     -0.111000
      2 C3        324.5770   29.7090  124.7690 ca        1 CKR     -0.051000
      3 C4        325.6380   30.4480  124.2370 ca        1 CKR      0.015000
      4 C5        325.3490   31.3960  123.2600 ca        1 CKR     -0.162000
      5 C6        326.4590   32.1800  122.6920 c2        1 CKR      0.367000
      6 O1        327.6540   32.0940  122.9890 o         1 CKR     -0.265000
      7 N7        326.1200   33.1410  121.6940 n         1 CKR     -0.354000
      8 C8        324.7780   33.2710  121.3270 c2        1 CKR      0.064000
      9 N22       324.4530   34.2920  120.2720 n4        1 CKR     -0.034000
     10 N9        323.7540   32.5930  121.8060 n2        1 CKR     -0.121000
     11 C10       324.0120   31.6290  122.7930 ca        1 CKR     -0.003000
     12 C11       322.9290   30.8990  123.3130 ca        1 CKR     -0.068000
     13 C12       323.2160   29.9470  124.2930 ca        1 CKR     -0.012000
     14 N13       322.4080   29.0650  125.0100 na        1 CKR     -0.230000
     15 C1        323.2650   28.3450  125.8660 c2        1 CKR      0.009000
     16 N14      -337.6450  -32.2540 -130.9870 n3        1 CKR     -0.396000
     17 C2       -337.7600  -31.2230 -131.9780 c3        1 CKR     -0.082000
     18 C7       -339.0490  -31.3870 -132.8310 c3        1 CKR     -0.104000
     19 H4        326.6760   30.2870  124.5790 ha        1 CKR      0.196000
     20 HN7       326.8480   33.6870  121.2900 hn        1 CKR      0.263000
     21 HN22      323.4380   34.2910  120.0920 hn        1 CKR      0.274667
     22 HN2A      324.7360   35.2230  120.5990 hn        1 CKR      0.274667
     23 H11       321.9000   31.0700  122.9630 ha        1 CKR      0.169000
     24 HN13      321.4290   28.9690  124.9290 hn        1 CKR      0.277000
     25 HN14      322.8820   27.5730  126.5510 h5        1 CKR      0.226000
     26 H2       -336.7030  -32.5720 -130.8780 hn        1 CKR      0.188000
     27 H2A      -337.8330  -30.1830 -131.5420 h1        1 CKR      0.115500
     28 H7       -339.9520  -31.1490 -132.1980 h1        1 CKR      0.146000
     29 H7A      -336.8700  -31.2410 -132.6700 h1        1 CKR      0.115500
     30 N71      -339.2160  -32.7370 -133.3650 n3        1 CKR     -0.021000
     31 C121     -339.6000  -33.7580 -132.6430 c2        1 CKR     -0.065000
     32 C13      -339.6170  -35.2000 -133.1590 c1        1 CKR      0.256000
     33 O2       -339.3490  -35.3380 -134.4550 os        1 CKR     -0.126000
     34 C14      -339.0150  -34.3630 -135.3170 c1        1 CKR      0.227000
     35 C15      -338.8760  -32.9670 -134.7720 c3        1 CKR     -0.290000
     36 H13      -339.8920  -33.6290 -131.5740 h4        1 CKR      0.236000
     37 H14      -339.0020  -30.6620 -133.6920 h1        1 CKR      0.146000
     38 H15      -341.7570  -34.8280 -133.3970 ha        1 CKR      0.013000
     39 H16      -341.8850  -35.4740 -133.2090 ha        1 CKR      0.013000
     40 H17      -341.2240  -34.4840 -136.3360 ha        1 CKR      0.013000
     41 H18      -341.2570  -34.1440 -135.7470 ha        1 CKR      0.013000
     42 H19      -337.7970  -32.6540 -134.9520 h1        1 CKR      0.207500
     43 H20      -339.5180  -32.2900 -135.4220 h1        1 CKR      0.207500
     44 H223      324.9500   34.0580  119.4060 hn        1 CKR      0.274667
     45 H142     -338.0190  -31.9760 -130.1020 hn        1 CKR      0.188000
@<TRIPOS>BOND
     1    1    2 1   
     2    1   15 1   
     3    2    3 1   
     4    2   13 1   
     5    3    4 1   
     6    3   19 1   
     7    4    5 1   
     8    4   11 1   
     9    5    6 1   
    10    5    7 1   
    11    7    8 1   
    12    7   20 1   
    13    8    9 1   
    14    8   10 1   
    15    9   21 1   
    16    9   22 1   
    17    9   44 1   
    18   10   11 1   
    19   11   12 1   
    20   12   13 1   
    21   12   23 1   
    22   13   14 1   
    23   14   15 1   
    24   14   24 1   
    25   15   25 1   
    26   16   17 1   
    27   16   26 1   
    28   16   45 1   
    29   17   18 1   
    30   17   27 1   
    31   17   29 1   
    32   18   28 1   
    33   18   30 1   
    34   18   37 1   
    35   30   31 1   
    36   30   35 1   
    37   31   32 1   
    38   31   36 1   
    39   32   33 1   
    40   33   34 1   
    41   34   35 1   
    42   35   42 1   
    43   35   43 1   
    44   38   39 1   
    45   40   41 1   
@<TRIPOS>SUBSTRUCTURE
     1 CKR         1 TEMP              0 ****  ****    0 ROOT
