@<TRIPOS>MOLECULE
CL0
   24    23     1     0     0
SMALL
bcc


@<TRIPOS>ATOM
      1 N          -0.5520    1.5260    0.5140 n3        1 CL0     -0.806200
      2 CA         -0.3750    0.2650   -0.2100 c3        1 CL0      0.026500
      3 C          -1.6250   -0.6780   -0.1720 c         1 CL0      0.890600
      4 OXT        -1.7140   -1.5510   -1.0790 o         1 CL0     -0.843800
      5 CB          0.8120   -0.5440    0.3210 c3        1 CL0     -0.052400
      6 CG          2.1660    0.0940    0.0470 c3        1 CL0     -0.070700
      7 CD1         3.2190   -0.4990    0.9630 c3        1 CL0     -0.083100
      8 CD2         2.5790   -0.0920   -1.3990 c3        1 CL0     -0.083100
      9 O          -2.4710   -0.5180    0.7530 o         1 CL0     -0.843800
     10 HA         -0.1800    0.5130   -1.2930 h1        1 CL0      0.041700
     11 HB          0.6930   -0.6980    1.4260 hc        1 CL0      0.043700
     12 HBA         0.7660   -1.5540   -0.1680 hc        1 CL0      0.043700
     13 HG          2.0970    1.1980    0.2580 hc        1 CL0      0.057700
     14 HD1         3.2830   -1.6040    0.8210 hc        1 CL0      0.021033
     15 HD1A        4.2210   -0.0560    0.7480 hc        1 CL0      0.021033
     16 HD1B        2.9640   -0.2950    2.0310 hc        1 CL0      0.021033
     17 HD2         2.6830   -1.1770   -1.6410 hc        1 CL0      0.021033
     18 HD2A        1.8100    0.3470   -2.0800 hc        1 CL0      0.021033
     19 HD2B        3.5570    0.4100   -1.5940 hc        1 CL0      0.021033
     20 C2         -1.4890    2.4070   -0.1400 c3        1 CL0      0.154100
     21 H2         -2.4950    1.9380   -0.3220 h1        1 CL0      0.015033
     22 H2A        -1.6300    3.3200    0.4970 h1        1 CL0      0.015033
     23 H2B        -1.0660    2.7260   -1.1290 h1        1 CL0      0.015033
     24 H          -0.9170    1.2930    1.4250 hn        1 CL0      0.353800
@<TRIPOS>BOND
     1    1    2 1   
     2    1   20 1   
     3    1   24 1   
     4    2    3 1   
     5    2    5 1   
     6    2   10 1   
     7    3    4 1   
     8    3    9 1   
     9    5    6 1   
    10    5   11 1   
    11    5   12 1   
    12    6    7 1   
    13    6    8 1   
    14    6   13 1   
    15    7   14 1   
    16    7   15 1   
    17    7   16 1   
    18    8   17 1   
    19    8   18 1   
    20    8   19 1   
    21   20   21 1   
    22   20   22 1   
    23   20   23 1   
@<TRIPOS>SUBSTRUCTURE
     1 CL0         1 TEMP              0 ****  ****    0 ROOT
