@<TRIPOS>MOLECULE
CL0
   24    23     1     0     0
SMALL
bcc


@<TRIPOS>ATOM
      1 N           0.6080   -2.0790   -0.2200 n3        1 CL0     -0.794200
      2 CA         -0.2670   -1.0010    0.0380 c3        1 CL0      0.042500
      3 C          -1.6370   -1.3550   -0.4150 c         1 CL0      0.925600
      4 OXT        -2.6180   -1.2020    0.3630 o         1 CL0     -0.840800
      5 CB          0.2170    0.2400   -0.7210 c3        1 CL0     -0.054400
      6 CG          0.0020    1.5060    0.1560 c3        1 CL0     -0.071700
      7 CD1         1.3330    2.1190    0.4900 c3        1 CL0     -0.081600
      8 CD2        -0.8520    2.5310   -0.6180 c3        1 CL0     -0.081600
      9 O          -1.8140   -1.8410   -1.5640 o         1 CL0     -0.840800
     10 HA         -0.2800   -0.8130    1.0000 h1        1 CL0     -0.002300
     11 HB         -0.2960    0.3320   -1.5660 hc        1 CL0      0.032200
     12 HBA         1.1890    0.1420   -0.9310 hc        1 CL0      0.032200
     13 HG         -0.4500    1.2600    0.9670 hc        1 CL0      0.090700
     14 HD1         1.8320    2.2840   -0.3350 hc        1 CL0      0.019200
     15 HD1A        1.1930    2.9700    0.9650 hc        1 CL0      0.019200
     16 HD1B        1.8460    1.4990    1.0680 hc        1 CL0      0.019200
     17 HD2        -1.7220    2.1370   -0.8290 hc        1 CL0      0.019200
     18 HD2A       -0.3970    2.7730   -1.4420 hc        1 CL0      0.019200
     19 HD2B       -0.9810    3.3400   -0.0620 hc        1 CL0      0.019200
     20 C2          0.4340   -3.0940    0.7910 c3        1 CL0      0.146100
     21 H2          1.1620   -3.7530    0.7240 h1        1 CL0      0.024033
     22 H2A         0.4510   -2.6740    1.6880 h1        1 CL0      0.024033
     23 H2B        -0.4320   -3.5470    0.6570 h1        1 CL0      0.024033
     24 H           1.4810   -1.7760   -0.2060 hn        1 CL0      0.310800
@<TRIPOS>BOND
     1    1    2 1   
     2    1   20 1   
     3    1   24 1   
     4    2    3 1   
     5    2    5 1   
     6    2   10 1   
     7    3    4 1   
     8    3    9 1   
     9    5    6 1   
    10    5   11 1   
    11    5   12 1   
    12    6    7 1   
    13    6    8 1   
    14    6   13 1   
    15    7   14 1   
    16    7   15 1   
    17    7   16 1   
    18    8   17 1   
    19    8   18 1   
    20    8   19 1   
    21   20   21 1   
    22   20   22 1   
    23   20   23 1   
@<TRIPOS>SUBSTRUCTURE
     1 CL0         1 TEMP              0 ****  ****    0 ROOT
