@<TRIPOS>MOLECULE
CL3
   44    47     1     0     0
SMALL
bcc


@<TRIPOS>ATOM
      1 O32         1.9550    1.7020    0.0970 o         1 CL3     -0.410100
      2 N1         -2.5290   -2.4120   -5.4210 nc        1 CL3     -0.488800
      3 N2         -1.4520   -3.1270   -5.1250 na        1 CL3      0.118300
      4 C3         -1.2780   -4.5200   -5.4550 cc        1 CL3     -0.107300
      5 C4         -2.3350   -5.1780   -6.1630 cc        1 CL3     -0.028000
      6 C5         -3.4420   -4.4410   -6.4740 cd        1 CL3     -0.219300
      7 C6         -3.5130   -3.0440   -6.0830 cd        1 CL3      0.480800
      8 C7         -0.2620   -2.7830   -4.4390 cc        1 CL3      0.313400
      9 N8          0.5280   -3.9220   -4.3890 nd        1 CL3     -0.333700
     10 N9         -0.0480   -4.9250   -4.9720 nd        1 CL3     -0.038000
     11 C10        -4.7290   -2.2920   -6.4340 ca        1 CL3     -0.181500
     12 C11         0.0880   -1.4860   -3.8870 ca        1 CL3     -0.031900
     13 C12         1.0190   -1.4520   -2.8360 ca        1 CL3     -0.093000
     14 C13         1.4050   -0.2160   -2.2970 ca        1 CL3     -0.060400
     15 C14         0.8650    0.9870   -2.7850 ca        1 CL3     -0.104000
     16 C15        -0.0570    0.9330   -3.8260 ca        1 CL3     -0.106000
     17 C16        -0.4420   -0.2870   -4.3850 ca        1 CL3     -0.061000
     18 C17        -5.2720   -2.4320   -7.7200 ca        1 CL3     -0.095500
     19 C18        -6.4300   -1.7380   -8.0620 ca        1 CL3     -0.129000
     20 C19        -7.0530   -0.9080   -7.1280 ca        1 CL3     -0.097000
     21 C20        -6.5120   -0.7670   -5.8510 ca        1 CL3     -0.129000
     22 C21        -5.3490   -1.4530   -5.5010 ca        1 CL3     -0.095500
     23 N22         2.4050   -0.1920   -1.2150 n4        1 CL3     -0.466600
     24 C23         3.6620    0.4670   -1.6560 c3        1 CL3      0.091100
     25 C27         1.8140    0.4920    0.0200 c         1 CL3      0.561100
     26 C28         1.1370   -0.4190    0.9850 c3        1 CL3     -0.188100
     27 H12         1.4420   -2.4000   -2.4580 ha        1 CL3      0.171000
     28 H14         1.1570    1.9610   -2.3570 ha        1 CL3      0.164000
     29 H15        -0.4840    1.8710   -4.2200 ha        1 CL3      0.171000
     30 H16        -1.1550   -0.2860   -5.2260 ha        1 CL3      0.185000
     31 H17        -4.7810   -3.0810   -8.4610 ha        1 CL3      0.141000
     32 H18        -6.8540   -1.8470   -9.0720 ha        1 CL3      0.147000
     33 H19        -7.9710   -0.3650   -7.4020 ha        1 CL3      0.148000
     34 H20        -7.0040   -0.1150   -5.1130 ha        1 CL3      0.147000
     35 H21        -4.9300   -1.3390   -4.4900 ha        1 CL3      0.141000
     36 H231        4.4170    0.4000   -0.8290 hx        1 CL3      0.108033
     37 H232        3.4560    1.5470   -1.8900 hx        1 CL3      0.108033
     38 H233        4.0460   -0.0490   -2.5760 hx        1 CL3      0.108033
     39 H281        0.6700    0.2020    1.7950 hc        1 CL3      0.113367
     40 H282        1.8780   -1.1180    1.4520 hc        1 CL3      0.113367
     41 H283        0.3350   -1.0150    0.4800 hc        1 CL3      0.113367
     42 H4         -2.2150   -6.2420   -6.4220 ha        1 CL3      0.188000
     43 H221        2.6200   -1.1660   -0.9620 hn        1 CL3      0.454800
     44 H5         -4.2990   -4.8760   -7.0100 ha        1 CL3      0.178000
@<TRIPOS>BOND
     1    1   25 2   
     2    2    3 1   
     3    2    7 2   
     4    3    4 1   
     5    3    8 1   
     6    4    5 1   
     7    4   10 2   
     8    5    6 2   
     9    5   42 1   
    10    6    7 1   
    11    6   44 1   
    12    7   11 1   
    13    8    9 2   
    14    8   12 1   
    15    9   10 1   
    16   11   18 ar  
    17   11   22 ar  
    18   12   13 ar  
    19   12   17 ar  
    20   13   14 ar  
    21   13   27 1   
    22   14   15 ar  
    23   14   23 1   
    24   15   16 ar  
    25   15   28 1   
    26   16   17 ar  
    27   16   29 1   
    28   17   30 1   
    29   18   19 ar  
    30   18   31 1   
    31   19   20 ar  
    32   19   32 1   
    33   20   21 ar  
    34   20   33 1   
    35   21   22 ar  
    36   21   34 1   
    37   22   35 1   
    38   23   24 1   
    39   23   25 1   
    40   23   43 1   
    41   24   36 1   
    42   24   37 1   
    43   24   38 1   
    44   25   26 1   
    45   26   39 1   
    46   26   40 1   
    47   26   41 1   
@<TRIPOS>SUBSTRUCTURE
     1 CL3         1 TEMP              0 ****  ****    0 ROOT
