@<TRIPOS>MOLECULE
CL3
   43    34     1     0     0
SMALL
bcc


@<TRIPOS>ATOM
      1 O32        -2.2930   -3.2740    0.0090 o         1 CL3     -0.346000
      2 N1          1.1850    1.7570   -1.1130 n1        1 CL3     -0.042500
      3 N2         -0.1310    2.2360   -0.7600 n1        1 CL3     -0.042500
      4 C3         -0.6660    3.2760   -1.4250 c1        1 CL3     -0.050500
      5 C4          0.0490    3.8940   -2.4560 c1        1 CL3     -0.120375
      6 C5          1.3450    3.4240   -2.8040 c1        1 CL3     -0.120375
      7 C6          1.8920    2.3710   -2.1360 c1        1 CL3     -0.050500
      8 C7         -1.0340    1.8330    0.1920 c1        1 CL3     -0.014000
      9 N8         -2.1300    2.6410    0.0980 n2        1 CL3     -0.054000
     10 N9         -1.9110    3.5290   -0.8930 n1        1 CL3     -0.055000
     11 C10         3.0650    1.6030   -2.1900 c1        1 CL3     -0.050000
     12 C11        -0.9510    0.7350    1.1150 c1        1 CL3     -0.001000
     13 C12        -1.9400   -0.2490    1.1130 c1        1 CL3     -0.084000
     14 C13        -1.8240   -1.3630    1.9540 c1        1 CL3      0.059000
     15 C14        -0.7110   -1.4910    2.8020 c1        1 CL3     -0.120375
     16 C15         0.2830   -0.5040    2.8060 c1        1 CL3     -0.120375
     17 C16         0.1640    0.6100    1.9630 c1        1 CL3     -0.109000
     18 C17         4.1880    1.9440   -1.4630 c1        1 CL3     -0.120375
     19 C18         5.2700    1.1070   -1.4460 c1        1 CL3     -0.120375
     20 C19         5.2380   -0.0810   -2.1580 c1        1 CL3     -0.120375
     21 C20         4.1370   -0.4170   -2.8710 c1        1 CL3     -0.120375
     22 C21         3.0370    0.4290   -2.8910 c1        1 CL3     -0.089000
     23 N22        -2.8830   -2.3280    2.0130 n         1 CL3     -0.298000
     24 C23        -3.7750   -2.3590    3.1520 c3        1 CL3     -0.073000
     25 C27        -3.0500   -3.2790    0.9650 c2        1 CL3      0.308000
     26 C28        -4.1220   -4.3640    1.0900 c3        1 CL3     -0.239000
     27 H4         -0.3560    4.6750   -2.9520 ha        1 CL3      0.144000
     28 H5          1.8290    3.8430   -3.5030 ha        1 CL3      0.144000
     29 H12        -2.7340   -0.1580    0.5080 ha        1 CL3      0.175000
     30 H14        -0.6360   -2.2160    3.3500 ha        1 CL3      0.144000
     31 H15         1.0950   -0.5960    3.4220 ha        1 CL3      0.144000
     32 H16         0.8490    1.2930    1.9640 ha        1 CL3      0.147000
     33 H17         4.2110    2.7670   -0.9690 ha        1 CL3      0.144000
     34 H18         6.0090    1.3310   -0.9700 ha        1 CL3      0.144000
     35 H19         6.0150   -0.6810   -2.1460 ha        1 CL3      0.144000
     36 H20         4.1170   -1.2730   -3.3810 ha        1 CL3      0.144000
     37 H21         2.2300    0.1820   -3.4160 ha        1 CL3      0.151000
     38 H231       -3.5280   -3.0560    3.7190 h1        1 CL3      0.082333
     39 H232       -3.7230   -1.5440    3.6150 h1        1 CL3      0.082333
     40 H233       -4.7170   -2.5030    2.8330 h1        1 CL3      0.082333
     41 H281       -3.9100   -5.1120    0.4820 hc        1 CL3      0.107000
     42 H282       -5.0370   -3.9690    0.8420 hc        1 CL3      0.107000
     43 H283       -4.1450   -4.6650    1.9370 hc        1 CL3      0.107000
@<TRIPOS>BOND
     1    1   25 1   
     2    2    7 1   
     3    3    4 1   
     4    5    6 1   
     5    5   27 1   
     6    6   28 1   
     7    8    9 1   
     8    8   12 1   
     9    9   10 1   
    10   11   22 1   
    11   12   17 1   
    12   13   14 1   
    13   13   29 1   
    14   14   23 1   
    15   15   16 1   
    16   15   30 1   
    17   16   31 1   
    18   17   32 1   
    19   18   19 1   
    20   18   33 1   
    21   19   34 1   
    22   20   21 1   
    23   20   35 1   
    24   21   36 1   
    25   22   37 1   
    26   23   24 1   
    27   23   25 1   
    28   24   38 1   
    29   24   39 1   
    30   24   40 1   
    31   25   26 1   
    32   26   41 1   
    33   26   42 1   
    34   26   43 1   
@<TRIPOS>SUBSTRUCTURE
     1 CL3         1 TEMP              0 ****  ****    0 ROOT
