@<TRIPOS>MOLECULE
CL3
   43    46     1     0     0
SMALL
bcc


@<TRIPOS>ATOM
      1 O32         0.6330    1.6430   -0.0920 o         1 CL3     -0.591100
      2 N1         -2.4830   -2.3550   -5.5960 nc        1 CL3     -0.449800
      3 N2         -1.3490   -3.0040   -5.3770 na        1 CL3      0.086300
      4 C3         -1.0880   -4.3640   -5.7980 cc        1 CL3     -0.130300
      5 C4         -2.1290   -5.0540   -6.5020 cc        1 CL3     -0.034000
      6 C5         -3.2960   -4.3840   -6.7260 cd        1 CL3     -0.232300
      7 C6         -3.4450   -3.0170   -6.2530 cd        1 CL3      0.441800
      8 C7         -0.1570   -2.6130   -4.7130 cc        1 CL3      0.397400
      9 N8          0.7090   -3.6850   -4.7640 nd        1 CL3     -0.351700
     10 N9          0.1780   -4.7010   -5.3900 nd        1 CL3     -0.056000
     11 C10        -4.7240   -2.3350   -6.5150 ca        1 CL3     -0.159500
     12 C11         0.0840   -1.3200   -4.0870 ca        1 CL3     -0.085900
     13 C12         0.8190   -1.2860   -2.8960 ca        1 CL3     -0.126000
     14 C13         1.1000   -0.0540   -2.2690 ca        1 CL3      0.051600
     15 C14         0.6060    1.1340   -2.8510 ca        1 CL3     -0.110000
     16 C15        -0.1290    1.0790   -4.0300 ca        1 CL3     -0.124000
     17 C16        -0.3890   -0.1350   -4.6610 ca        1 CL3     -0.110000
     18 C17        -5.3250   -2.4610   -7.7750 ca        1 CL3     -0.098000
     19 C18        -6.5410   -1.8320   -8.0310 ca        1 CL3     -0.134000
     20 C19        -7.1630   -1.0760   -7.0370 ca        1 CL3     -0.112000
     21 C20        -6.5640   -0.9460   -5.7840 ca        1 CL3     -0.134000
     22 C21        -5.3450   -1.5700   -5.5200 ca        1 CL3     -0.098000
     23 N22         1.8830   -0.0200   -1.0870 n         1 CL3     -0.391000
     24 C23         2.9200   -1.0070   -0.9440 c3        1 CL3      0.077300
     25 C27         1.5510    0.8070   -0.0090 c         1 CL3      0.665100
     26 C28         2.3560    0.6750    1.2610 c3        1 CL3     -0.171100
     27 H5         -4.1440   -4.8480   -7.2490 ha        1 CL3      0.162000
     28 H12         1.1750   -2.2320   -2.4570 ha        1 CL3      0.152000
     29 H14         0.7840    2.1060   -2.3620 ha        1 CL3      0.162000
     30 H15        -0.5080    2.0130   -4.4730 ha        1 CL3      0.139000
     31 H16        -0.9570   -0.1500   -5.6030 ha        1 CL3      0.148000
     32 H17        -4.8330   -3.0490   -8.5650 ha        1 CL3      0.143500
     33 H18        -7.0100   -1.9300   -9.0220 ha        1 CL3      0.138500
     34 H19        -8.1240   -0.5810   -7.2420 ha        1 CL3      0.137000
     35 H20        -7.0500   -0.3470   -5.0000 ha        1 CL3      0.138500
     36 H21        -4.8750   -1.4580   -4.5310 ha        1 CL3      0.143500
     37 H231        2.5620   -1.8830   -0.3370 h1        1 CL3      0.046367
     38 H232        3.2440   -1.3740   -1.9540 h1        1 CL3      0.046367
     39 H233        3.8110   -0.5530   -0.4320 h1        1 CL3      0.046367
     40 H281        3.3980    1.0410    1.0950 hc        1 CL3      0.068033
     41 H282        1.8740    1.3030    2.0500 hc        1 CL3      0.068033
     42 H283        2.3890   -0.3850    1.6080 hc        1 CL3      0.068033
     43 H4         -1.9480   -6.0890   -6.8270 ha        1 CL3      0.172000
@<TRIPOS>BOND
     1    1   25 2   
     2    2    3 1   
     3    2    7 2   
     4    3    4 1   
     5    3    8 1   
     6    4    5 1   
     7    4   10 2   
     8    5    6 2   
     9    5   43 1   
    10    6    7 1   
    11    6   27 1   
    12    7   11 1   
    13    8    9 2   
    14    8   12 1   
    15    9   10 1   
    16   11   18 ar  
    17   11   22 ar  
    18   12   13 ar  
    19   12   17 ar  
    20   13   14 ar  
    21   13   28 1   
    22   14   15 ar  
    23   14   23 1   
    24   15   16 ar  
    25   15   29 1   
    26   16   17 ar  
    27   16   30 1   
    28   17   31 1   
    29   18   19 ar  
    30   18   32 1   
    31   19   20 ar  
    32   19   33 1   
    33   20   21 ar  
    34   20   34 1   
    35   21   22 ar  
    36   21   35 1   
    37   22   36 1   
    38   23   24 1   
    39   23   25 1   
    40   24   37 1   
    41   24   38 1   
    42   24   39 1   
    43   25   26 1   
    44   26   40 1   
    45   26   41 1   
    46   26   42 1   
@<TRIPOS>SUBSTRUCTURE
     1 CL3         1 TEMP              0 ****  ****    0 ROOT
