@<TRIPOS>MOLECULE
CL3
   43    46     1     0     0
SMALL
bcc


@<TRIPOS>ATOM
      1 O32         0.6510    1.6300   -0.0900 o         1 CL3     -0.591100
      2 N1         -2.4890   -2.3480   -5.5960 nc        1 CL3     -0.449800
      3 N2         -1.3580   -3.0030   -5.3780 na        1 CL3      0.086300
      4 C3         -1.1040   -4.3650   -5.8000 cc        1 CL3     -0.130300
      5 C4         -2.1490   -5.0490   -6.5030 cc        1 CL3     -0.034000
      6 C5         -3.3130   -4.3730   -6.7260 cd        1 CL3     -0.232300
      7 C6         -3.4550   -3.0060   -6.2530 cd        1 CL3      0.441800
      8 C7         -0.1640   -2.6190   -4.7150 cc        1 CL3      0.397400
      9 N8          0.6970   -3.6950   -4.7670 nd        1 CL3     -0.351700
     10 N9          0.1610   -4.7070   -5.3930 nd        1 CL3     -0.056000
     11 C10        -4.7300   -2.3170   -6.5130 ca        1 CL3     -0.159500
     12 C11         0.0830   -1.3270   -4.0880 ca        1 CL3     -0.085900
     13 C12         0.8200   -1.2980   -2.8980 ca        1 CL3     -0.126000
     14 C13         1.1080   -0.0670   -2.2700 ca        1 CL3      0.051600
     15 C14         0.6190    1.1240   -2.8500 ca        1 CL3     -0.110000
     16 C15        -0.1180    1.0730   -4.0290 ca        1 CL3     -0.124000
     17 C16        -0.3840   -0.1390   -4.6600 ca        1 CL3     -0.110000
     18 C17        -5.3340   -2.4400   -7.7730 ca        1 CL3     -0.098000
     19 C18        -6.5470   -1.8040   -8.0280 ca        1 CL3     -0.134000
     20 C19        -7.1630   -1.0450   -7.0330 ca        1 CL3     -0.112000
     21 C20        -6.5630   -0.9180   -5.7810 ca        1 CL3     -0.134000
     22 C21        -5.3460   -1.5480   -5.5180 ca        1 CL3     -0.098000
     23 N22         1.8930   -0.0380   -1.0890 n         1 CL3     -0.391000
     24 C23         2.9250   -1.0290   -0.9480 c3        1 CL3      0.077300
     25 C27         1.5650    0.7900   -0.0100 c         1 CL3      0.665100
     26 C28         2.3720    0.6530    1.2590 c3        1 CL3     -0.171100
     27 H5         -4.1630   -4.8330   -7.2480 ha        1 CL3      0.162000
     28 H12         1.1720   -2.2450   -2.4590 ha        1 CL3      0.152000
     29 H14         0.8010    2.0950   -2.3610 ha        1 CL3      0.162000
     30 H15        -0.4930    2.0090   -4.4700 ha        1 CL3      0.139000
     31 H16        -0.9530   -0.1500   -5.6010 ha        1 CL3      0.148000
     32 H17        -4.8450   -3.0300   -8.5630 ha        1 CL3      0.143500
     33 H18        -7.0160   -1.9000   -9.0180 ha        1 CL3      0.138500
     34 H19        -8.1220   -0.5450   -7.2370 ha        1 CL3      0.137000
     35 H20        -7.0450   -0.3160   -4.9960 ha        1 CL3      0.138500
     36 H21        -4.8750   -1.4390   -4.5290 ha        1 CL3      0.143500
     37 H231        3.2470   -1.3970   -1.9590 h1        1 CL3      0.046367
     38 H232        2.5640   -1.9040   -0.3420 h1        1 CL3      0.046367
     39 H233        3.8190   -0.5800   -0.4370 h1        1 CL3      0.046367
     40 H281        3.4150    1.0140    1.0920 hc        1 CL3      0.068033
     41 H282        2.4000   -0.4080    1.6060 hc        1 CL3      0.068033
     42 H283        1.8930    1.2820    2.0500 hc        1 CL3      0.068033
     43 H4         -1.9730   -6.0840   -6.8290 ha        1 CL3      0.172000
@<TRIPOS>BOND
     1    1   25 2   
     2    2    3 1   
     3    2    7 2   
     4    3    4 1   
     5    3    8 1   
     6    4    5 1   
     7    4   10 2   
     8    5    6 2   
     9    5   43 1   
    10    6    7 1   
    11    6   27 1   
    12    7   11 1   
    13    8    9 2   
    14    8   12 1   
    15    9   10 1   
    16   11   18 ar  
    17   11   22 ar  
    18   12   13 ar  
    19   12   17 ar  
    20   13   14 ar  
    21   13   28 1   
    22   14   15 ar  
    23   14   23 1   
    24   15   16 ar  
    25   15   29 1   
    26   16   17 ar  
    27   16   30 1   
    28   17   31 1   
    29   18   19 ar  
    30   18   32 1   
    31   19   20 ar  
    32   19   33 1   
    33   20   21 ar  
    34   20   34 1   
    35   21   22 ar  
    36   21   35 1   
    37   22   36 1   
    38   23   24 1   
    39   23   25 1   
    40   24   37 1   
    41   24   38 1   
    42   24   39 1   
    43   25   26 1   
    44   26   40 1   
    45   26   41 1   
    46   26   42 1   
@<TRIPOS>SUBSTRUCTURE
     1 CL3         1 TEMP              0 ****  ****    0 ROOT
