@<TRIPOS>MOLECULE
CL3
   43    46     1     0     0
SMALL
bcc


@<TRIPOS>ATOM
      1 O32        -0.1870   -2.1150    4.1160 o         1 CL3     -0.585100
      2 N1          0.3380    0.0650   -1.7990 nc        1 CL3     -0.448800
      3 N2          1.4080   -0.0630   -1.0300 na        1 CL3      0.086300
      4 C3          2.6950   -0.5440   -1.4870 cc        1 CL3     -0.129300
      5 C4          2.8170   -0.9050   -2.8690 cc        1 CL3     -0.033000
      6 C5          1.7140   -0.7740   -3.6590 cd        1 CL3     -0.233300
      7 C6          0.4710   -0.2800   -3.0880 cd        1 CL3      0.439800
      8 C7          1.6060    0.1900    0.3520 cc        1 CL3      0.396400
      9 N8          2.9160   -0.1240    0.6430 nd        1 CL3     -0.341700
     10 N9          3.5520   -0.5480   -0.4150 nd        1 CL3     -0.055000
     11 C10        -0.6950   -0.1590   -3.9790 ca        1 CL3     -0.157500
     12 C11         0.5900    0.6800    1.2740 ca        1 CL3     -0.084900
     13 C12         0.5310    0.1270    2.5580 ca        1 CL3     -0.084000
     14 C13        -0.4270    0.5950    3.4830 ca        1 CL3      0.051600
     15 C14        -1.3190    1.6150    3.0860 ca        1 CL3     -0.148000
     16 C15        -1.2390    2.1560    1.8070 ca        1 CL3     -0.124000
     17 C16        -0.2910    1.7000    0.8950 ca        1 CL3     -0.109000
     18 C17        -0.5280    0.3860   -5.2600 ca        1 CL3     -0.099000
     19 C18        -1.6200    0.4930   -6.1180 ca        1 CL3     -0.134000
     20 C19        -2.8810    0.0590   -5.7060 ca        1 CL3     -0.113000
     21 C20        -3.0490   -0.4800   -4.4310 ca        1 CL3     -0.134000
     22 C21        -1.9610   -0.5880   -3.5640 ca        1 CL3     -0.099000
     23 N22        -0.4830    0.0660    4.7980 n         1 CL3     -0.395000
     24 C23        -0.7980    0.9700    5.8700 c3        1 CL3      0.082300
     25 C27        -0.3990   -1.3090    5.0390 c         1 CL3      0.664100
     26 C28        -0.5560   -1.7900    6.4610 c3        1 CL3     -0.171100
     27 H5          1.7240   -1.0410   -4.7250 ha        1 CL3      0.161000
     28 H12         1.2210   -0.6870    2.8380 ha        1 CL3      0.175000
     29 H14        -2.0850    1.9890    3.7820 ha        1 CL3      0.134000
     30 H15        -1.9380    2.9540    1.5120 ha        1 CL3      0.136000
     31 H16        -0.2400    2.1430   -0.1100 ha        1 CL3      0.147000
     32 H17         0.4630    0.7380   -5.5840 ha        1 CL3      0.144000
     33 H18        -1.4870    0.9240   -7.1210 ha        1 CL3      0.138000
     34 H19        -3.7410    0.1430   -6.3870 ha        1 CL3      0.136000
     35 H20        -4.0420   -0.8210   -4.1040 ha        1 CL3      0.138000
     36 H21        -2.1020   -1.0100   -2.5580 ha        1 CL3      0.144000
     37 H231       -1.8860    0.9030    6.1460 h1        1 CL3      0.043033
     38 H232       -0.1810    0.7210    6.7750 h1        1 CL3      0.043033
     39 H233       -0.5670    2.0250    5.5650 h1        1 CL3      0.043033
     40 H281       -0.5910   -2.9070    6.4540 hc        1 CL3      0.067700
     41 H282        0.3160   -1.4600    7.0770 hc        1 CL3      0.067700
     42 H283       -1.4970   -1.3990    6.9170 hc        1 CL3      0.067700
     43 H4          3.7870   -1.2760   -3.2320 ha        1 CL3      0.172000
@<TRIPOS>BOND
     1    1   25 2   
     2    2    3 1   
     3    2    7 2   
     4    3    4 1   
     5    3    8 1   
     6    4    5 1   
     7    4   10 2   
     8    5    6 2   
     9    5   43 1   
    10    6    7 1   
    11    6   27 1   
    12    7   11 1   
    13    8    9 2   
    14    8   12 1   
    15    9   10 1   
    16   11   18 ar  
    17   11   22 ar  
    18   12   13 ar  
    19   12   17 ar  
    20   13   14 ar  
    21   13   28 1   
    22   14   15 ar  
    23   14   23 1   
    24   15   16 ar  
    25   15   29 1   
    26   16   17 ar  
    27   16   30 1   
    28   17   31 1   
    29   18   19 ar  
    30   18   32 1   
    31   19   20 ar  
    32   19   33 1   
    33   20   21 ar  
    34   20   34 1   
    35   21   22 ar  
    36   21   35 1   
    37   22   36 1   
    38   23   24 1   
    39   23   25 1   
    40   24   37 1   
    41   24   38 1   
    42   24   39 1   
    43   25   26 1   
    44   26   40 1   
    45   26   41 1   
    46   26   42 1   
@<TRIPOS>SUBSTRUCTURE
     1 CL3         1 TEMP              0 ****  ****    0 ROOT
