@<TRIPOS>MOLECULE
CL4
   53    56     1     0     0
SMALL
bcc


@<TRIPOS>ATOM
      1 C1          0.4530   -2.5060   -1.2160 c2        1 CL4     -0.163200
      2 C2         -0.9660   -2.3160   -1.6500 c3        1 CL4      0.122200
      3 N3         -1.5310   -1.0770   -1.1680 n         1 CL4     -0.553900
      4 C4          0.8440   -3.5110   -0.4320 c2        1 CL4     -0.192200
      5 C5          2.2580   -3.7450   -0.0170 c3        1 CL4      0.130300
      6 O6          3.1430   -2.7330   -0.5090 os        1 CL4     -0.400600
      7 C7          2.3950   -3.7900    1.5230 c3        1 CL4      0.079100
      8 O8          2.9040   -5.0250    1.9840 oh        1 CL4     -0.593800
      9 C9          3.4200   -2.6920    1.8840 c3        1 CL4      0.128100
     10 O10         4.6960   -3.1800    2.2320 oh        1 CL4     -0.578800
     11 C11         3.6300   -1.8960    0.5530 c3        1 CL4      0.243800
     12 N12         2.9740   -0.6120    0.5470 na        1 CL4     -0.285000
     13 C13         1.5910   -0.3510    0.7370 cc        1 CL4      0.385700
     14 N14         1.2340    0.9100    0.4640 nd        1 CL4     -0.552100
     15 C15         2.4160    1.5420    0.0460 ca        1 CL4     -0.243200
     16 C16         2.7090    2.8860   -0.3700 ca        1 CL4      0.764200
     17 N17         1.7350    3.8440   -0.3560 nh        1 CL4     -0.938500
     18 N18         4.0000    3.1920   -0.7450 nb        1 CL4     -0.794000
     19 C19         4.9280    2.2040   -0.6750 ca        1 CL4      0.694900
     20 N20         4.8010    0.9090   -0.2920 nb        1 CL4     -0.738000
     21 C21         3.5240    0.5930    0.0690 ca        1 CL4      0.478800
     22 C22        -4.7220    0.5200   -0.2320 ca        1 CL4      0.162100
     23 C23        -5.2360    1.7580    0.2460 ca        1 CL4      0.086100
     24 C24        -4.4670    2.9170    0.1870 ca        1 CL4     -0.060000
     25 C25        -3.1720    2.8350   -0.3560 ca        1 CL4     -0.190200
     26 C26        -2.6470    1.6230   -0.8210 ca        1 CL4     -0.035000
     27 C27        -3.4160    0.4550   -0.7500 ca        1 CL4     -0.200600
     28 O29        -5.5880   -0.5270   -0.1130 oh        1 CL4     -0.515100
     29 C30        -2.8810   -0.8480   -1.2390 c         1 CL4      0.680700
     30 O31        -3.6530   -1.7320   -1.6830 o         1 CL4     -0.643100
     31 N32        -2.3470    4.0660   -0.4340 no        1 CL4      0.324200
     32 O33        -1.2400    3.9960   -0.9070 o         1 CL4     -0.215000
     33 O34        -2.7970    5.1010   -0.0280 o         1 CL4     -0.215000
     34 HC1         1.1790   -1.7670   -1.6000 ha        1 CL4      0.155000
     35 HC21       -1.0000   -2.3220   -2.7810 h1        1 CL4      0.065700
     36 HC22       -1.6180   -3.1680   -1.2960 h1        1 CL4      0.065700
     37 HN3        -0.9140   -0.3820   -0.8160 hn        1 CL4      0.334500
     38 HC4         0.1350   -4.2650   -0.0510 ha        1 CL4      0.130000
     39 HC5         2.6330   -4.7040   -0.4800 h1        1 CL4      0.093700
     40 HC7         1.4070   -3.5810    2.0180 h1        1 CL4      0.055700
     41 HO8         2.2930   -5.7120    1.6910 ho        1 CL4      0.420000
     42 HC9         3.0300   -2.0510    2.7190 h1        1 CL4      0.071700
     43 H10         4.5770   -3.9630    2.7880 ho        1 CL4      0.434000
     44 H11         4.7320   -1.7480    0.3360 h2        1 CL4      0.151700
     45 H13         0.9180   -1.1440    1.0870 h5        1 CL4      0.067800
     46 H171        1.9110    4.7430   -0.7350 hn        1 CL4      0.453300
     47 H172        0.7940    3.5670   -0.2070 hn        1 CL4      0.453300
     48 H19         5.9520    2.5060   -0.9850 h5        1 CL4      0.054100
     49 H24        -4.8780    3.8730    0.5570 ha        1 CL4      0.194000
     50 H26        -1.6300    1.6080   -1.2520 ha        1 CL4      0.178000
     51 H28        -6.9430    1.0140    0.6970 ho        1 CL4      0.447000
     52 H29        -5.2660   -1.2970   -0.6180 ho        1 CL4      0.483000
     53 O28        -6.4930    1.8710    0.7870 oh        1 CL4     -0.482100
@<TRIPOS>BOND
     1    1    2 1   
     2    1    4 2   
     3    1   34 1   
     4    2    3 1   
     5    2   35 1   
     6    2   36 1   
     7    3   29 1   
     8    3   37 1   
     9    4    5 1   
    10    4   38 1   
    11    5    6 1   
    12    5    7 1   
    13    5   39 1   
    14    6   11 1   
    15    7    8 1   
    16    7    9 1   
    17    7   40 1   
    18    8   41 1   
    19    9   10 1   
    20    9   11 1   
    21    9   42 1   
    22   10   43 1   
    23   11   12 1   
    24   11   44 1   
    25   12   13 1   
    26   12   21 1   
    27   13   14 2   
    28   13   45 1   
    29   14   15 1   
    30   15   16 ar  
    31   15   21 ar  
    32   16   17 1   
    33   16   18 ar  
    34   17   46 1   
    35   17   47 1   
    36   18   19 ar  
    37   19   20 ar  
    38   19   48 1   
    39   20   21 ar  
    40   22   23 ar  
    41   22   27 ar  
    42   22   28 1   
    43   23   24 ar  
    44   23   53 1   
    45   24   25 ar  
    46   24   49 1   
    47   25   26 ar  
    48   25   31 1   
    49   26   27 ar  
    50   26   50 1   
    51   27   29 1   
    52   28   52 1   
    53   29   30 2   
    54   31   32 1   
    55   31   33 1   
    56   51   53 1   
@<TRIPOS>SUBSTRUCTURE
     1 CL4         1 TEMP              0 ****  ****    0 ROOT
