@<TRIPOS>MOLECULE
CL4
   53    47     1     0     0
SMALL
bcc


@<TRIPOS>ATOM
      1 C1          0.2700    0.0300    1.1830 c1        1 CL4     -0.171500
      2 C2          0.9390   -0.4810   -0.0850 c2        1 CL4     -0.013000
      3 N3          0.9970   -1.9260   -0.0500 n         1 CL4     -0.365000
      4 C4          0.3000    1.3680    1.4850 c1        1 CL4     -0.171500
      5 C5          0.9730    2.3030    0.5910 c2        1 CL4      0.048000
      6 O6         -0.1080    2.9410   -0.4400 os        1 CL4     -0.266000
      7 C7          1.3720    3.3470    1.2750 c3        1 CL4      0.022000
      8 O8          2.5700    3.9440    0.6420 oh        1 CL4     -0.315000
      9 C9          0.1850    4.3600    1.2380 c3        1 CL4     -0.026000
     10 O10         0.6440    5.6150    0.8990 oh        1 CL4     -0.325000
     11 C11        -0.7510    3.8650    0.2060 c3        1 CL4      0.138000
     12 N12        -1.9510    3.2980    0.8410 n3        1 CL4     -0.206000
     13 C13        -2.5180    3.0020    2.0290 c1        1 CL4     -0.028000
     14 N14        -3.8500    2.8580    1.8330 n2        1 CL4     -0.125000
     15 C15        -4.1070    3.0670    0.5170 c1        1 CL4     -0.237000
     16 C16        -5.2680    2.9670   -0.2260 c1        1 CL4      0.245000
     17 N17        -6.5430    2.6470    0.3290 n3        1 CL4     -0.356000
     18 N18        -5.2310    3.1420   -1.5600 n1        1 CL4     -0.269000
     19 C19        -4.0490    3.4170   -2.1790 c1        1 CL4      0.029000
     20 N20        -2.9020    3.5150   -1.4480 n1        1 CL4     -0.240000
     21 C21        -2.9360    3.3390   -0.0970 c1        1 CL4      0.059000
     22 C22         2.3360   -4.7460   -2.2740 c1        1 CL4      0.138000
     23 C23         2.9200   -6.0070   -2.1740 c1        1 CL4     -0.019000
     24 C24         3.1180   -6.5870   -0.9190 c1        1 CL4     -0.098000
     25 C25         2.7330   -5.9080    0.2280 c1        1 CL4     -0.145000
     26 C26         2.1470   -4.6440    0.1270 c1        1 CL4     -0.012000
     27 C27         1.9490   -4.0660   -1.1220 c1        1 CL4     -0.140000
     28 O28         3.2580   -6.7210   -3.3430 oh        1 CL4     -0.267000
     29 O29         2.0130   -4.2200   -3.5420 oh        1 CL4     -0.245000
     30 C30         1.3220   -2.6520   -1.2310 c2        1 CL4      0.357000
     31 O31         1.1680   -2.1390   -2.3230 o         1 CL4     -0.361000
     32 N32         3.0080   -6.4630    1.5090 no        1 CL4      0.575000
     33 O33         2.7180   -5.8390    2.5190 o         1 CL4     -0.353000
     34 O34         3.5790   -7.7010    1.6100 o         1 CL4     -0.353000
     35 HC1        -0.1820   -0.5960    1.7840 ha        1 CL4      0.134000
     36 HC21        0.4190   -0.1920   -0.8690 h4        1 CL4      0.120000
     37 HC22        1.8480   -0.1180   -0.1430 h4        1 CL4      0.120000
     38 HN3         0.7520   -2.3710    0.7030 hn        1 CL4      0.240000
     39 HC4        -0.1290    1.6950    2.2990 ha        1 CL4      0.134000
     40 HC5         1.6680    1.7280    0.2090 h4        1 CL4      0.146000
     41 HC7         1.5690    3.0920    2.1970 h1        1 CL4      0.103000
     42 HO8         3.1710    4.1340    1.2660 ho        1 CL4      0.230000
     43 HC9        -0.2590    4.3890    2.1110 h1        1 CL4      0.116000
     44 H10         0.5750    6.1600    1.6080 ho        1 CL4      0.240000
     45 H11        -1.0010    4.5950   -0.4030 h2        1 CL4      0.142000
     46 H13        -2.0610    2.9630    2.8850 DU        1 CL4      0.215000
     47 H171       -6.6840    2.7310    1.2290 hn        1 CL4      0.245500
     48 H172       -7.2310    2.3940   -0.2220 hn        1 CL4      0.245500
     49 H19        -4.0230    3.5430   -3.1480 ha        1 CL4      0.188000
     50 H24         3.5290   -7.4720   -0.8480 ha        1 CL4      0.178000
     51 H26         1.8750   -4.1640    0.9380 ha        1 CL4      0.200000
     52 H28         4.1060   -6.5510   -3.5610 ho        1 CL4      0.242000
     53 H29         1.7550   -4.8830   -4.0830 ho        1 CL4      0.258000
@<TRIPOS>BOND
     1    1    4 1   
     2    1   35 1   
     3    2    3 1   
     4    2   36 1   
     5    2   37 1   
     6    3   30 1   
     7    3   38 1   
     8    4   39 1   
     9    5    6 1   
    10    5    7 1   
    11    5   40 1   
    12    6   11 1   
    13    7    8 1   
    14    7    9 1   
    15    7   41 1   
    16    8   42 1   
    17    9   10 1   
    18    9   11 1   
    19    9   43 1   
    20   10   44 1   
    21   11   12 1   
    22   11   45 1   
    23   12   13 1   
    24   12   21 1   
    25   13   14 1   
    26   14   15 1   
    27   15   21 1   
    28   16   17 1   
    29   16   18 1   
    30   17   47 1   
    31   17   48 1   
    32   19   20 1   
    33   19   49 1   
    34   22   27 1   
    35   22   29 1   
    36   23   24 1   
    37   23   28 1   
    38   24   50 1   
    39   25   26 1   
    40   25   32 1   
    41   26   51 1   
    42   27   30 1   
    43   28   52 1   
    44   29   53 1   
    45   30   31 1   
    46   32   33 1   
    47   32   34 1   
@<TRIPOS>SUBSTRUCTURE
     1 CL4         1 TEMP              0 ****  ****    0 ROOT
