@<TRIPOS>MOLECULE
CL4
   54    55     1     0     0
SMALL
bcc


@<TRIPOS>ATOM
      1 C1          1.0150   -1.5800   -0.6610 c3        1 CL4     -0.159000
      2 C2          2.3450   -1.4790    0.0910 c3        1 CL4     -0.027000
      3 N3          2.2400   -1.3650    1.5230 ns        1 CL4     -0.362000
      4 C4          0.2190   -0.2920   -0.5570 c3        1 CL4     -0.264000
      5 C5         -0.8740   -0.2490   -1.5270 c1        1 CL4      0.135000
      6 O6         -2.0690    0.1450   -1.3910 os        1 CL4     -0.053000
      7 C7         -4.3690    2.4610   -0.9510 c3        1 CL4     -0.026000
      8 O8         -5.0940    3.3310   -0.1240 oh        1 CL4     -0.306000
      9 C9         -2.9850    2.1770   -0.3130 c3        1 CL4      0.030000
     10 O10        -2.7740    2.7470    0.9480 oh        1 CL4     -0.311000
     11 C11        -2.7390    0.6750   -0.2280 c2        1 CL4      0.167000
     12 N12        -3.0820   -0.1890    0.7040 n7        1 CL4     -0.124000
     13 C13        -1.4490   -2.0870    3.2800 c1        1 CL4      0.144000
     14 N14        -2.3930   -1.3780    3.1970 n2        1 CL4     -0.284000
     15 C15        -3.4710   -0.5350    3.1190 c2        1 CL4     -0.124000
     16 C16        -4.2720   -0.2180    4.3020 c2        1 CL4      0.246000
     17 N17        -3.9790   -0.7400    5.5200 n8        1 CL4     -0.321000
     18 N18        -5.3650    0.6300    4.1010 n7        1 CL4     -0.222000
     19 C19        -5.6720    1.1750    2.8720 c1        1 CL4      0.053000
     20 N20        -4.9240    0.9160    1.7800 n2        1 CL4     -0.289000
     21 C21        -3.8590    0.0930    1.8900 c2        1 CL4      0.164000
     22 C22         2.6750    1.0260    4.3120 c2        1 CL4      0.197000
     23 C23         2.5700    1.1290    5.7100 c2        1 CL4     -0.051000
     24 C24         1.8070    0.2450    6.4630 c1        1 CL4     -0.148000
     25 C25         1.3490   -1.0040    5.8370 c3        1 CL4     -0.093000
     26 C26         1.3780   -1.0520    4.3430 c2        1 CL4     -0.085000
     27 C27         2.0440   -0.1060    3.6390 c2        1 CL4     -0.167000
     28 C30         2.0810   -0.1510    2.1450 c2        1 CL4      0.337000
     29 O31         1.9500    0.9010    1.4750 o         1 CL4     -0.393000
     30 N32        -0.0280   -1.4000    6.3910 no        1 CL4      0.560000
     31 O33        -1.0130   -0.9840    5.8340 o         1 CL4     -0.364000
     32 O34        -0.0840   -2.1280    7.3320 o         1 CL4     -0.364000
     33 HC1         0.4070   -2.4370   -0.2710 hc        1 CL4      0.111500
     34 HC21        2.9110   -0.5840   -0.3020 h1        1 CL4      0.119500
     35 HC22        1.2520   -1.7910   -1.7380 hc        1 CL4      0.111500
     36 HN3         2.9440   -2.4080   -0.1370 h1        1 CL4      0.119500
     37 HC4         0.9050    0.5830   -0.7910 hc        1 CL4      0.146500
     38 HC5        -0.1350   -0.1340    0.5000 hc        1 CL4      0.146500
     39 HC7        -4.9200    1.5090   -1.1580 h1        1 CL4      0.119000
     40 HO8        -5.7450    2.8200    0.3790 ho        1 CL4      0.245000
     41 HC9        -4.2000    3.0210   -1.9130 h1        1 CL4      0.119000
     42 H10        -3.5750    3.2250    1.2320 ho        1 CL4      0.263000
     43 H11        -2.1670    2.5790   -0.9870 h1        1 CL4      0.150000
     44 H13        -2.8400   -1.1620    0.5850 hn        1 CL4      0.276000
     45 H171       -4.5030   -0.4840    6.3270 hn        1 CL4      0.274000
     46 H172       -3.1280   -1.2420    5.6710 hn        1 CL4      0.274000
     47 H19        -5.9620    0.8750    4.8680 hn        1 CL4      0.282000
     48 H24         2.0770   -1.8000    6.2290 h1        1 CL4      0.216000
     49 H26         0.8540   -1.8950    3.8550 ha        1 CL4      0.174000
     50 H28         2.9820    2.1810    7.2410 ho        1 CL4      0.248000
     51 H29         3.1890    1.9600    2.7030 ho        1 CL4      0.264000
     52 O28         3.1730    2.2240    6.2880 oh        1 CL4     -0.223000
     53 H32         2.3490   -2.1880    2.0660 hn        1 CL4      0.243000
     54 O29         3.3320    2.0060    3.6680 oh        1 CL4     -0.174000
@<TRIPOS>BOND
     1    1    2 1   
     2    1    4 1   
     3    1   33 1   
     4    1   35 1   
     5    2    3 1   
     6    2   34 1   
     7    2   36 1   
     8    3   28 1   
     9    3   53 1   
    10    4    5 1   
    11    4   37 1   
    12    4   38 1   
    13    5    6 1   
    14    6   11 1   
    15    7    8 1   
    16    7    9 1   
    17    7   39 1   
    18    7   41 1   
    19    8   40 1   
    20    9   10 1   
    21    9   11 1   
    22    9   43 1   
    23   10   42 1   
    24   11   12 1   
    25   12   21 1   
    26   12   44 1   
    27   13   14 1   
    28   14   15 1   
    29   15   16 1   
    30   15   21 1   
    31   16   17 1   
    32   16   18 1   
    33   17   45 1   
    34   17   46 1   
    35   18   19 1   
    36   18   47 1   
    37   19   20 1   
    38   20   21 1   
    39   22   23 1   
    40   22   27 1   
    41   22   54 1   
    42   23   24 1   
    43   23   52 1   
    44   24   25 1   
    45   25   26 1   
    46   25   30 1   
    47   25   48 1   
    48   26   27 1   
    49   26   49 1   
    50   27   28 1   
    51   28   29 1   
    52   30   31 1   
    53   30   32 1   
    54   50   52 1   
    55   51   54 1   
@<TRIPOS>SUBSTRUCTURE
     1 CL4         1 TEMP              0 ****  ****    0 ROOT
