@<TRIPOS>MOLECULE
CL4
   54    55     1     0     0
SMALL
bcc


@<TRIPOS>ATOM
      1 C1          0.3960   -1.1380   -0.6120 c3        1 CL4     -0.157000
      2 C2          1.7020   -1.4480    0.1220 c3        1 CL4     -0.036000
      3 N3          1.6250   -1.2540    1.5460 n         1 CL4     -0.380000
      4 C4          0.0130    0.3300   -0.5000 c3        1 CL4     -0.265000
      5 C5         -1.0810    0.6490   -1.4170 c1        1 CL4      0.135000
      6 O6         -2.2800    1.0070   -1.2380 os        1 CL4     -0.032000
      7 C7         -3.7360    3.2060   -1.4620 c3        1 CL4     -0.011000
      8 O8         -4.5480    4.3500   -1.4510 oh        1 CL4     -0.297000
      9 C9         -4.1100    2.3270   -0.2460 c3        1 CL4      0.026000
     10 O10        -5.3600    1.7570   -0.5310 oh        1 CL4     -0.293000
     11 C11        -3.0920    1.1930   -0.0740 c2        1 CL4      0.181000
     12 N12        -2.9550    0.3460    0.9340 n3        1 CL4     -0.149000
     13 C13        -1.0930   -1.9300    3.0100 c1        1 CL4      0.133000
     14 N14        -2.0800   -1.2850    3.1100 n2        1 CL4     -0.278000
     15 C15        -3.2130   -0.5240    3.2370 c2        1 CL4     -0.140000
     16 C16        -3.9820   -0.5240    4.4820 c2        1 CL4      0.249000
     17 N17        -3.6210   -1.2870    5.5430 n3        1 CL4     -0.320000
     18 N18        -5.1240    0.2830    4.5080 n3        1 CL4     -0.226000
     19 C19        -5.5150    1.0560    3.4370 c1        1 CL4      0.074000
     20 N20        -4.8050    1.0730    2.2900 n2        1 CL4     -0.298000
     21 C21        -3.6960    0.3160    2.1730 c2        1 CL4      0.168000
     22 C22         3.0150    0.6730    4.3930 c2        1 CL4      0.209000
     23 C23         2.6580    0.9190    5.7320 c2        1 CL4     -0.069000
     24 C24         1.9150    0.0240    6.4900 c1        1 CL4     -0.152000
     25 C25         1.6760   -1.3200    5.9360 c3        1 CL4     -0.097000
     26 C26         1.8340   -1.4680    4.4560 c2        1 CL4     -0.069000
     27 C27         2.4850   -0.5230    3.7370 c2        1 CL4     -0.172000
     28 C30         2.6410   -0.6460    2.2520 c2        1 CL4      0.343000
     29 O31         3.6260   -0.1510    1.6610 o         1 CL4     -0.365000
     30 N32         0.3140   -1.8460    6.4100 no        1 CL4      0.560000
     31 O33        -0.6610   -1.5840    5.7480 o         1 CL4     -0.366500
     32 O34         0.2580   -2.5090    7.3970 o         1 CL4     -0.366500
     33 HC1        -0.4360   -1.7760   -0.2130 hc        1 CL4      0.107500
     34 HC21        2.5290   -0.8020   -0.2950 h1        1 CL4      0.124000
     35 HC22        0.5470   -1.4070   -1.6920 hc        1 CL4      0.107500
     36 HN3         1.9630   -2.5260   -0.0950 h1        1 CL4      0.124000
     37 HC4         0.8960    0.9590   -0.8290 hc        1 CL4      0.138500
     38 HC5        -0.2020    0.6040    0.5690 hc        1 CL4      0.138500
     39 HC7        -3.8500    2.6160   -2.4090 h1        1 CL4      0.114000
     40 HO8        -5.4330    4.0840   -1.7390 ho        1 CL4      0.226000
     41 HC9        -2.6840    3.5810   -1.3540 h1        1 CL4      0.114000
     42 H10        -5.8980    1.7480    0.2770 ho        1 CL4      0.258000
     43 H11        -4.1150    2.9600    0.6880 h1        1 CL4      0.160000
     44 H13        -2.2640   -0.3830    0.8380 hn        1 CL4      0.264000
     45 H171       -4.1260   -1.2460    6.4010 hn        1 CL4      0.275500
     46 H172       -2.7540   -1.7830    5.5520 hn        1 CL4      0.275500
     47 H19        -5.6980    0.3190    5.3290 hn        1 CL4      0.283000
     48 H24         2.4610   -1.9810    6.4490 h1        1 CL4      0.219000
     49 H26         1.4190   -2.3840    4.0000 ha        1 CL4      0.168000
     50 H28         2.7990    2.1370    7.1880 ho        1 CL4      0.247000
     51 H29         4.0470    1.3230    2.8890 ho        1 CL4      0.275000
     52 O28         3.0530    2.1360    6.2490 oh        1 CL4     -0.226000
     53 H32         0.9270   -1.7710    2.0370 hn        1 CL4      0.244000
     54 O29         3.7720    1.5980    3.7850 oh        1 CL4     -0.178000
@<TRIPOS>BOND
     1    1    2 1   
     2    1    4 1   
     3    1   33 1   
     4    1   35 1   
     5    2    3 1   
     6    2   34 1   
     7    2   36 1   
     8    3   28 1   
     9    3   53 1   
    10    4    5 1   
    11    4   37 1   
    12    4   38 1   
    13    5    6 1   
    14    6   11 1   
    15    7    8 1   
    16    7    9 1   
    17    7   39 1   
    18    7   41 1   
    19    8   40 1   
    20    9   10 1   
    21    9   11 1   
    22    9   43 1   
    23   10   42 1   
    24   11   12 1   
    25   12   21 1   
    26   12   44 1   
    27   13   14 1   
    28   14   15 1   
    29   15   16 1   
    30   15   21 1   
    31   16   17 1   
    32   16   18 1   
    33   17   45 1   
    34   17   46 1   
    35   18   19 1   
    36   18   47 1   
    37   19   20 1   
    38   20   21 1   
    39   22   23 1   
    40   22   27 1   
    41   22   54 1   
    42   23   24 1   
    43   23   52 1   
    44   24   25 1   
    45   25   26 1   
    46   25   30 1   
    47   25   48 1   
    48   26   27 1   
    49   26   49 1   
    50   27   28 1   
    51   28   29 1   
    52   30   31 1   
    53   30   32 1   
    54   50   52 1   
    55   51   54 1   
@<TRIPOS>SUBSTRUCTURE
     1 CL4         1 TEMP              0 ****  ****    0 ROOT
