@<TRIPOS>MOLECULE
CL5
   18    17     1     0     0
SMALL
bcc


@<TRIPOS>ATOM
      1 C7          0.0330    0.2160   -0.0150 c         1 CL5      0.569900
      2 C6          1.5160   -0.0260   -0.0300 c3        1 CL5     -0.234400
      3 O8         -0.6320    0.2590    1.0180 o         1 CL5     -0.504100
      4 C5          2.0830   -0.0510    1.3830 c3        1 CL5      0.106800
      5 N4          3.5260   -0.3760    1.4190 n4        1 CL5     -0.751000
      6 C3          4.1240   -0.3240    2.7790 c3        1 CL5     -0.087200
      7 C12         5.5840    0.3100    2.6960 c         1 CL5      0.931600
      8 O13         6.2580    0.2100    3.7320 o         1 CL5     -0.760300
      9 O14         5.8640    0.8400    1.5860 o         1 CL5     -0.760300
     10 H7         -0.4200    0.3490   -1.0220 h4        1 CL5      0.022200
     11 H61         1.7000   -1.0020   -0.5570 hc        1 CL5      0.086700
     12 H62         2.0030    0.7850   -0.6360 hc        1 CL5      0.086700
     13 H51         1.5260   -0.8080    2.0050 hx        1 CL5      0.105700
     14 H52         1.9370    0.9600    1.8630 hx        1 CL5      0.105700
     15 HN4         3.6870   -1.2960    1.0110 hn        1 CL5      0.453800
     16 H31         4.1880   -1.3560    3.2060 hx        1 CL5      0.087200
     17 H32         3.5070    0.3270    3.4480 hx        1 CL5      0.087200
     18 H42         4.0750    0.3200    0.8520 hn        1 CL5      0.453800
@<TRIPOS>BOND
     1    1    2 1   
     2    1    3 2   
     3    1   10 1   
     4    2    4 1   
     5    2   11 1   
     6    2   12 1   
     7    4    5 1   
     8    4   13 1   
     9    4   14 1   
    10    5    6 1   
    11    5   15 1   
    12    5   18 1   
    13    6    7 1   
    14    6   16 1   
    15    6   17 1   
    16    7    8 1   
    17    7    9 1   
@<TRIPOS>SUBSTRUCTURE
     1 CL5         1 TEMP              0 ****  ****    0 ROOT
