@<TRIPOS>MOLECULE
CL5
   18    17     1     0     0
SMALL
bcc


@<TRIPOS>ATOM
      1 C7          0.0390    0.1940   -0.0300 c         1 CL5      0.569900
      2 C6          1.5200   -0.0620   -0.0330 c3        1 CL5     -0.234400
      3 O8         -0.6280    0.2770    0.9980 o         1 CL5     -0.504100
      4 C5          2.0830   -0.0430    1.3810 c3        1 CL5      0.106800
      5 N4          3.5220   -0.3810    1.4330 ny        1 CL5     -0.751000
      6 C3          4.1180   -0.2880    2.7920 c3        1 CL5     -0.087200
      7 C12         5.5840    0.3290    2.6910 c         1 CL5      0.931600
      8 O13         6.2550    0.2580    3.7320 o         1 CL5     -0.760300
      9 O14         5.8720    0.8170    1.5640 o         1 CL5     -0.760300
     10 H7         -0.4100    0.2980   -1.0430 h4        1 CL5      0.022200
     11 H61         1.6960   -1.0560   -0.5260 hc        1 CL5      0.086700
     12 H62         2.0150    0.7240   -0.6650 hc        1 CL5      0.086700
     13 H51         1.5160   -0.7740    2.0280 hx        1 CL5      0.105700
     14 H52         1.9450    0.9850    1.8260 hx        1 CL5      0.105700
     15 HN4         3.6750   -1.3170    1.0580 hn        1 CL5      0.453800
     16 H31         4.1710   -1.3050    3.2540 hx        1 CL5      0.087200
     17 H32         3.5050    0.3920    3.4360 hx        1 CL5      0.087200
     18 H42         4.0800    0.2890    0.8440 hn        1 CL5      0.453800
@<TRIPOS>BOND
     1    1    2 1   
     2    1    3 2   
     3    1   10 1   
     4    2    4 1   
     5    2   11 1   
     6    2   12 1   
     7    4    5 1   
     8    4   13 1   
     9    4   14 1   
    10    5    6 1   
    11    5   15 1   
    12    5   18 1   
    13    6    7 1   
    14    6   16 1   
    15    6   17 1   
    16    7    8 1   
    17    7    9 1   
@<TRIPOS>SUBSTRUCTURE
     1 CL5         1 TEMP              0 ****  ****    0 ROOT
