@<TRIPOS>MOLECULE
CL5
   17    15     1     0     0
SMALL
bcc


@<TRIPOS>ATOM
      1 C7         -2.6500    1.3230    0.6730 c1        1 CL5      0.192000
      2 C6         -1.1690    1.3840    0.3590 c2        1 CL5     -0.233000
      3 O8         -3.0310    1.4350    1.8260 o         1 CL5     -0.333000
      4 C5         -0.6230   -0.0150    0.2480 c3        1 CL5     -0.082000
      5 N4          0.7730    0.0450   -0.1120 n3        1 CL5     -0.276000
      6 C3          1.2490   -1.3020   -0.4720 c3        1 CL5     -0.170000
      7 C12         2.6470   -1.2040   -1.0570 c2        1 CL5      0.304000
      8 O13         3.6420   -1.5800   -0.3800 o         1 CL5     -0.582500
      9 O14         2.8140   -0.7010   -2.1670 o         1 CL5     -0.582500
     10 H7         -3.2630    1.0670   -0.0030 ha        1 CL5      0.089000
     11 H61        -1.0350    1.8510   -0.4810 ha        1 CL5      0.110000
     12 H62        -0.6870    1.8790    1.1010 ha        1 CL5      0.110000
     13 H51        -0.7190   -0.4750    1.1140 h1        1 CL5      0.079000
     14 H52        -1.1340   -0.5200   -0.4610 h1        1 CL5      0.079000
     15 HN4         1.2780    0.3750    0.6270 hn        1 CL5      0.145000
     16 H31         0.6400   -1.6990   -1.1410 h1        1 CL5      0.074500
     17 H32         1.2700   -1.8640    0.3240 h1        1 CL5      0.074500
@<TRIPOS>BOND
     1    1    3 1   
     2    1   10 1   
     3    2    4 1   
     4    2   11 1   
     5    2   12 1   
     6    4    5 1   
     7    4   13 1   
     8    4   14 1   
     9    5    6 1   
    10    5   15 1   
    11    6    7 1   
    12    6   16 1   
    13    6   17 1   
    14    7    8 1   
    15    7    9 1   
@<TRIPOS>SUBSTRUCTURE
     1 CL5         1 TEMP              0 ****  ****    0 ROOT
