@<TRIPOS>MOLECULE
CL5
   17    16     1     0     0
SMALL
bcc


@<TRIPOS>ATOM
      1 C7          1.3650    0.0260    0.9000 c         1 CL5      0.573900
      2 C6          0.6570    1.2530    0.4270 c3        1 CL5     -0.204400
      3 O8          2.5410   -0.2300    0.6250 o         1 CL5     -0.572100
      4 C5         -0.4000    1.6880    1.4420 c3        1 CL5      0.154800
      5 N4         -1.1510    2.8590    1.0110 n3        1 CL5     -0.797200
      6 C3         -2.3100    3.0960    1.8580 c3        1 CL5      0.016800
      7 C12        -3.4670    2.0690    1.7490 c         1 CL5      0.884600
      8 O13        -3.4150    1.1920    0.8380 o         1 CL5     -0.847800
      9 O14        -4.4060    2.1730    2.5860 o         1 CL5     -0.847800
     10 H7          0.7560   -0.6730    1.5200 h4        1 CL5     -0.003800
     11 H61         0.1670    1.0060   -0.5540 hc        1 CL5      0.070700
     12 H62         1.3920    2.0790    0.2390 hc        1 CL5      0.070700
     13 H51         0.1140    1.9560    2.4080 h1        1 CL5      0.039700
     14 H52        -1.0830    0.8100    1.6460 h1        1 CL5      0.039700
     15 HN4        -1.4920    2.6810    0.0780 hn        1 CL5      0.349800
     16 H31        -2.7200    4.1040    1.5740 h1        1 CL5      0.035200
     17 H32        -1.9800    3.1450    2.9290 h1        1 CL5      0.035200
@<TRIPOS>BOND
     1    1    2 1   
     2    1    3 2   
     3    1   10 1   
     4    2    4 1   
     5    2   11 1   
     6    2   12 1   
     7    4    5 1   
     8    4   13 1   
     9    4   14 1   
    10    5    6 1   
    11    5   15 1   
    12    6    7 1   
    13    6   16 1   
    14    6   17 1   
    15    7    8 1   
    16    7    9 1   
@<TRIPOS>SUBSTRUCTURE
     1 CL5         1 TEMP              0 ****  ****    0 ROOT
