@<TRIPOS>MOLECULE
CL5
   18    17     1     0     0
SMALL
bcc


@<TRIPOS>ATOM
      1 C7          0.0330    0.1400   -0.0260 c         1 CL5      0.569900
      2 C6          1.5200   -0.0770   -0.0330 c3        1 CL5     -0.234400
      3 O8         -0.6360    0.1900    1.0030 o         1 CL5     -0.504100
      4 C5          2.0830   -0.0620    1.3810 c3        1 CL5      0.106800
      5 N4          3.5310   -0.3620    1.4280 n4        1 CL5     -0.751000
      6 C3          4.1250   -0.2720    2.7880 c3        1 CL5     -0.087200
      7 C12         5.5750    0.3840    2.6940 c         1 CL5      0.931600
      8 O13         6.2480    0.3160    3.7340 o         1 CL5     -0.760300
      9 O14         5.8500    0.8930    1.5740 o         1 CL5     -0.760300
     10 H7         -0.4190    0.2460   -1.0370 h4        1 CL5      0.022200
     11 H61         1.7220   -1.0590   -0.5400 hc        1 CL5      0.086700
     12 H62         1.9940    0.7310   -0.6550 hc        1 CL5      0.086700
     13 H51         1.5370   -0.8160    2.0180 hx        1 CL5      0.105700
     14 H52         1.9190    0.9560    1.8400 hx        1 CL5      0.105700
     15 HN4         3.7080   -1.2890    1.0400 hn        1 CL5      0.453800
     16 H31         3.4950    0.3840    3.4410 hx        1 CL5      0.087200
     17 H32         4.2040   -1.2930    3.2370 hx        1 CL5      0.087200
     18 H42         4.0700    0.3300    0.8480 hn        1 CL5      0.453800
@<TRIPOS>BOND
     1    1    2 1   
     2    1    3 2   
     3    1   10 1   
     4    2    4 1   
     5    2   11 1   
     6    2   12 1   
     7    4    5 1   
     8    4   13 1   
     9    4   14 1   
    10    5    6 1   
    11    5   15 1   
    12    5   18 1   
    13    6    7 1   
    14    6   16 1   
    15    6   17 1   
    16    7    8 1   
    17    7    9 1   
@<TRIPOS>SUBSTRUCTURE
     1 CL5         1 TEMP              0 ****  ****    0 ROOT
