@<TRIPOS>MOLECULE
CL6
   42    45     1     0     0
SMALL
bcc


@<TRIPOS>ATOM
      1 ClAY        0.0510    0.1570    0.0700 cl        1 CL6     -0.081400
      2 CAX         1.7480    0.0250    0.0470 ca        1 CL6      0.031400
      3 CAV         2.3740   -0.0320    1.2990 ca        1 CL6     -0.131000
      4 CAT         3.7570   -0.1480    1.3900 ca        1 CL6     -0.116000
      5 CAS         4.5160   -0.2060    0.2240 ca        1 CL6     -0.131000
      6 CAU         3.8930   -0.1460   -1.0210 ca        1 CL6     -0.115000
      7 CAW         2.5010   -0.0320   -1.1430 ca        1 CL6     -0.090300
      8 CAR         1.8260    0.0760   -2.5230 c3        1 CL6      0.238600
      9 CAC         0.8960   -1.1160   -2.7630 ca        1 CL6     -0.103300
     10 CAE         0.1290   -1.1530   -3.9380 ca        1 CL6     -0.107500
     11 CAF        -0.6910   -2.2440   -4.2160 ca        1 CL6     -0.134750
     12 CAD        -0.7470   -3.3210   -3.3320 ca        1 CL6     -0.116000
     13 CAB         0.0330   -3.3050   -2.1780 ca        1 CL6     -0.134750
     14 CAA         0.8580   -2.2150   -1.9000 ca        1 CL6     -0.107500
     15 NAO         2.8030    0.0570   -3.6210 na        1 CL6     -0.212900
     16 CAM         3.5830   -1.0570   -3.9900 cc        1 CL6      0.386400
     17 NAN         4.3410   -0.7930   -5.0730 nd        1 CL6     -0.668000
     18 CAQ         4.0420    0.5210   -5.4340 cd        1 CL6      0.279200
     19 CAP         3.0880    1.0610   -4.5520 cc        1 CL6     -0.246600
     20 CAL         1.0950    1.4210   -2.5150 ca        1 CL6     -0.103300
     21 CAK        -0.2820    1.5460   -2.7150 ca        1 CL6     -0.107500
     22 CAI        -0.8860    2.8050   -2.6900 ca        1 CL6     -0.134750
     23 CAG        -0.1270    3.9480   -2.4550 ca        1 CL6     -0.116000
     24 CAH         1.2460    3.8300   -2.2360 ca        1 CL6     -0.134750
     25 CAJ         1.8520    2.5770   -2.2630 ca        1 CL6     -0.107500
     26 HAV         1.7660    0.0170    2.2160 ha        1 CL6      0.150000
     27 HAT         4.2430   -0.1920    2.3760 ha        1 CL6      0.141000
     28 HAS         5.6110   -0.2980    0.2800 ha        1 CL6      0.141000
     29 HAU         4.5440   -0.1890   -1.9110 ha        1 CL6      0.155000
     30 HAE         0.1830   -0.3170   -4.6540 ha        1 CL6      0.144250
     31 HAF        -1.2900   -2.2560   -5.1390 ha        1 CL6      0.135500
     32 HAD        -1.3950   -4.1820   -3.5500 ha        1 CL6      0.134500
     33 HAB         0.0060   -4.1570   -1.4820 ha        1 CL6      0.135500
     34 HAA         1.4780   -2.2380   -0.9900 ha        1 CL6      0.144250
     35 HAM         3.5430   -2.0060   -3.4460 h5        1 CL6      0.065100
     36 HAQ         4.5160    0.9990   -6.2890 h4        1 CL6      0.041100
     37 HAP         2.6140    2.0400   -4.5340 h4        1 CL6      0.185000
     38 HAK        -0.9160    0.6590   -2.8660 ha        1 CL6      0.144250
     39 HAI        -1.9720    2.8870   -2.8520 ha        1 CL6      0.135500
     40 HAG        -0.6060    4.9380   -2.4370 ha        1 CL6      0.134500
     41 HAH         1.8520    4.7260   -2.0370 ha        1 CL6      0.135500
     42 HAJ         2.9340    2.4890   -2.0770 ha        1 CL6      0.144250
@<TRIPOS>BOND
     1    1    2 1   
     2    2    3 ar  
     3    2    7 ar  
     4    3    4 ar  
     5    3   26 1   
     6    4    5 ar  
     7    4   27 1   
     8    5    6 ar  
     9    5   28 1   
    10    6    7 ar  
    11    6   29 1   
    12    7    8 1   
    13    8    9 1   
    14    8   15 1   
    15    8   20 1   
    16    9   10 ar  
    17    9   14 ar  
    18   10   11 ar  
    19   10   30 1   
    20   11   12 ar  
    21   11   31 1   
    22   12   13 ar  
    23   12   32 1   
    24   13   14 ar  
    25   13   33 1   
    26   14   34 1   
    27   15   16 1   
    28   15   19 1   
    29   16   17 2   
    30   16   35 1   
    31   17   18 1   
    32   18   19 2   
    33   18   36 1   
    34   19   37 1   
    35   20   21 ar  
    36   20   25 ar  
    37   21   22 ar  
    38   21   38 1   
    39   22   23 ar  
    40   22   39 1   
    41   23   24 ar  
    42   23   40 1   
    43   24   25 ar  
    44   24   41 1   
    45   25   42 1   
@<TRIPOS>SUBSTRUCTURE
     1 CL6         1 TEMP              0 ****  ****    0 ROOT
