@<TRIPOS>MOLECULE
CL6
   42    36     1     0     0
SMALL
bcc


@<TRIPOS>ATOM
      1 CLAY       -1.3870    0.6350    2.2530 cl        1 CL6     -0.003000
      2 CAX         0.3100    0.2310    2.2770 c2        1 CL6     -0.047000
      3 CAV         1.0050    0.2320    3.4760 c2        1 CL6     -0.132000
      4 CAT         2.3600   -0.0590    3.4910 c1        1 CL6     -0.116000
      5 CAS         3.0190   -0.3520    2.3070 c1        1 CL6     -0.124833
      6 CAU         2.3240   -0.3540    1.1080 c1        1 CL6     -0.124833
      7 CAW         0.9690   -0.0620    1.0930 c1        1 CL6     -0.082000
      8 CAR         0.2250    0.0070   -0.2230 c3        1 CL6      0.236000
      9 CAC        -0.6750   -1.2020   -0.3580 c2        1 CL6     -0.096500
     10 CAE        -1.4390   -1.3730   -1.5020 c1        1 CL6     -0.103500
     11 CAF        -2.2770   -2.4710   -1.6180 c1        1 CL6     -0.124833
     12 CAD        -2.3500   -3.3980   -0.5900 c1        1 CL6     -0.124833
     13 CAB        -1.5860   -3.2270    0.5540 c1        1 CL6     -0.134500
     14 CAA        -0.7480   -2.1290    0.6700 c2        1 CL6     -0.112000
     15 NAO         1.1570    0.0240   -1.2930 n3        1 CL6     -0.169000
     16 CAM         1.3890    1.0650   -2.1290 c1        1 CL6     -0.094000
     17 NAN         2.2890    0.6630   -3.0590 n2        1 CL6     -0.146000
     18 CAQ         2.6100   -0.6070   -2.8020 c1        1 CL6     -0.180000
     19 CAP         1.9040   -1.0060   -1.6990 c1        1 CL6     -0.165000
     20 CAL        -0.6120    1.2650   -0.2640 c2        1 CL6     -0.096500
     21 CAK        -0.0030    2.5070   -0.1690 c2        1 CL6     -0.112000
     22 CAI        -0.7650    3.6610   -0.2520 c1        1 CL6     -0.134500
     23 CAG        -2.1370    3.5750   -0.4300 c1        1 CL6     -0.124833
     24 CAH        -2.7460    2.3340   -0.5260 c1        1 CL6     -0.124833
     25 CAJ        -1.9840    1.1790   -0.4430 c1        1 CL6     -0.103500
     26 HAV         0.5410    0.4390    4.3090 ha        1 CL6      0.150000
     27 HAT         2.8500   -0.0590    4.3350 ha        1 CL6      0.140000
     28 HAS         3.9740   -0.5580    2.3180 ha        1 CL6      0.139500
     29 HAU         2.7880   -0.5600    0.2750 ha        1 CL6      0.139500
     30 HAE        -1.3870   -0.7200   -2.2260 ha        1 CL6      0.146000
     31 HAF        -2.8150   -2.5920   -2.4230 ha        1 CL6      0.139500
     32 HAD        -2.9410   -4.1720   -0.6710 ha        1 CL6      0.139500
     33 HAB        -1.6380   -3.8800    1.2780 ha        1 CL6      0.136000
     34 HAA        -0.2100   -2.0090    1.4750 ha        1 CL6      0.142500
     35 HAM         0.9790    1.9490   -2.0720 DU        1 CL6      0.188333
     36 HAQ         3.2380   -1.1550   -3.3110 DU        1 CL6      0.188333
     37 HAP         1.9390   -1.8890   -1.2830 DU        1 CL6      0.188333
     38 HAK         0.9630    2.5670   -0.0430 ha        1 CL6      0.142500
     39 HAI        -0.3360    4.5350   -0.1850 ha        1 CL6      0.136000
     40 HAG        -2.6740    4.3880   -0.4890 ha        1 CL6      0.139500
     41 HAH        -3.7120    2.2730   -0.6510 ha        1 CL6      0.139500
     42 HAJ        -2.4130    0.3050   -0.5100 ha        1 CL6      0.146000
@<TRIPOS>BOND
     1    1    2 1   
     2    2    3 1   
     3    2    7 1   
     4    3    4 1   
     5    3   26 1   
     6    4   27 1   
     7    5    6 1   
     8    5   28 1   
     9    6   29 1   
    10    7    8 1   
    11    8    9 1   
    12    8   15 1   
    13    8   20 1   
    14    9   10 1   
    15    9   14 1   
    16   10   30 1   
    17   11   12 1   
    18   11   31 1   
    19   12   32 1   
    20   13   14 1   
    21   13   33 1   
    22   14   34 1   
    23   15   16 1   
    24   15   19 1   
    25   16   17 1   
    26   17   18 1   
    27   18   19 1   
    28   20   21 1   
    29   20   25 1   
    30   21   22 1   
    31   21   38 1   
    32   22   39 1   
    33   23   24 1   
    34   23   40 1   
    35   24   41 1   
    36   25   42 1   
@<TRIPOS>SUBSTRUCTURE
     1 CL6         1 TEMP              0 ****  ****    0 ROOT
