@<TRIPOS>MOLECULE
CL6
   42    45     1     0     0
SMALL
bcc


@<TRIPOS>ATOM
      1 CLAY        2.1550   -4.1650    3.7460 cl        1 CL6     -0.081400
      2 CAX         3.1640   -3.1840    4.7060 ca        1 CL6      0.031400
      3 CAV         4.2460   -3.8330    5.3160 ca        1 CL6     -0.131000
      4 CAT         5.1350   -3.1200    6.1140 ca        1 CL6     -0.116000
      5 CAS         4.9400   -1.7550    6.3020 ca        1 CL6     -0.131000
      6 CAU         3.8620   -1.1100    5.6980 ca        1 CL6     -0.115000
      7 CAW         2.9510   -1.8030    4.8870 ca        1 CL6     -0.090300
      8 CAR         1.7400   -1.0900    4.2570 c3        1 CL6      0.238600
      9 CAC         1.8260   -1.1270    2.7300 ca        1 CL6     -0.103300
     10 CAE         0.7680   -0.5940    1.9770 ca        1 CL6     -0.107500
     11 CAF         0.8320   -0.5640    0.5860 ca        1 CL6     -0.134750
     12 CAD         1.9600   -1.0520   -0.0740 ca        1 CL6     -0.116000
     13 CAB         3.0260   -1.5560    0.6670 ca        1 CL6     -0.134750
     14 CAA         2.9650   -1.5830    2.0610 ca        1 CL6     -0.107500
     15 NAO         1.6780    0.3310    4.6270 na        1 CL6     -0.212900
     16 CAM         2.5910    1.3170    4.2030 cc        1 CL6      0.386400
     17 NAN         2.2430    2.5390    4.6520 nd        1 CL6     -0.668000
     18 CAQ         1.0660    2.3550    5.3780 cd        1 CL6      0.279200
     19 CAP         0.6970    0.9970    5.3690 cc        1 CL6     -0.246600
     20 CAL         0.5090   -1.8140    4.8100 ca        1 CL6     -0.103300
     21 CAK        -0.4430   -2.4360    3.9990 ca        1 CL6     -0.107500
     22 CAI        -1.5410   -3.0840    4.5710 ca        1 CL6     -0.134750
     23 CAG        -1.6940   -3.1260    5.9540 ca        1 CL6     -0.116000
     24 CAH        -0.7370   -2.5240    6.7720 ca        1 CL6     -0.134750
     25 CAJ         0.3570   -1.8750    6.2050 ca        1 CL6     -0.107500
     26 HAV         4.3910   -4.9140    5.1620 ha        1 CL6      0.150000
     27 HAT         5.9820   -3.6350    6.5900 ha        1 CL6      0.141000
     28 HAS         5.6340   -1.1780    6.9310 ha        1 CL6      0.141000
     29 HAU         3.7520   -0.0300    5.8870 ha        1 CL6      0.155000
     30 HAE        -0.1180   -0.1850    2.4890 ha        1 CL6      0.144250
     31 HAF        -0.0080   -0.1470    0.0100 ha        1 CL6      0.135500
     32 HAD         2.0100   -1.0300   -1.1730 ha        1 CL6      0.134500
     33 HAB         3.9250   -1.9300    0.1550 ha        1 CL6      0.135500
     34 HAA         3.8310   -1.9700    2.6210 ha        1 CL6      0.144250
     35 HAM         3.4580    1.0820    3.5770 h5        1 CL6      0.065100
     36 HAQ         0.5560    3.1880    5.8580 h4        1 CL6      0.041100
     37 HAP        -0.1580    0.4920    5.8120 h4        1 CL6      0.185000
     38 HAK        -0.3320   -2.4520    2.9040 ha        1 CL6      0.144250
     39 HAI        -2.2840   -3.5670    3.9180 ha        1 CL6      0.135500
     40 HAG        -2.5600   -3.6360    6.4010 ha        1 CL6      0.134500
     41 HAH        -0.8430   -2.5630    7.8660 ha        1 CL6      0.135500
     42 HAJ         1.1150   -1.4120    6.8570 ha        1 CL6      0.144250
@<TRIPOS>BOND
     1    1    2 1   
     2    2    3 ar  
     3    2    7 ar  
     4    3    4 ar  
     5    3   26 1   
     6    4    5 ar  
     7    4   27 1   
     8    5    6 ar  
     9    5   28 1   
    10    6    7 ar  
    11    6   29 1   
    12    7    8 1   
    13    8    9 1   
    14    8   15 1   
    15    8   20 1   
    16    9   10 ar  
    17    9   14 ar  
    18   10   11 ar  
    19   10   30 1   
    20   11   12 ar  
    21   11   31 1   
    22   12   13 ar  
    23   12   32 1   
    24   13   14 ar  
    25   13   33 1   
    26   14   34 1   
    27   15   16 1   
    28   15   19 1   
    29   16   17 2   
    30   16   35 1   
    31   17   18 1   
    32   18   19 2   
    33   18   36 1   
    34   19   37 1   
    35   20   21 ar  
    36   20   25 ar  
    37   21   22 ar  
    38   21   38 1   
    39   22   23 ar  
    40   22   39 1   
    41   23   24 ar  
    42   23   40 1   
    43   24   25 ar  
    44   24   41 1   
    45   25   42 1   
@<TRIPOS>SUBSTRUCTURE
     1 CL6         1 TEMP              0 ****  ****    0 ROOT
