@<TRIPOS>MOLECULE
CL6
   42    45     1     0     0
SMALL
bcc


@<TRIPOS>ATOM
      1 CLAY        0.0530    0.1620    0.0720 cl        1 CL6     -0.081400
      2 CAX         1.7510    0.0260    0.0470 ca        1 CL6      0.031400
      3 CAV         2.3780   -0.0320    1.2980 ca        1 CL6     -0.131000
      4 CAT         3.7610   -0.1510    1.3880 ca        1 CL6     -0.116000
      5 CAS         4.5180   -0.2120    0.2210 ca        1 CL6     -0.131000
      6 CAU         3.8940   -0.1510   -1.0240 ca        1 CL6     -0.115000
      7 CAW         2.5020   -0.0330   -1.1440 ca        1 CL6     -0.090300
      8 CAR         1.8260    0.0750   -2.5230 c3        1 CL6      0.238600
      9 CAC         0.8940   -1.1150   -2.7620 ca        1 CL6     -0.103300
     10 CAE         0.1270   -1.1520   -3.9380 ca        1 CL6     -0.107500
     11 CAF        -0.6950   -2.2420   -4.2140 ca        1 CL6     -0.134750
     12 CAD        -0.7520   -3.3190   -3.3290 ca        1 CL6     -0.116000
     13 CAB         0.0280   -3.3020   -2.1750 ca        1 CL6     -0.134750
     14 CAA         0.8550   -2.2130   -1.8980 ca        1 CL6     -0.107500
     15 NAO         2.8010    0.0550   -3.6230 na        1 CL6     -0.212900
     16 CAM         3.5790   -1.0600   -3.9930 cc        1 CL6      0.386400
     17 NAN         4.3370   -0.7960   -5.0760 nd        1 CL6     -0.668000
     18 CAQ         4.0410    0.5190   -5.4350 cd        1 CL6      0.279200
     19 CAP         3.0890    1.0600   -4.5520 cc        1 CL6     -0.246600
     20 CAL         1.0960    1.4210   -2.5150 ca        1 CL6     -0.103300
     21 CAK        -0.2810    1.5480   -2.7150 ca        1 CL6     -0.107500
     22 CAI        -0.8840    2.8080   -2.6900 ca        1 CL6     -0.134750
     23 CAG        -0.1230    3.9500   -2.4540 ca        1 CL6     -0.116000
     24 CAH         1.2500    3.8300   -2.2340 ca        1 CL6     -0.134750
     25 CAJ         1.8540    2.5760   -2.2610 ca        1 CL6     -0.107500
     26 HAV         1.7710    0.0190    2.2160 ha        1 CL6      0.150000
     27 HAT         4.2480   -0.1950    2.3730 ha        1 CL6      0.141000
     28 HAS         5.6130   -0.3060    0.2750 ha        1 CL6      0.141000
     29 HAU         4.5430   -0.1960   -1.9140 ha        1 CL6      0.155000
     30 HAE         0.1820   -0.3170   -4.6540 ha        1 CL6      0.144250
     31 HAF        -1.2940   -2.2540   -5.1370 ha        1 CL6      0.135500
     32 HAD        -1.4020   -4.1790   -3.5460 ha        1 CL6      0.134500
     33 HAB        -0.0010   -4.1530   -1.4780 ha        1 CL6      0.135500
     34 HAA         1.4740   -2.2360   -0.9870 ha        1 CL6      0.144250
     35 HAM         3.5370   -2.0100   -3.4500 h5        1 CL6      0.065100
     36 HAQ         4.5160    0.9970   -6.2900 h4        1 CL6      0.041100
     37 HAP         2.6170    2.0410   -4.5320 h4        1 CL6      0.185000
     38 HAK        -0.9160    0.6620   -2.8680 ha        1 CL6      0.144250
     39 HAI        -1.9680    2.8920   -2.8520 ha        1 CL6      0.135500
     40 HAG        -0.6010    4.9400   -2.4360 ha        1 CL6      0.134500
     41 HAH         1.8570    4.7260   -2.0350 ha        1 CL6      0.135500
     42 HAJ         2.9360    2.4870   -2.0750 ha        1 CL6      0.144250
@<TRIPOS>BOND
     1    1    2 1   
     2    2    3 ar  
     3    2    7 ar  
     4    3    4 ar  
     5    3   26 1   
     6    4    5 ar  
     7    4   27 1   
     8    5    6 ar  
     9    5   28 1   
    10    6    7 ar  
    11    6   29 1   
    12    7    8 1   
    13    8    9 1   
    14    8   15 1   
    15    8   20 1   
    16    9   10 ar  
    17    9   14 ar  
    18   10   11 ar  
    19   10   30 1   
    20   11   12 ar  
    21   11   31 1   
    22   12   13 ar  
    23   12   32 1   
    24   13   14 ar  
    25   13   33 1   
    26   14   34 1   
    27   15   16 1   
    28   15   19 1   
    29   16   17 2   
    30   16   35 1   
    31   17   18 1   
    32   18   19 2   
    33   18   36 1   
    34   19   37 1   
    35   20   21 ar  
    36   20   25 ar  
    37   21   22 ar  
    38   21   38 1   
    39   22   23 ar  
    40   22   39 1   
    41   23   24 ar  
    42   23   40 1   
    43   24   25 ar  
    44   24   41 1   
    45   25   42 1   
@<TRIPOS>SUBSTRUCTURE
     1 CL6         1 TEMP              0 ****  ****    0 ROOT
