@<TRIPOS>MOLECULE
CL8
   42    39     1     0     0
SMALL
bcc


@<TRIPOS>ATOM
      1 C1          0.5390   -4.0670    2.7320 c3        1 CL8     -0.069000
      2 CL1         0.6260   -4.0290    4.4780 cl        1 CL8     -0.054500
      3 CL2        -0.7400   -5.1650    2.2320 cl        1 CL8     -0.054500
      4 C2          0.2570   -2.7080    2.2070 c2        1 CL8      0.301000
      5 O2         -0.4640   -1.9880    2.7910 o         1 CL8     -0.338000
      6 N2          0.8080   -2.3040    0.9280 n         1 CL8     -0.355000
      7 C3          0.3090   -1.1270    0.2650 c3        1 CL8      0.014000
      8 C4         -0.4720   -1.5260   -0.9540 c3        1 CL8     -0.021000
      9 C5          1.4770   -0.2430   -0.1500 c3        1 CL8      0.031000
     10 O5          2.6550   -1.0150   -0.2250 oh        1 CL8     -0.380000
     11 C6          1.6600    0.8700    0.8810 c2        1 CL8     -0.010000
     12 C7          0.8820    2.0210    0.8000 c2        1 CL8     -0.130000
     13 C8          1.1600    3.1060    1.6280 c1        1 CL8     -0.069000
     14 C9          2.2110    3.0400    2.5310 c1        1 CL8     -0.149000
     15 N9          2.4300    4.1160    3.4530 no        1 CL8      0.570000
     16 O9A         3.4130    4.0330    4.3560 o         1 CL8     -0.381500
     17 O9B         1.7750    5.1280    3.3660 o         1 CL8     -0.381500
     18 C10         2.9860    1.8920    2.6090 c1        1 CL8     -0.075000
     19 C11         2.7090    0.8060    1.7820 c1        1 CL8     -0.130000
     20 O4         -1.4340   -0.5100   -1.2540 os        1 CL8     -0.279000
     21 O15        -3.3980    2.7070   -4.6970 o         1 CL8     -0.595000
     22 C15        -3.9360    1.5700   -4.6900 c1        1 CL8      0.322000
     23 O16        -5.1610    1.4490   -4.9850 os        1 CL8     -0.572000
     24 C14        -3.1450    0.3640   -4.2300 c3        1 CL8     -0.218000
     25 C13        -3.4130    0.1230   -2.7890 c3        1 CL8     -0.138000
     26 C12        -2.4200   -0.9080   -2.2450 c2        1 CL8      0.327000
     27 O12        -2.3910   -2.0470   -2.7210 o         1 CL8     -0.374000
     28 H1          1.4080   -4.3840    2.3660 h2        1 CL8      0.136000
     29 H2          1.4940   -2.8150    0.5300 hn        1 CL8      0.244000
     30 H3         -0.2560   -0.6450    0.8590 h1        1 CL8      0.129000
     31 H41C        0.1300   -1.6300   -1.7020 h1        1 CL8      0.099500
     32 H42C       -0.9430   -2.3920   -0.7840 h1        1 CL8      0.099500
     33 H5          1.2870    0.1570   -1.0390 h1        1 CL8      0.201000
     34 HA          3.0670   -0.8640   -1.0260 ho        1 CL8      0.282000
     35 H7          0.1700    2.0970    0.1000 ha        1 CL8      0.159000
     36 H11         3.5110    0.3080    1.9190 ha        1 CL8      0.163000
     37 H8          0.6100    3.8920    1.5880 ha        1 CL8      0.160000
     38 H10         3.7980    1.8700    3.2170 ha        1 CL8      0.156000
     39 H141       -2.1570    0.5360   -4.3660 hc        1 CL8      0.085000
     40 H142       -3.4250   -0.4590   -4.7750 hc        1 CL8      0.085000
     41 H131       -4.3010   -0.2030   -2.6830 hc        1 CL8      0.105500
     42 H132       -3.3150    0.9440   -2.3050 hc        1 CL8      0.105500
@<TRIPOS>BOND
     1    1    2 1   
     2    1    3 1   
     3    1    4 1   
     4    1   28 1   
     5    4    5 1   
     6    4    6 1   
     7    6    7 1   
     8    6   29 1   
     9    7    8 1   
    10    7    9 1   
    11    7   30 1   
    12    8   20 1   
    13    8   31 1   
    14    8   32 1   
    15    9   10 1   
    16    9   11 1   
    17    9   33 1   
    18   10   34 1   
    19   11   12 1   
    20   11   19 1   
    21   12   13 1   
    22   12   35 1   
    23   13   37 1   
    24   14   15 1   
    25   14   18 1   
    26   15   16 1   
    27   15   17 1   
    28   18   38 1   
    29   19   36 1   
    30   20   26 1   
    31   21   22 1   
    32   22   24 1   
    33   24   25 1   
    34   24   39 1   
    35   24   40 1   
    36   25   26 1   
    37   25   41 1   
    38   25   42 1   
    39   26   27 1   
@<TRIPOS>SUBSTRUCTURE
     1 CL8         1 TEMP              0 ****  ****    0 ROOT
