@<TRIPOS>MOLECULE
CL8
   42    42     1     0     0
SMALL
bcc


@<TRIPOS>ATOM
      1 C1         -1.6190    1.7370    0.2380 c3        1 CL8      0.062100
      2 CL1        -2.5780    2.4930   -1.0290 cl        1 CL8     -0.134400
      3 CL2        -0.5880    2.9180    1.0090 cl        1 CL8     -0.134400
      4 C2         -0.8420    0.5350   -0.3270 c         1 CL8      0.651100
      5 O2          0.3900    0.4360   -0.2000 o         1 CL8     -0.570100
      6 N2         -1.6170   -0.4320   -0.9130 n         1 CL8     -0.546900
      7 C3         -1.0710   -1.6580   -1.4560 c3        1 CL8      0.066700
      8 C4         -0.2800   -1.4130   -2.7630 c3        1 CL8      0.118400
      9 C5         -2.1980   -2.7010   -1.7130 c3        1 CL8      0.144400
     10 O5         -3.1050   -2.1950   -2.6840 oh        1 CL8     -0.631800
     11 C6         -2.9490   -3.0090   -0.4510 ca        1 CL8     -0.028300
     12 C7         -2.4580   -4.0130    0.3950 ca        1 CL8     -0.128000
     13 C8         -3.1190   -4.3090    1.5840 ca        1 CL8     -0.083000
     14 C9         -4.2850   -3.6000    1.9210 ca        1 CL8     -0.189200
     15 N9         -4.9900   -3.8980    3.1880 no        1 CL8      0.312200
     16 O9A        -5.9920   -3.2850    3.4640 o         1 CL8     -0.232000
     17 O9B        -4.5540   -4.7410    3.9280 o         1 CL8     -0.232000
     18 C10        -4.7980   -2.6100    1.0640 ca        1 CL8     -0.083000
     19 C11        -4.1230   -2.3240   -0.1170 ca        1 CL8     -0.128000
     20 O4          0.6000   -2.5040   -3.0140 os        1 CL8     -0.419900
     21 O15        -0.2390   -4.9780   -1.4820 o         1 CL8     -0.849300
     22 C15         0.0390   -6.0690   -2.0730 c         1 CL8      0.914600
     23 O16        -0.0600   -7.1990   -1.5280 o         1 CL8     -0.849300
     24 C14         0.5030   -5.9950   -3.5340 c3        1 CL8     -0.198400
     25 C13         1.1470   -4.6690   -3.8660 c3        1 CL8     -0.095400
     26 C12         0.1560   -3.5500   -3.7820 c         1 CL8      0.683100
     27 O12        -0.9390   -3.4280   -4.3460 o         1 CL8     -0.608000
     28 H1         -2.3390    1.3910    1.0230 h2        1 CL8      0.108700
     29 H2         -2.5740   -0.2510   -1.1160 hn        1 CL8      0.325500
     30 H3         -0.3540   -2.1090   -0.7040 h1        1 CL8      0.114700
     31 H41C        0.4190   -0.5410   -2.6330 h1        1 CL8      0.064700
     32 H42C       -0.9730   -1.2420   -3.6260 h1        1 CL8      0.064700
     33 H5         -1.6870   -3.6470   -2.0820 h1        1 CL8      0.155700
     34 HA         -2.8260   -2.5700   -3.5330 ho        1 CL8      0.435000
     35 H7         -1.5480   -4.5860    0.0960 ha        1 CL8      0.191500
     36 H11        -4.5250   -1.5690   -0.8110 ha        1 CL8      0.191500
     37 H8         -2.7320   -5.1000    2.2500 ha        1 CL8      0.161000
     38 H10        -5.7230   -2.0720    1.3260 ha        1 CL8      0.161000
     39 H141       -0.3900   -6.1650   -4.1870 hc        1 CL8      0.046200
     40 H142        1.2390   -6.8170   -3.7240 hc        1 CL8      0.046200
     41 H131        1.9870   -4.4680   -3.1500 hc        1 CL8      0.061200
     42 H132        1.5540   -4.6760   -4.9120 hc        1 CL8      0.061200
@<TRIPOS>BOND
     1    1    2 1   
     2    1    3 1   
     3    1    4 1   
     4    1   28 1   
     5    4    5 2   
     6    4    6 1   
     7    6    7 1   
     8    6   29 1   
     9    7    8 1   
    10    7    9 1   
    11    7   30 1   
    12    8   20 1   
    13    8   31 1   
    14    8   32 1   
    15    9   10 1   
    16    9   11 1   
    17    9   33 1   
    18   10   34 1   
    19   11   12 ar  
    20   11   19 ar  
    21   12   13 ar  
    22   12   35 1   
    23   13   14 ar  
    24   13   37 1   
    25   14   15 1   
    26   14   18 ar  
    27   15   16 1   
    28   15   17 1   
    29   18   19 ar  
    30   18   38 1   
    31   19   36 1   
    32   20   26 1   
    33   21   22 1   
    34   22   23 1   
    35   22   24 1   
    36   24   25 1   
    37   24   39 1   
    38   24   40 1   
    39   25   26 1   
    40   25   41 1   
    41   25   42 1   
    42   26   27 2   
@<TRIPOS>SUBSTRUCTURE
     1 CL8         1 TEMP              0 ****  ****    0 ROOT
