@<TRIPOS>MOLECULE
CL8
   43    43     1     0     0
SMALL
bcc


@<TRIPOS>ATOM
      1 C1          0.4120   -0.9620    0.4910 c3        1 CL8      0.063100
      2 Cl1         1.0080   -1.4380    2.0520 cl        1 CL8     -0.112400
      3 Cl2        -0.3780    0.6150    0.5740 cl        1 CL8     -0.112400
      4 C2         -0.5710   -1.9780   -0.0690 c         1 CL8      0.610100
      5 O2         -1.0200   -2.9760    0.4730 o         1 CL8     -0.447100
      6 N2         -1.1340   -1.5680   -1.4220 ny        1 CL8     -0.671800
      7 C3         -1.9980   -2.5950   -2.0740 c3        1 CL8      0.109500
      8 C4         -1.8180   -2.6150   -3.6130 c3        1 CL8      0.118400
      9 C5         -3.5140   -2.3820   -1.8160 c3        1 CL8      0.170400
     10 O5         -3.7900   -1.0260   -2.1470 oh        1 CL8     -0.616800
     11 C6         -3.9410   -2.7320   -0.4220 ca        1 CL8     -0.108300
     12 C7         -4.0020   -4.0800   -0.0510 ca        1 CL8     -0.122500
     13 C8         -4.4340   -4.4440    1.2220 ca        1 CL8     -0.058500
     14 C9         -4.8170   -3.4410    2.1270 ca        1 CL8     -0.160200
     15 N9         -5.2940   -3.8190    3.4860 no        1 CL8      0.312200
     16 O9A        -5.6000   -2.9470    4.2540 o         1 CL8     -0.199500
     17 O9B        -5.3670   -4.9830    3.7720 o         1 CL8     -0.199500
     18 C10        -4.7540   -2.0860    1.7680 ca        1 CL8     -0.058500
     19 C11        -4.3160   -1.7420    0.4920 ca        1 CL8     -0.122500
     20 O4         -0.4470   -2.5850   -3.9650 os        1 CL8     -0.445900
     21 O15         1.0090   -3.1970   -1.0530 o         1 CL8     -0.844300
     22 C15         1.6700   -2.6900   -2.0230 c         1 CL8      0.894600
     23 O16         1.6380   -1.4290   -2.1920 o         1 CL8     -0.844300
     24 C14         2.3870   -3.6010   -2.9950 c3        1 CL8     -0.159400
     25 C13         1.6930   -3.5700   -4.3460 c3        1 CL8     -0.109400
     26 C12         0.2170   -3.7770   -4.1950 c         1 CL8      0.651100
     27 O12        -0.4640   -4.7980   -4.2630 o         1 CL8     -0.530000
     28 H1          1.3000   -0.8730   -0.2090 h2        1 CL8      0.203700
     29 H2         -1.6610   -0.6960   -1.3190 hn        1 CL8      0.485800
     30 H3         -1.6890   -3.6030   -1.6540 hx        1 CL8      0.148700
     31 H41C       -2.2500   -1.6830   -4.0690 h1        1 CL8      0.090700
     32 H42C       -2.3280   -3.5300   -4.0160 h1        1 CL8      0.090700
     33 H5         -4.0670   -3.0590   -2.5350 h1        1 CL8      0.076700
     34 HA         -4.7420   -0.8950   -2.0530 ho        1 CL8      0.433000
     35 H7         -3.6930   -4.8640   -0.7610 ha        1 CL8      0.153000
     36 H11        -4.2610   -0.6780    0.2090 ha        1 CL8      0.153000
     37 H8         -4.4720   -5.5080    1.5180 ha        1 CL8      0.178500
     38 H10        -5.0470   -1.3030    2.4900 ha        1 CL8      0.178500
     39 H141        3.4430   -3.2510   -3.1210 hc        1 CL8      0.072700
     40 H142        2.4000   -4.6430   -2.5860 hc        1 CL8      0.072700
     41 H131        2.0920   -4.3810   -5.0080 hc        1 CL8      0.085700
     42 H132        1.8700   -2.5720   -4.8310 hc        1 CL8      0.085700
     43 H22        -0.3000   -1.3870   -2.0420 hn        1 CL8      0.485800
@<TRIPOS>BOND
     1    1    2 1   
     2    1    3 1   
     3    1    4 1   
     4    1   28 1   
     5    4    5 2   
     6    4    6 1   
     7    6    7 1   
     8    6   29 1   
     9    6   43 1   
    10    7    8 1   
    11    7    9 1   
    12    7   30 1   
    13    8   20 1   
    14    8   31 1   
    15    8   32 1   
    16    9   10 1   
    17    9   11 1   
    18    9   33 1   
    19   10   34 1   
    20   11   12 ar  
    21   11   19 ar  
    22   12   13 ar  
    23   12   35 1   
    24   13   14 ar  
    25   13   37 1   
    26   14   15 1   
    27   14   18 ar  
    28   15   16 1   
    29   15   17 1   
    30   18   19 ar  
    31   18   38 1   
    32   19   36 1   
    33   20   26 1   
    34   21   22 1   
    35   22   23 1   
    36   22   24 1   
    37   24   25 1   
    38   24   39 1   
    39   24   40 1   
    40   25   26 1   
    41   25   41 1   
    42   25   42 1   
    43   26   27 2   
@<TRIPOS>SUBSTRUCTURE
     1 CL8         1 TEMP              0 ****  ****    0 ROOT
