@<TRIPOS>MOLECULE
CL8
   43    43     1     0     0
SMALL
bcc


@<TRIPOS>ATOM
      1 C1          1.7360    0.3300   -0.7590 c3        1 CL8      0.082100
      2 CL1         2.8530    1.0330    0.3860 cl        1 CL8     -0.102400
      3 CL2         0.3240    1.3330   -1.0010 cl        1 CL8     -0.102400
      4 C2          1.3110   -1.0420   -0.2820 c         1 CL8      0.653100
      5 O2          0.6710   -1.3510    0.7100 o         1 CL8     -0.440000
      6 N2         -1.3440   -1.9520   -1.3100 n3        1 CL8     -0.924800
      7 C3         -2.2440   -2.6470   -2.1950 c3        1 CL8      0.152500
      8 C4         -1.9500   -2.3430   -3.6800 c3        1 CL8      0.145400
      9 C5         -3.7600   -2.3740   -1.9640 c3        1 CL8      0.139400
     10 O5         -3.9470   -0.9720   -2.0890 oh        1 CL8     -0.598800
     11 C6         -4.1890   -2.8880   -0.6210 ca        1 CL8     -0.091300
     12 C7         -4.5940   -4.2210   -0.4890 ca        1 CL8     -0.131500
     13 C8         -4.9920   -4.7200    0.7480 ca        1 CL8     -0.063500
     14 C9         -4.9860   -3.8680    1.8630 ca        1 CL8     -0.171200
     15 N9         -5.4210   -4.3880    3.1870 no        1 CL8      0.313200
     16 O9A        -5.4280   -3.6450    4.1310 o         1 CL8     -0.206000
     17 O9B        -5.7590   -5.5380    3.2760 o         1 CL8     -0.206000
     18 C10        -4.5730   -2.5310    1.7460 ca        1 CL8     -0.063500
     19 C11        -4.1760   -2.0520    0.5000 ca        1 CL8     -0.131500
     20 O4         -0.5530   -2.4410   -3.9670 os        1 CL8     -0.421900
     21 O15         1.7810   -1.9980   -1.1550 os        1 CL8     -0.485200
     22 C15         1.4070   -3.3310   -1.0810 c         1 CL8      0.658100
     23 O16         0.7580   -3.7210   -0.1210 o         1 CL8     -0.461000
     24 C14         1.9370   -4.1200   -2.2420 c3        1 CL8     -0.122400
     25 C13         1.5260   -3.5580   -3.5880 c3        1 CL8     -0.125400
     26 C12         0.0410   -3.6580   -3.7720 c         1 CL8      0.636100
     27 O12        -0.6590   -4.6720   -3.7740 o         1 CL8     -0.539000
     28 H1          2.2660    0.2650   -1.7440 h2        1 CL8      0.126700
     29 H2         -1.4060   -2.3030   -0.3730 hn        1 CL8      0.374300
     30 H3         -2.0910   -3.7590   -2.0360 h1        1 CL8      0.086700
     31 H41C       -2.5210   -3.0580   -4.3270 h1        1 CL8      0.073200
     32 H42C       -2.1930   -1.2780   -3.9360 h1        1 CL8      0.073200
     33 H5         -4.3500   -2.8980   -2.7700 h1        1 CL8      0.054700
     34 HA         -4.8780   -0.7930   -1.9070 ho        1 CL8      0.412000
     35 H7         -4.5940   -4.8860   -1.3680 ha        1 CL8      0.155500
     36 H11        -3.8440   -1.0060    0.3950 ha        1 CL8      0.155500
     37 H8         -5.3090   -5.7720    0.8520 ha        1 CL8      0.174500
     38 H10        -4.5600   -1.8710    2.6310 ha        1 CL8      0.174500
     39 H141        1.5610   -5.1750   -2.1330 hc        1 CL8      0.095700
     40 H142        3.0580   -4.1270   -2.1740 hc        1 CL8      0.095700
     41 H131        2.0210   -4.1500   -4.4040 hc        1 CL8      0.091200
     42 H132        1.8480   -2.4860   -3.6760 hc        1 CL8      0.091200
     43 H22        -1.5200   -0.9660   -1.3190 hn        1 CL8      0.374300
@<TRIPOS>BOND
     1    1    2 1   
     2    1    3 1   
     3    1    4 1   
     4    1   28 1   
     5    4    5 2   
     6    4   21 1   
     7    6    7 1   
     8    6   29 1   
     9    6   43 1   
    10    7    8 1   
    11    7    9 1   
    12    7   30 1   
    13    8   20 1   
    14    8   31 1   
    15    8   32 1   
    16    9   10 1   
    17    9   11 1   
    18    9   33 1   
    19   10   34 1   
    20   11   12 ar  
    21   11   19 ar  
    22   12   13 ar  
    23   12   35 1   
    24   13   14 ar  
    25   13   37 1   
    26   14   15 1   
    27   14   18 ar  
    28   15   16 1   
    29   15   17 1   
    30   18   19 ar  
    31   18   38 1   
    32   19   36 1   
    33   20   26 1   
    34   21   22 1   
    35   22   23 2   
    36   22   24 1   
    37   24   25 1   
    38   24   39 1   
    39   24   40 1   
    40   25   26 1   
    41   25   41 1   
    42   25   42 1   
    43   26   27 2   
@<TRIPOS>SUBSTRUCTURE
     1 CL8         1 TEMP              0 ****  ****    0 ROOT
