@<TRIPOS>MOLECULE
CL8
   42    42     1     0     0
SMALL
bcc


@<TRIPOS>ATOM
      1 C1         37.0510   37.6710  -10.6830 c3        1 CL8      0.056100
      2 CL1        36.2930   36.7950  -11.9980 cl        1 CL8     -0.147900
      3 CL2        36.0010   38.9340  -10.0720 cl        1 CL8     -0.147900
      4 C2         38.4060   38.2530  -11.1180 c         1 CL8      0.659100
      5 O2         39.4250   37.8480  -10.5320 o         1 CL8     -0.560100
      6 N2         38.3910   39.1430  -12.1590 n         1 CL8     -0.538900
      7 C3         39.5530   39.9030  -12.5700 c3        1 CL8      0.051700
      8 C4         39.3630   41.4290  -12.3660 c3        1 CL8      0.153400
      9 C5         39.9490   39.6380  -14.0520 c3        1 CL8      0.162400
     10 O5         38.8810   39.8810  -14.9470 oh        1 CL8     -0.598800
     11 C6         40.5680   38.2780  -14.2070 ca        1 CL8     -0.057300
     12 C7         41.8770   38.0950  -13.7370 ca        1 CL8     -0.130000
     13 C8         42.5050   36.8580  -13.8600 ca        1 CL8     -0.074500
     14 C9         41.8160   35.7950  -14.4690 ca        1 CL8     -0.190200
     15 N9         42.4690   34.4740  -14.6110 no        1 CL8      0.313200
     16 O9A        41.8630   33.5690  -15.1310 o         1 CL8     -0.233500
     17 O9B        43.5930   34.3170  -14.2110 o         1 CL8     -0.233500
     18 C10        40.5090   35.9700  -14.9530 ca        1 CL8     -0.074500
     19 C11        39.8980   37.2120  -14.8180 ca        1 CL8     -0.130000
     20 O4         40.0870   41.7740  -11.1870 os        1 CL8     -0.456900
     21 O15        42.1590   41.0510  -12.7280 o         1 CL8     -0.852300
     22 C15        43.2390   41.0210  -12.0520 c         1 CL8      0.909600
     23 O16        44.0940   40.1060  -12.1950 o         1 CL8     -0.852300
     24 C14        43.4790   42.1420  -11.0400 c3        1 CL8     -0.183400
     25 C13        42.2000   42.5420  -10.3340 c3        1 CL8     -0.108400
     26 C12        41.0870   42.7180  -11.3230 c         1 CL8      0.695100
     27 O12        40.9000   43.6330  -12.1280 o         1 CL8     -0.571000
     28 H1         37.2150   36.9420   -9.8500 h2        1 CL8      0.123700
     29 H2         37.5100   39.4850  -12.4680 hn        1 CL8      0.305500
     30 H3         40.4500   39.5920  -11.9420 h1        1 CL8      0.150700
     31 H41C       39.7550   41.9900  -13.2550 h1        1 CL8      0.059700
     32 H42C       38.2950   41.7150  -12.1770 h1        1 CL8      0.059700
     33 H5         40.7320   40.4180  -14.3250 h1        1 CL8      0.159700
     34 HA         38.1980   39.2200  -14.7910 ho        1 CL8      0.385000
     35 H7         42.4260   38.9510  -13.2650 ha        1 CL8      0.187500
     36 H11        38.8780   37.3430  -15.2090 ha        1 CL8      0.187500
     37 H8         43.5330   36.7240  -13.4820 ha        1 CL8      0.163500
     38 H10        39.9750   35.1340  -15.4320 ha        1 CL8      0.163500
     39 H141       44.2340   41.8120  -10.2840 hc        1 CL8      0.045200
     40 H142       43.8960   43.0180  -11.5990 hc        1 CL8      0.045200
     41 H131       41.9110   41.7520   -9.5930 hc        1 CL8      0.052700
     42 H132       42.3400   43.5120   -9.7890 hc        1 CL8      0.052700
@<TRIPOS>BOND
     1    1    2 1   
     2    1    3 1   
     3    1    4 1   
     4    1   28 1   
     5    4    5 2   
     6    4    6 1   
     7    6    7 1   
     8    6   29 1   
     9    7    8 1   
    10    7    9 1   
    11    7   30 1   
    12    8   20 1   
    13    8   31 1   
    14    8   32 1   
    15    9   10 1   
    16    9   11 1   
    17    9   33 1   
    18   10   34 1   
    19   11   12 ar  
    20   11   19 ar  
    21   12   13 ar  
    22   12   35 1   
    23   13   14 ar  
    24   13   37 1   
    25   14   15 1   
    26   14   18 ar  
    27   15   16 1   
    28   15   17 1   
    29   18   19 ar  
    30   18   38 1   
    31   19   36 1   
    32   20   26 1   
    33   21   22 1   
    34   22   23 1   
    35   22   24 1   
    36   24   25 1   
    37   24   39 1   
    38   24   40 1   
    39   25   26 1   
    40   25   41 1   
    41   25   42 1   
    42   26   27 2   
@<TRIPOS>SUBSTRUCTURE
     1 CL8         1 TEMP              0 ****  ****    0 ROOT
