@<TRIPOS>MOLECULE
CL9
   31    33     1     0     0
SMALL
bcc


@<TRIPOS>ATOM
      1 C2          0.2690    0.9160    0.4700 ca        1 CL9      0.782000
      2 C4          2.2890    0.0970    1.0950 ca        1 CL9      0.458800
      3 C5          1.7500   -0.2730    2.3980 ca        1 CL9     -0.228200
      4 C6          0.3680    0.0280    2.6390 ca        1 CL9      0.769200
      5 C8          3.8410   -0.8860    2.4020 cc        1 CL9      0.422700
      6 Cl         -0.7230    1.6720   -0.7300 cl        1 CL9     -0.121000
      7 N3          1.5640    0.7000    0.1070 nb        1 CL9     -0.730000
      8 N9          3.6340   -0.2980    1.1290 na        1 CL9     -0.293000
      9 N7          2.7460   -0.8790    3.1770 nd        1 CL9     -0.552100
     10 N6         -0.1980   -0.2490    3.8560 nv        1 CL9     -0.953500
     11 N1         -0.3700    0.6240    1.6450 nb        1 CL9     -0.785000
     12 C1'         4.5770   -0.2330    0.0280 c3        1 CL9      0.261800
     13 C2'         4.8450    1.1930   -0.5050 c3        1 CL9     -0.150400
     14 C3'         6.2330    1.5690    0.0290 c3        1 CL9      0.115100
     15 O3'         7.1490    1.8690   -1.0080 oh        1 CL9     -0.588800
     16 C4'         6.7580    0.3020    0.7390 c3        1 CL9      0.132100
     17 O4'         5.8400   -0.7610    0.4490 os        1 CL9     -0.388600
     18 C5'         6.8640    0.5370    2.2450 c3        1 CL9      0.105400
     19 O5'         7.1700   -0.7070    2.8500 oh        1 CL9     -0.589800
     20 H8          4.8310   -1.2920    2.6700 h5        1 CL9      0.103800
     21 HN6         0.3250   -0.7800    4.5080 hn        1 CL9      0.449300
     22 HN6A       -1.1700   -0.1240    3.9970 hn        1 CL9      0.449300
     23 H1'         4.2150   -0.9280   -0.7870 h2        1 CL9      0.103700
     24 H2'         4.0690    1.9270   -0.1820 hc        1 CL9      0.086200
     25 H2'A        4.8510    1.1600   -1.6240 hc        1 CL9      0.086200
     26 H3'         6.1720    2.4400    0.7370 h1        1 CL9      0.052700
     27 HO3'        6.7870    2.6200   -1.4950 ho        1 CL9      0.410000
     28 H4'         7.7420   -0.0440    0.3190 h1        1 CL9      0.114700
     29 H5'         7.6770    1.2860    2.4420 h1        1 CL9      0.035200
     30 H5'A        5.8920    0.9230    2.6560 h1        1 CL9      0.035200
     31 HO5'        7.3920   -0.5180    3.7700 ho        1 CL9      0.405000
@<TRIPOS>BOND
     1    1    6 1   
     2    1    7 ar  
     3    1   11 ar  
     4    2    3 ar  
     5    2    7 ar  
     6    2    8 1   
     7    3    4 ar  
     8    3    9 1   
     9    4   10 1   
    10    4   11 ar  
    11    5    8 1   
    12    5    9 2   
    13    5   20 1   
    14    8   12 1   
    15   10   21 1   
    16   10   22 1   
    17   12   13 1   
    18   12   17 1   
    19   12   23 1   
    20   13   14 1   
    21   13   24 1   
    22   13   25 1   
    23   14   15 1   
    24   14   16 1   
    25   14   26 1   
    26   15   27 1   
    27   16   17 1   
    28   16   18 1   
    29   16   28 1   
    30   18   19 1   
    31   18   29 1   
    32   18   30 1   
    33   19   31 1   
@<TRIPOS>SUBSTRUCTURE
     1 CL9         1 TEMP              0 ****  ****    0 ROOT
