@<TRIPOS>MOLECULE
CL9
   31    33     1     0     0
SMALL
bcc


@<TRIPOS>ATOM
      1 C2         -2.7650   -0.6090   -1.0370 ca        1 CL9      0.784000
      2 C4         -0.8750    0.1550   -0.0410 ca        1 CL9      0.461800
      3 C5         -1.4390    1.4980    0.0240 ca        1 CL9     -0.231200
      4 C6         -2.7570    1.6780   -0.5140 ca        1 CL9      0.773200
      5 C8          0.5360    1.6140    0.9320 cc        1 CL9      0.417700
      6 CL         -3.6570   -1.9240   -1.7220 cl        1 CL9     -0.118000
      7 N3         -1.5240   -0.9240   -0.5720 nb        1 CL9     -0.729000
      8 N9          0.3960    0.2600    0.5410 na        1 CL9     -0.289000
      9 N7         -0.5300    2.3720    0.6360 nd        1 CL9     -0.547100
     10 N6         -3.3390    2.9170   -0.5180 nh        1 CL9     -0.955500
     11 N1         -3.4170    0.5950   -1.0420 nb        1 CL9     -0.786000
     12 C1'         1.3220   -0.8330    0.7790 c3        1 CL9      0.266800
     13 C2'         1.7340   -1.6110   -0.4910 c3        1 CL9     -0.148400
     14 C3'         3.2100   -1.2660   -0.7250 c3        1 CL9      0.123100
     15 O3'         4.0280   -2.4180   -0.6160 oh        1 CL9     -0.586800
     16 C4'         3.6020   -0.3250    0.4310 c3        1 CL9      0.132100
     17 O4'         2.5220   -0.3230    1.3770 os        1 CL9     -0.413600
     18 C5'         3.8360    1.1130   -0.0390 c3        1 CL9      0.107400
     19 O5'         4.8960    1.0790   -0.9770 oh        1 CL9     -0.595800
     20 H8          1.4520    1.9540    1.4360 h5        1 CL9      0.083800
     21 HN6        -2.8750    3.6610   -0.0580 hn        1 CL9      0.451800
     22 HN6A       -4.2700    3.0370   -0.8310 hn        1 CL9      0.451800
     23 H1'         0.8630   -1.5110    1.5600 h2        1 CL9      0.101700
     24 H2'         1.6150   -2.7060   -0.2950 hc        1 CL9      0.086700
     25 H2'A        1.1110   -1.3470   -1.3790 hc        1 CL9      0.086700
     26 H3'         3.3720   -0.7650   -1.7160 h1        1 CL9      0.071700
     27 HO3'        3.9210   -2.9130   -1.4370 ho        1 CL9      0.408000
     28 H4'         4.4960   -0.7150    0.9890 h1        1 CL9      0.111700
     29 H5'         2.9080    1.5240   -0.5210 h1        1 CL9      0.035700
     30 H5'A        4.1030    1.7530    0.8430 h1        1 CL9      0.035700
     31 HO5'        5.1350    1.9970   -1.1530 ho        1 CL9      0.409000
@<TRIPOS>BOND
     1    1    6 1   
     2    1    7 ar  
     3    1   11 ar  
     4    2    3 ar  
     5    2    7 ar  
     6    2    8 1   
     7    3    4 ar  
     8    3    9 1   
     9    4   10 1   
    10    4   11 ar  
    11    5    8 1   
    12    5    9 2   
    13    5   20 1   
    14    8   12 1   
    15   10   21 1   
    16   10   22 1   
    17   12   13 1   
    18   12   17 1   
    19   12   23 1   
    20   13   14 1   
    21   13   24 1   
    22   13   25 1   
    23   14   15 1   
    24   14   16 1   
    25   14   26 1   
    26   15   27 1   
    27   16   17 1   
    28   16   18 1   
    29   16   28 1   
    30   18   19 1   
    31   18   29 1   
    32   18   30 1   
    33   19   31 1   
@<TRIPOS>SUBSTRUCTURE
     1 CL9         1 TEMP              0 ****  ****    0 ROOT
