@<TRIPOS>MOLECULE
CL9
   31    26     1     0     0
SMALL
bcc


@<TRIPOS>ATOM
      1 C2         -3.9170   -0.1820   -1.2010 c1        1 CL9      0.090000
      2 C4         -1.8520   -0.0800   -0.0760 c1        1 CL9     -0.085000
      3 C5         -2.5140   -0.0020    1.1060 c1        1 CL9     -0.085000
      4 C6         -3.8840   -0.0140    1.1260 c1        1 CL9      0.248000
      5 C8         -0.3450    0.0520    1.5390 c1        1 CL9     -0.033000
      6 CL         -5.0670    0.0670   -2.4770 cl        1 CL9      0.045000
      7 N3         -2.5400   -0.1700   -1.2230 n1        1 CL9     -0.204000
      8 N9         -0.5030   -0.0470    0.1910 n1        1 CL9     -0.167500
      9 N7         -1.5830    0.0800    2.1090 n1        1 CL9     -0.167500
     10 N6         -4.9150    0.0950    2.0810 n3        1 CL9     -0.351000
     11 N1         -4.5730   -0.1030   -0.0270 n2        1 CL9     -0.259000
     12 C1'         0.3800   -0.3140   -0.7810 c2        1 CL9      0.170000
     13 C2'         1.0430    0.9740   -1.2700 c3        1 CL9     -0.229000
     14 C3'         2.2750    0.9230   -0.8010 c3        1 CL9      0.004000
     15 O3'         3.1950    1.5430   -1.7420 oh        1 CL9     -0.316000
     16 C4'         2.6260   -0.6320   -0.6390 c3        1 CL9      0.021000
     17 O4'         1.5420   -1.2100   -0.2330 os        1 CL9     -0.245000
     18 C5'         3.7210   -0.8050    0.3820 c3        1 CL9     -0.045000
     19 O5'         4.1470   -2.1720    0.4030 oh        1 CL9     -0.317000
     20 H8          0.4720    0.1380    1.9920 DU        1 CL9      0.233000
     21 HN6        -5.8180    0.1090    1.8020 hn        1 CL9      0.244500
     22 HN6A       -4.7130    0.0900    2.9770 hn        1 CL9      0.244500
     23 H1'        -0.0760   -0.7720   -1.5390 h4        1 CL9      0.143000
     24 H2'         0.5850    1.7390   -0.9180 hc        1 CL9      0.125500
     25 H2'A        1.0540    1.0030   -2.2940 hc        1 CL9      0.125500
     26 H3'         2.3270    1.3810    0.0830 h1        1 CL9      0.092000
     27 HO3'        3.3790    2.3680   -1.4750 ho        1 CL9      0.209000
     28 H4'         2.9100   -1.0110   -1.5170 h1        1 CL9      0.154000
     29 H5'         3.3820   -0.5540    1.2670 h1        1 CL9      0.074500
     30 H5'A        4.4930   -0.2190    0.1440 h1        1 CL9      0.074500
     31 HO5'        4.7710   -2.2740    1.0120 ho        1 CL9      0.204000
@<TRIPOS>BOND
     1    1    7 1   
     2    1   11 1   
     3    2    3 1   
     4    4   10 1   
     5    4   11 1   
     6    5    8 1   
     7    5    9 1   
     8   10   21 1   
     9   10   22 1   
    10   12   13 1   
    11   12   17 1   
    12   12   23 1   
    13   13   14 1   
    14   13   24 1   
    15   13   25 1   
    16   14   15 1   
    17   14   16 1   
    18   14   26 1   
    19   15   27 1   
    20   16   17 1   
    21   16   18 1   
    22   16   28 1   
    23   18   19 1   
    24   18   29 1   
    25   18   30 1   
    26   19   31 1   
@<TRIPOS>SUBSTRUCTURE
     1 CL9         1 TEMP              0 ****  ****    0 ROOT
