@<TRIPOS>MOLECULE
CL9
   31    33     1     0     0
SMALL
bcc


@<TRIPOS>ATOM
      1 C2          0.2650    0.9150    0.4840 ca        1 CL9      0.782000
      2 C4          2.2880    0.0950    1.1010 ca        1 CL9      0.458800
      3 C5          1.7530   -0.2750    2.4050 ca        1 CL9     -0.228200
      4 C6          0.3730    0.0250    2.6520 ca        1 CL9      0.769200
      5 C8          3.8450   -0.8880    2.4010 cc        1 CL9      0.422700
      6 CL         -0.7310    1.6720   -0.7120 cl        1 CL9     -0.121000
      7 N3          1.5580    0.6990    0.1150 nb        1 CL9     -0.730000
      8 N9          3.6330   -0.2980    1.1290 na        1 CL9     -0.293000
      9 N7          2.7530   -0.8820    3.1800 nd        1 CL9     -0.552100
     10 N6         -0.1890   -0.2540    3.8700 nh        1 CL9     -0.953500
     11 N1         -0.3690    0.6210    1.6610 nb        1 CL9     -0.785000
     12 C1'         4.5720   -0.2320    0.0250 c3        1 CL9      0.261800
     13 C2'         4.8370    1.1950   -0.5080 c3        1 CL9     -0.150400
     14 C3'         6.2260    1.5720    0.0210 c3        1 CL9      0.115100
     15 O3'         7.1390    1.8730   -1.0190 oh        1 CL9     -0.588800
     16 C4'         6.7550    0.3040    0.7280 c3        1 CL9      0.132100
     17 O4'         5.8370   -0.7590    0.4400 os        1 CL9     -0.388600
     18 C5'         6.8670    0.5380    2.2340 c3        1 CL9      0.105400
     19 O5'         7.1760   -0.7060    2.8370 oh        1 CL9     -0.589800
     20 H8          4.8360   -1.2930    2.6640 h5        1 CL9      0.103800
     21 HN6        -1.1600   -0.1300    4.0150 hn        1 CL9      0.449300
     22 HN6A        0.3370   -0.7850    4.5200 hn        1 CL9      0.449300
     23 H1'         4.2070   -0.9270   -0.7890 h2        1 CL9      0.103700
     24 H2'         4.8390    1.1620   -1.6270 hc        1 CL9      0.086200
     25 H2'A        4.0620    1.9280   -0.1820 hc        1 CL9      0.086200
     26 H3'         6.1670    2.4420    0.7300 h1        1 CL9      0.052700
     27 HO3'        6.7740    2.6240   -1.5040 ho        1 CL9      0.410000
     28 H4'         7.7380   -0.0410    0.3040 h1        1 CL9      0.114700
     29 H5'         7.6790    1.2880    2.4290 h1        1 CL9      0.035200
     30 H5'A        5.8950    0.9220    2.6490 h1        1 CL9      0.035200
     31 HO5'        7.4000   -0.5180    3.7560 ho        1 CL9      0.405000
@<TRIPOS>BOND
     1    1    6 1   
     2    1    7 ar  
     3    1   11 ar  
     4    2    3 ar  
     5    2    7 ar  
     6    2    8 1   
     7    3    4 ar  
     8    3    9 1   
     9    4   10 1   
    10    4   11 ar  
    11    5    8 1   
    12    5    9 2   
    13    5   20 1   
    14    8   12 1   
    15   10   21 1   
    16   10   22 1   
    17   12   13 1   
    18   12   17 1   
    19   12   23 1   
    20   13   14 1   
    21   13   24 1   
    22   13   25 1   
    23   14   15 1   
    24   14   16 1   
    25   14   26 1   
    26   15   27 1   
    27   16   17 1   
    28   16   18 1   
    29   16   28 1   
    30   18   19 1   
    31   18   29 1   
    32   18   30 1   
    33   19   31 1   
@<TRIPOS>SUBSTRUCTURE
     1 CL9         1 TEMP              0 ****  ****    0 ROOT
