@<TRIPOS>MOLECULE
CL9
   32    34     1     0     0
SMALL
bcc


@<TRIPOS>ATOM
      1 C2          0.1550    0.7330    0.2770 ca        1 CL9      0.746000
      2 C4          2.2170    0.1070    1.0420 ca        1 CL9      0.458800
      3 C5          1.6170   -0.3190    2.3310 ca        1 CL9     -0.131200
      4 C6          0.2290   -0.1460    2.4290 ca        1 CL9      0.523200
      5 C8          3.7520   -0.7160    2.4720 cc        1 CL9      0.524700
      6 CL         -0.8100    1.3860   -0.9770 cl        1 CL9     -0.023000
      7 N3          1.5000    0.6280    0.0230 nb        1 CL9     -0.620000
      8 N9          3.5850   -0.1620    1.1860 na        1 CL9     -0.276000
      9 N7          2.6060   -0.8170    3.1800 nd        1 CL9     -0.597100
     10 N6         -0.4430   -0.5560    3.6770 n4        1 CL9     -0.814300
     11 N1         -0.5140    0.3740    1.4230 nb        1 CL9     -0.679000
     12 C1'         4.5910   -0.0270    0.1260 c3        1 CL9      0.260800
     13 C2'         4.8670    1.4270   -0.3070 c3        1 CL9     -0.153400
     14 C3'         6.2900    1.7390    0.1780 c3        1 CL9      0.127100
     15 O3'         7.1560    2.0260   -0.9020 oh        1 CL9     -0.578800
     16 C4'         6.8020    0.4350    0.8190 c3        1 CL9      0.083100
     17 O4'         5.8170   -0.5890    0.5800 os        1 CL9     -0.397600
     18 C5'         7.0430    0.5740    2.3220 c3        1 CL9      0.110400
     19 O5'         6.8350   -0.6510    2.9940 oh        1 CL9     -0.605800
     20 H8          4.7600   -1.0210    2.8310 h5        1 CL9      0.146800
     21 HN6         0.0220   -0.0870    4.4650 hn        1 CL9      0.479133
     22 HN6A       -0.3400   -1.5730    3.7830 hn        1 CL9      0.479133
     23 H1'         4.2470   -0.6770   -0.7350 h2        1 CL9      0.118700
     24 H2'         4.8180    1.4820   -1.4260 hc        1 CL9      0.091200
     25 H2'A        4.1270    2.1530    0.1080 hc        1 CL9      0.091200
     26 H3'         6.2920    2.5870    0.9140 h1        1 CL9      0.062700
     27 HO3'        6.9330    2.9090   -1.2230 ho        1 CL9      0.421000
     28 H4'         7.7280    0.0630    0.2940 h1        1 CL9      0.119700
     29 H5'         6.3090    1.2790    2.7980 h1        1 CL9      0.064700
     30 H5'A        8.0870    0.9490    2.4950 h1        1 CL9      0.064700
     31 HO5'        7.4230   -1.3080    2.5970 ho        1 CL9      0.423000
     32 H63        -1.4420   -0.3080    3.6640 hn        1 CL9      0.479133
@<TRIPOS>BOND
     1    1    6 1   
     2    1    7 ar  
     3    1   11 ar  
     4    2    3 ar  
     5    2    7 ar  
     6    2    8 1   
     7    3    4 ar  
     8    3    9 1   
     9    4   10 1   
    10    4   11 ar  
    11    5    8 1   
    12    5    9 2   
    13    5   20 1   
    14    8   12 1   
    15   10   21 1   
    16   10   22 1   
    17   10   32 1   
    18   12   13 1   
    19   12   17 1   
    20   12   23 1   
    21   13   14 1   
    22   13   24 1   
    23   13   25 1   
    24   14   15 1   
    25   14   16 1   
    26   14   26 1   
    27   15   27 1   
    28   16   17 1   
    29   16   18 1   
    30   16   28 1   
    31   18   19 1   
    32   18   29 1   
    33   18   30 1   
    34   19   31 1   
@<TRIPOS>SUBSTRUCTURE
     1 CL9         1 TEMP              0 ****  ****    0 ROOT
