@<TRIPOS>MOLECULE
CLC
   32    32     1     0     0
SMALL
bcc


@<TRIPOS>ATOM
      1 O1          0.0930    0.4710    0.1130 o         1 CLC     -0.616100
      2 O2          1.8410   -2.2940   -3.0310 oh        1 CLC     -0.589800
      3 N2          1.9300   -0.2120   -1.0760 n         1 CLC     -0.555900
      4 O4          3.4860    0.0290   -3.4020 oh        1 CLC     -0.576800
      5 C11         1.2480   -0.0020    0.1090 c         1 CLC      0.658100
      6 C12         1.9760   -0.3300    1.3890 c3        1 CLC     -0.172100
      7 C21         0.7850   -1.3540   -2.9790 c3        1 CLC      0.108400
      8 C50         2.2320    0.6900   -3.3810 c3        1 CLC      0.175400
      9 C22         1.3070   -0.0370   -2.3590 c3        1 CLC      0.116700
     10 C1          2.3710    2.1450   -3.0300 ca        1 CLC     -0.079300
     11 C2          3.5400    2.6330   -2.4360 ca        1 CLC     -0.129500
     12 C3          3.6660    3.9830   -2.1210 ca        1 CLC     -0.065500
     13 C4          2.6020    4.8530   -2.4070 ca        1 CLC     -0.174200
     14 C5          1.4200    4.3760   -2.9960 ca        1 CLC     -0.065500
     15 C6          1.3150    3.0230   -3.3050 ca        1 CLC     -0.129500
     16 N4          2.7270    6.2980   -2.0790 no        1 CLC      0.313200
     17 O5          1.8160    7.0360   -2.3440 o         1 CLC     -0.208500
     18 O6          3.7380    6.6910   -1.5620 o         1 CLC     -0.208500
     19 HA          1.4640   -3.1100   -3.3810 ho        1 CLC      0.402000
     20 H2          2.7810   -0.7250   -1.0770 hn        1 CLC      0.330500
     21 H4          3.9850    0.4080   -4.1360 ho        1 CLC      0.406000
     22 H121        2.2480   -1.4130    1.4180 hc        1 CLC      0.068033
     23 H122        1.3040   -0.0990    2.2520 hc        1 CLC      0.068033
     24 H123        2.9050    0.2820    1.4770 hc        1 CLC      0.068033
     25 H211       -0.0550   -1.7520   -2.3480 h1        1 CLC      0.031700
     26 H212        0.3990   -1.1480   -4.0140 h1        1 CLC      0.031700
     27 H50         1.7450    0.6090   -4.3970 h1        1 CLC      0.049700
     28 H22         0.3970    0.6280   -2.2230 h1        1 CLC      0.094700
     29 HB          4.3630    1.9360   -2.2070 ha        1 CLC      0.153000
     30 H3          4.5880    4.3650   -1.6500 ha        1 CLC      0.171500
     31 H5          0.5850    5.0660   -3.2100 ha        1 CLC      0.171500
     32 H6          0.3890    2.6430   -3.7640 ha        1 CLC      0.153000
@<TRIPOS>BOND
     1    1    5 2   
     2    2    7 1   
     3    2   19 1   
     4    3    5 1   
     5    3    9 1   
     6    3   20 1   
     7    4    8 1   
     8    4   21 1   
     9    5    6 1   
    10    6   22 1   
    11    6   23 1   
    12    6   24 1   
    13    7    9 1   
    14    7   25 1   
    15    7   26 1   
    16    8    9 1   
    17    8   10 1   
    18    8   27 1   
    19    9   28 1   
    20   10   11 ar  
    21   10   15 ar  
    22   11   12 ar  
    23   11   29 1   
    24   12   13 ar  
    25   12   30 1   
    26   13   14 ar  
    27   13   16 1   
    28   14   15 ar  
    29   14   31 1   
    30   15   32 1   
    31   16   17 1   
    32   16   18 1   
@<TRIPOS>SUBSTRUCTURE
     1 CLC         1 TEMP              0 ****  ****    0 ROOT
