@<TRIPOS>MOLECULE
CLC
   32    30     1     0     0
SMALL
bcc


@<TRIPOS>ATOM
      1 O1          1.9260   -2.2340    0.7010 o         1 CLC     -0.398000
      2 O2         -0.2880    0.4070    3.1810 oh        1 CLC     -0.326000
      3 N2         -0.2750   -2.0820    1.2140 n         1 CLC     -0.363000
      4 O4         -1.2080   -1.6070   -0.9940 oh        1 CLC     -0.309000
      5 C11         0.9860   -2.6150    1.4030 c2        1 CLC      0.314000
      6 C12         1.2040   -3.8430    2.4730 c3        1 CLC     -0.240000
      7 C21        -1.2050   -0.0960    2.2220 c3        1 CLC     -0.035000
      8 C50        -1.1860   -0.4270   -0.2180 c3        1 CLC      0.057000
      9 C22        -0.4340   -0.6790    1.0330 c3        1 CLC     -0.003000
     10 C1         -0.4950    0.7060   -1.0270 c2        1 CLC     -0.070000
     11 C2         -0.8610    2.0380   -0.8200 c2        1 CLC     -0.134000
     12 C3         -0.2400    3.0770   -1.5830 c1        1 CLC     -0.069000
     13 C4          0.7120    2.7660   -2.5150 c1        1 CLC     -0.130000
     14 C5          1.0810    1.4210   -2.7250 c1        1 CLC     -0.064000
     15 C6          0.4690    0.3930   -1.9720 c1        1 CLC     -0.129000
     16 N4          1.3200    3.8060   -3.2810 no        1 CLC      0.567000
     17 O5          2.1670    3.4970   -4.2810 o         1 CLC     -0.358000
     18 O6          1.0020    5.0190   -3.0710 o         1 CLC     -0.358000
     19 HA         -0.7260    0.6850    3.8790 ho        1 CLC      0.209000
     20 H2         -1.0780   -2.6790    1.2420 hn        1 CLC      0.233000
     21 H4         -1.9540   -1.7130   -1.3150 ho        1 CLC      0.227000
     22 H121        1.7990   -4.4960    2.0950 hc        1 CLC      0.109333
     23 H122        0.3610   -4.2540    2.6650 hc        1 CLC      0.109333
     24 H123        1.5930   -3.4890    3.3040 hc        1 CLC      0.109333
     25 H211       -1.7260   -0.7630    2.6100 h1        1 CLC      0.076000
     26 H212       -1.8080    0.6580    1.9020 h1        1 CLC      0.076000
     27 H50        -2.0500   -0.1750   -0.0110 h1        1 CLC      0.119000
     28 H22         0.4730   -0.2430    0.9740 h1        1 CLC      0.124000
     29 HB         -1.5370    2.2570   -0.1570 ha        1 CLC      0.146000
     30 H3         -0.5060    4.0480   -1.4320 ha        1 CLC      0.171000
     31 H5          1.7410    1.2060   -3.3690 ha        1 CLC      0.174000
     32 H6          0.7410   -0.5920   -2.1250 ha        1 CLC      0.164000
@<TRIPOS>BOND
     1    1    5 1   
     2    2    7 1   
     3    2   19 1   
     4    3    5 1   
     5    3    9 1   
     6    3   20 1   
     7    4    8 1   
     8    4   21 1   
     9    5    6 1   
    10    6   22 1   
    11    6   23 1   
    12    6   24 1   
    13    7    9 1   
    14    7   25 1   
    15    7   26 1   
    16    8    9 1   
    17    8   10 1   
    18    8   27 1   
    19    9   28 1   
    20   10   11 1   
    21   10   15 1   
    22   11   12 1   
    23   11   29 1   
    24   12   30 1   
    25   13   14 1   
    26   13   16 1   
    27   14   31 1   
    28   15   32 1   
    29   16   17 1   
    30   16   18 1   
@<TRIPOS>SUBSTRUCTURE
     1 CLC         1 TEMP              0 ****  ****    0 ROOT
