@<TRIPOS>MOLECULE
CLC
   33    33     1     0     0
SMALL
bcc


@<TRIPOS>ATOM
      1 O1          0.3750    0.8020    0.6820 o         1 CLC     -0.408100
      2 O2          2.1320   -2.1530   -2.1630 oh        1 CLC     -0.604800
      3 N2          2.0410    0.2820   -0.8470 ny        1 CLC     -0.677800
      4 O4          3.2680    0.0370   -3.4010 oh        1 CLC     -0.628800
      5 C11         1.1930   -0.0470    0.3690 c         1 CLC      0.559100
      6 C12         1.4860   -1.3540    1.0200 c3        1 CLC     -0.192100
      7 C21         0.9960   -1.3680   -2.4300 c3        1 CLC      0.121400
      8 C50         2.0520    0.7660   -3.3090 c3        1 CLC      0.174400
      9 C22         1.2740    0.1250   -2.1280 c3        1 CLC      0.082500
     10 C1          2.2700    2.2330   -3.0890 ca        1 CLC     -0.159300
     11 C2          3.4790    2.7060   -2.5670 ca        1 CLC     -0.135500
     12 C3          3.6820    4.0710   -2.3800 ca        1 CLC     -0.055500
     13 C4          2.6540    4.9660   -2.7140 ca        1 CLC     -0.150200
     14 C5          1.4400    4.5050   -3.2460 ca        1 CLC     -0.055500
     15 C6          1.2570    3.1350   -3.4310 ca        1 CLC     -0.135500
     16 N4          2.8590    6.4330   -2.5060 no        1 CLC      0.312200
     17 O5          1.9800    7.1810   -2.8250 o         1 CLC     -0.175000
     18 O6          3.8930    6.7980   -2.0210 o         1 CLC     -0.175000
     19 HA          2.7270   -2.1010   -2.9270 ho        1 CLC      0.446000
     20 H2          2.3810    1.2520   -0.7910 hn        1 CLC      0.470800
     21 H4          3.7670    0.3890   -4.1520 ho        1 CLC      0.455000
     22 H121        2.4280   -1.2740    1.6230 hc        1 CLC      0.120700
     23 H122        1.6050   -2.1750    0.2630 hc        1 CLC      0.120700
     24 H123        0.6400   -1.6080    1.7120 hc        1 CLC      0.120700
     25 H211        0.1950   -1.7590   -1.7440 h1        1 CLC      0.088700
     26 H212        0.6570   -1.4570   -3.4950 h1        1 CLC      0.088700
     27 H50         1.4390    0.6050   -4.2450 h1        1 CLC      0.096700
     28 H22         0.2940    0.6770   -2.0120 hx        1 CLC      0.126700
     29 HB          4.2950    2.0010   -2.3360 ha        1 CLC      0.154500
     30 H3          4.6410    4.4480   -1.9780 ha        1 CLC      0.193500
     31 H5          0.6420    5.2200   -3.5200 ha        1 CLC      0.193500
     32 H6          0.3090    2.7730   -3.8610 ha        1 CLC      0.154500
     33 H221        2.8480   -0.3590   -0.8950 hn        1 CLC      0.470800
@<TRIPOS>BOND
     1    1    5 2   
     2    2    7 1   
     3    2   19 1   
     4    3    5 1   
     5    3    9 1   
     6    3   20 1   
     7    3   33 1   
     8    4    8 1   
     9    4   21 1   
    10    5    6 1   
    11    6   22 1   
    12    6   23 1   
    13    6   24 1   
    14    7    9 1   
    15    7   25 1   
    16    7   26 1   
    17    8    9 1   
    18    8   10 1   
    19    8   27 1   
    20    9   28 1   
    21   10   11 ar  
    22   10   15 ar  
    23   11   12 ar  
    24   11   29 1   
    25   12   13 ar  
    26   12   30 1   
    27   13   14 ar  
    28   13   16 1   
    29   14   15 ar  
    30   14   31 1   
    31   15   32 1   
    32   16   17 1   
    33   16   18 1   
@<TRIPOS>SUBSTRUCTURE
     1 CLC         1 TEMP              0 ****  ****    0 ROOT
