@<TRIPOS>MOLECULE
CLC
   32    32     1     0     0
SMALL
bcc


@<TRIPOS>ATOM
      1 O1          1.9980   -1.7680   -1.5650 o         1 CLC     -0.612100
      2 O2         -1.0630    0.7100   -4.3150 oh        1 CLC     -0.608800
      3 N2          0.8840    0.0960   -2.3130 n         1 CLC     -0.557900
      4 O4         -1.7240    1.4430   -1.7340 oh        1 CLC     -0.605800
      5 C11         2.0460   -0.6220   -2.0560 c         1 CLC      0.656100
      6 C12         3.3580    0.0660   -2.3360 c3        1 CLC     -0.174100
      7 C21        -1.0750   -0.5580   -3.6970 c3        1 CLC      0.117400
      8 C50        -1.3950    0.1310   -1.2980 c3        1 CLC      0.172400
      9 C22        -0.4120   -0.5380   -2.2970 c3        1 CLC      0.022700
     10 C1         -0.9520    0.1180    0.1360 ca        1 CLC     -0.077300
     11 C2         -1.4370    1.1170    0.9930 ca        1 CLC     -0.130500
     12 C3         -1.1040    1.1270    2.3420 ca        1 CLC     -0.069000
     13 C4         -0.2720    0.1130    2.8460 ca        1 CLC     -0.174200
     14 C5          0.2200   -0.8940    2.0020 ca        1 CLC     -0.069000
     15 C6         -0.1250   -0.8840    0.6520 ca        1 CLC     -0.130500
     16 N4          0.0910    0.1110    4.2870 no        1 CLC      0.312200
     17 O5          0.7940   -0.7680    4.7100 o         1 CLC     -0.208000
     18 O6         -0.3270    0.9890    4.9940 o         1 CLC     -0.208000
     19 HA         -1.7020    1.2680   -3.8510 ho        1 CLC      0.421000
     20 H2          0.9520    0.8970   -2.9010 hn        1 CLC      0.313500
     21 H4         -0.9510    2.0040   -1.5880 ho        1 CLC      0.414000
     22 H121        4.1920   -0.6240   -2.0580 hc        1 CLC      0.070700
     23 H122        3.4430    0.3220   -3.4200 hc        1 CLC      0.070700
     24 H123        3.4450    1.0020   -1.7320 hc        1 CLC      0.070700
     25 H211       -0.4880   -1.2190   -4.3910 h1        1 CLC      0.057200
     26 H212       -2.1210   -0.9490   -3.5990 h1        1 CLC      0.057200
     27 H50        -2.3790   -0.4260   -1.3670 h1        1 CLC      0.091700
     28 H22        -0.2880   -1.6170   -1.9760 h1        1 CLC      0.098700
     29 HB         -2.0990    1.9030    0.5900 ha        1 CLC      0.167000
     30 H3         -1.4890    1.9160    3.0100 ha        1 CLC      0.173000
     31 H5          0.8760   -1.6870    2.4010 ha        1 CLC      0.173000
     32 H6          0.2900   -1.6710   -0.0030 ha        1 CLC      0.167000
@<TRIPOS>BOND
     1    1    5 2   
     2    2    7 1   
     3    2   19 1   
     4    3    5 1   
     5    3    9 1   
     6    3   20 1   
     7    4    8 1   
     8    4   21 1   
     9    5    6 1   
    10    6   22 1   
    11    6   23 1   
    12    6   24 1   
    13    7    9 1   
    14    7   25 1   
    15    7   26 1   
    16    8    9 1   
    17    8   10 1   
    18    8   27 1   
    19    9   28 1   
    20   10   11 ar  
    21   10   15 ar  
    22   11   12 ar  
    23   11   29 1   
    24   12   13 ar  
    25   12   30 1   
    26   13   14 ar  
    27   13   16 1   
    28   14   15 ar  
    29   14   31 1   
    30   15   32 1   
    31   16   17 1   
    32   16   18 1   
@<TRIPOS>SUBSTRUCTURE
     1 CLC         1 TEMP              0 ****  ****    0 ROOT
