@<TRIPOS>MOLECULE
CLC
   33    33     1     0     0
SMALL
bcc


@<TRIPOS>ATOM
      1 O1          0.4200    0.7910    0.7040 o         1 CLC     -0.408100
      2 O2          2.1580   -2.1540   -2.1660 oh        1 CLC     -0.604800
      3 N2          2.0680    0.2810   -0.8490 n4        1 CLC     -0.677800
      4 O4          3.2600    0.0440   -3.4200 oh        1 CLC     -0.628800
      5 C11         1.2390   -0.0530    0.3790 c         1 CLC      0.559100
      6 C12         1.5500   -1.3580    1.0250 c3        1 CLC     -0.192100
      7 C21         1.0130   -1.3770   -2.4170 c3        1 CLC      0.121400
      8 C50         2.0400    0.7650   -3.3120 c3        1 CLC      0.174400
      9 C22         1.2840    0.1180   -2.1190 c3        1 CLC      0.082500
     10 C1          2.2500    2.2330   -3.0940 ca        1 CLC     -0.159300
     11 C2          3.4640    2.7150   -2.5910 ca        1 CLC     -0.135500
     12 C3          3.6590    4.0820   -2.4060 ca        1 CLC     -0.055500
     13 C4          2.6190    4.9690   -2.7250 ca        1 CLC     -0.150200
     14 C5          1.4010    4.4980   -3.2390 ca        1 CLC     -0.055500
     15 C6          1.2250    3.1270   -3.4210 ca        1 CLC     -0.135500
     16 N4          2.8160    6.4370   -2.5200 no        1 CLC      0.312200
     17 O5          1.9260    7.1790   -2.8260 o         1 CLC     -0.175000
     18 O6          3.8540    6.8100   -2.0510 o         1 CLC     -0.175000
     19 HA          2.7420   -2.0980   -2.9380 ho        1 CLC      0.446000
     20 H2          2.4020    1.2540   -0.7980 hn        1 CLC      0.470800
     21 H4          3.7460    0.4000   -4.1780 ho        1 CLC      0.455000
     22 H121        1.6650   -2.1780    0.2670 hc        1 CLC      0.120700
     23 H122        2.4990   -1.2710    1.6160 hc        1 CLC      0.120700
     24 H123        0.7150   -1.6180    1.7280 hc        1 CLC      0.120700
     25 H211        0.2250   -1.7740   -1.7200 h1        1 CLC      0.088700
     26 H212        0.6590   -1.4690   -3.4770 h1        1 CLC      0.088700
     27 H50         1.4150    0.5990   -4.2380 h1        1 CLC      0.096700
     28 H22         0.3010    0.6620   -1.9900 hx        1 CLC      0.126700
     29 HB          4.2870    2.0160   -2.3710 ha        1 CLC      0.154500
     30 H3          4.6210    4.4660   -2.0190 ha        1 CLC      0.193500
     31 H5          0.5930    5.2070   -3.5010 ha        1 CLC      0.193500
     32 H6          0.2740    2.7580   -3.8370 ha        1 CLC      0.154500
     33 H221        2.8780   -0.3540   -0.9080 hn        1 CLC      0.470800
@<TRIPOS>BOND
     1    1    5 2   
     2    2    7 1   
     3    2   19 1   
     4    3    5 1   
     5    3    9 1   
     6    3   20 1   
     7    3   33 1   
     8    4    8 1   
     9    4   21 1   
    10    5    6 1   
    11    6   22 1   
    12    6   23 1   
    13    6   24 1   
    14    7    9 1   
    15    7   25 1   
    16    7   26 1   
    17    8    9 1   
    18    8   10 1   
    19    8   27 1   
    20    9   28 1   
    21   10   11 ar  
    22   10   15 ar  
    23   11   12 ar  
    24   11   29 1   
    25   12   13 ar  
    26   12   30 1   
    27   13   14 ar  
    28   13   16 1   
    29   14   15 ar  
    30   14   31 1   
    31   15   32 1   
    32   16   17 1   
    33   16   18 1   
@<TRIPOS>SUBSTRUCTURE
     1 CLC         1 TEMP              0 ****  ****    0 ROOT
