@<TRIPOS>MOLECULE
CLE
   23    22     1     0     0
SMALL
bcc


@<TRIPOS>ATOM
      1 N          -1.8230   -0.4260   -0.9480 n3        1 CLE     -0.884800
      2 CA         -0.4010   -0.4260   -0.9480 c3        1 CLE      0.107500
      3 CB          0.1030   -0.4260    0.4770 c3        1 CLE     -0.070400
      4 CG          0.0840    0.9860    1.0180 c3        1 CLE     -0.068700
      5 CD1         1.5040    1.4730    1.2060 c3        1 CLE     -0.091100
      6 CD2        -0.6360    1.0060    2.3480 c3        1 CLE     -0.091100
      7 C           0.1030   -1.6600   -1.6610 c         1 CLE      0.609100
      8 O           0.0990   -2.7340   -1.0930 o         1 CLE     -0.625100
      9 N2          0.5860   -1.5640   -2.9910 n         1 CLE     -0.670000
     10 H2         -2.1270   -1.2650   -1.1400 hn        1 CLE      0.360300
     11 H          -2.1270    0.1590   -1.5780 hn        1 CLE      0.360300
     12 HA         -0.0750    0.3710   -1.4090 h1        1 CLE      0.072700
     13 HB2         1.0160   -0.7710    0.4990 hc        1 CLE      0.047700
     14 HB3        -0.4720   -0.9930    1.0250 hc        1 CLE      0.047700
     15 HG         -0.3790    1.5700    0.3880 hc        1 CLE      0.072700
     16 HD11        1.9610    1.4860    0.3440 hc        1 CLE      0.033533
     17 HD12        1.4920    2.3740    1.5810 hc        1 CLE      0.033533
     18 HD13        1.9760    0.8730    1.8150 hc        1 CLE      0.033533
     19 HD21       -0.6020    1.9070    2.7230 hc        1 CLE      0.033533
     20 HD22       -1.5670    0.7430    2.2180 hc        1 CLE      0.033533
     21 HD23       -0.2040    0.3830    2.9620 hc        1 CLE      0.033533
     22 HN21        0.5770   -0.7600   -3.4230 hn        1 CLE      0.311000
     23 HN22        0.9110   -2.3040   -3.4130 hn        1 CLE      0.311000
@<TRIPOS>BOND
     1    1    2 1   
     2    1   10 1   
     3    1   11 1   
     4    2    3 1   
     5    2    7 1   
     6    2   12 1   
     7    3    4 1   
     8    3   13 1   
     9    3   14 1   
    10    4    5 1   
    11    4    6 1   
    12    4   15 1   
    13    5   16 1   
    14    5   17 1   
    15    5   18 1   
    16    6   19 1   
    17    6   20 1   
    18    6   21 1   
    19    7    8 2   
    20    7    9 1   
    21    9   22 1   
    22    9   23 1   
@<TRIPOS>SUBSTRUCTURE
     1 CLE         1 TEMP              0 ****  ****    0 ROOT
