@<TRIPOS>MOLECULE
CLE
   23    22     1     0     0
SMALL
bcc


@<TRIPOS>ATOM
      1 N          -1.1430    0.9630   -0.6830 n3        1 CLE     -0.909800
      2 CA          0.1610    0.3730   -0.4480 c3        1 CLE      0.095500
      3 CB          0.2430   -0.6450    0.6970 c3        1 CLE     -0.108400
      4 CG         -0.2000   -0.0890    2.0400 c3        1 CLE     -0.068700
      5 CD1        -0.1020   -1.1790    3.0910 c3        1 CLE     -0.092100
      6 CD2         0.6220    1.1120    2.4570 c3        1 CLE     -0.092100
      7 C           0.7020   -0.3050   -1.7270 c         1 CLE      0.654100
      8 O           1.1900   -1.4520   -1.7000 o         1 CLE     -0.621100
      9 N2          0.6950    0.4200   -2.8900 n         1 CLE     -0.658000
     10 H2         -1.4080    1.5220    0.1050 hn        1 CLE      0.356300
     11 H          -1.8330    0.2510   -0.8210 hn        1 CLE      0.356300
     12 HA          0.8750    1.2210   -0.2140 h1        1 CLE      0.077700
     13 HB2         1.3060   -0.9990    0.7680 hc        1 CLE      0.065700
     14 HB3        -0.3810   -1.5410    0.4410 hc        1 CLE      0.065700
     15 HG         -1.2800    0.2250    1.9710 hc        1 CLE      0.035700
     16 HD11       -0.4720   -0.8020    4.0750 hc        1 CLE      0.036200
     17 HD12       -0.7150   -2.0630    2.7940 hc        1 CLE      0.036200
     18 HD13        0.9580   -1.5080    3.2140 hc        1 CLE      0.036200
     19 HD21        1.7130    0.8780    2.4090 hc        1 CLE      0.036200
     20 HD22        0.4160    1.9830    1.7880 hc        1 CLE      0.036200
     21 HD23        0.3700    1.4090    3.5040 hc        1 CLE      0.036200
     22 HN21        0.9960   -0.0110   -3.7290 hn        1 CLE      0.314000
     23 HN22        0.2050    1.2760   -2.9480 hn        1 CLE      0.314000
@<TRIPOS>BOND
     1    1    2 1   
     2    1   10 1   
     3    1   11 1   
     4    2    3 1   
     5    2    7 1   
     6    2   12 1   
     7    3    4 1   
     8    3   13 1   
     9    3   14 1   
    10    4    5 1   
    11    4    6 1   
    12    4   15 1   
    13    5   16 1   
    14    5   17 1   
    15    5   18 1   
    16    6   19 1   
    17    6   20 1   
    18    6   21 1   
    19    7    8 2   
    20    7    9 1   
    21    9   22 1   
    22    9   23 1   
@<TRIPOS>SUBSTRUCTURE
     1 CLE         1 TEMP              0 ****  ****    0 ROOT
