@<TRIPOS>MOLECULE
CLI
   26    22     1     0     0
SMALL
bcc


@<TRIPOS>ATOM
      1 O19        -0.7380    1.8780    4.4660 o         1 CLI     -0.607500
      2 C16        -1.4160    1.7010    3.4200 c2        1 CLI      0.326000
      3 O18        -2.6720    1.6370    3.4870 o         1 CLI     -0.607500
      4 C12        -0.7230    1.5780    2.0810 c3        1 CLI     -0.202000
      5 C6         -0.5200    0.1150    1.7510 c3        1 CLI     -0.104000
      6 C2          0.1730   -0.0080    0.4120 c2        1 CLI     -0.098000
      7 C1         -0.2620   -0.3330   -0.8550 c1        1 CLI     -0.064000
      8 C5          1.5290   -0.2570    0.4730 c1        1 CLI     -0.047000
      9 C11         2.9010   -0.0990    1.0900 c1        1 CLI      0.380000
     10 O14         3.2860   -0.8990    1.9820 o         1 CLI     -0.559000
     11 O15         3.6520    0.8420    0.7220 o         1 CLI     -0.559000
     12 N7          1.9280   -0.7320   -0.7460 n2        1 CLI     -0.191000
     13 C3          0.8190   -0.7800   -1.5710 c1        1 CLI     -0.017000
     14 C8          0.6580   -1.1810   -2.9080 c1        1 CLI     -0.163000
     15 C13        -0.5940   -1.1250   -3.5030 c1        1 CLI     -0.059000
     16 CL17       -0.7790   -1.8040   -5.0980 cl        1 CLI     -0.101000
     17 C9         -1.6880   -0.6720   -2.7780 c2        1 CLI     -0.195000
     18 C4         -1.5300   -0.2760   -1.4580 c1        1 CLI     -0.007000
     19 CL10       -3.1710    0.1380   -1.0390 cl        1 CLI      0.020000
     20 H121        0.1460    2.0260    2.1200 hc        1 CLI      0.062000
     21 H122       -1.2740    1.9950    1.3880 hc        1 CLI      0.062000
     22 H61         0.0310   -0.3010    2.4430 hc        1 CLI      0.111500
     23 H62        -1.3880   -0.3330    1.7120 hc        1 CLI      0.111500
     24 HN7         2.7770   -0.9740   -0.9750 DU        1 CLI      0.254000
     25 HC8         1.4260   -1.5030   -3.4170 ha        1 CLI      0.124000
     26 HC9        -2.5690   -0.6330   -3.1970 ha        1 CLI      0.130000
@<TRIPOS>BOND
     1    1    2 1   
     2    2    3 1   
     3    2    4 1   
     4    4    5 1   
     5    4   20 1   
     6    4   21 1   
     7    5    6 1   
     8    5   22 1   
     9    5   23 1   
    10    6    7 1   
    11    6    8 1   
    12    7   13 1   
    13    8   12 1   
    14    9   10 1   
    15    9   11 1   
    16   12   13 1   
    17   14   15 1   
    18   14   25 1   
    19   15   17 1   
    20   17   18 1   
    21   17   26 1   
    22   18   19 1   
@<TRIPOS>SUBSTRUCTURE
     1 CLI         1 TEMP              0 ****  ****    0 ROOT
