@<TRIPOS>MOLECULE
CLI
   26    27     1     0     0
SMALL
bcc


@<TRIPOS>ATOM
      1 O19         0.0480   -0.3820    0.0660 o         1 CLI     -0.872800
      2 C16         1.3080   -0.5370    0.0170 c         1 CLI      0.906600
      3 O18         1.9570   -1.0730    0.9640 o         1 CLI     -0.872800
      4 C12         2.0250   -0.0930   -1.2650 c3        1 CLI     -0.173400
      5 C6          3.4890    0.2440   -1.0610 c3        1 CLI     -0.021200
      6 C2          4.2910    0.1400   -2.2950 cc        1 CLI     -0.090400
      7 C1          4.6780   -1.0800   -2.9780 ca        1 CLI     -0.075800
      8 C5          4.8290    1.2100   -3.0320 cd        1 CLI     -0.093300
      9 C11         4.8270    2.7230   -2.8320 c         1 CLI      0.929800
     10 O14         5.1090    3.4270   -3.8500 o         1 CLI     -0.824300
     11 O15         4.5920    3.1890   -1.6910 o         1 CLI     -0.824300
     12 N7          5.5240    0.7060   -4.1460 na        1 CLI     -0.168400
     13 C3          5.4340   -0.6740   -4.1600 ca        1 CLI     -0.062200
     14 C8          5.9620   -1.6040   -5.0670 ca        1 CLI     -0.163000
     15 C13         5.7500   -2.9470   -4.7900 ca        1 CLI      0.019400
     16 Cl17        6.3720   -4.1280   -5.8730 cl        1 CLI     -0.179400
     17 C9          5.0500   -3.3800   -3.6550 ca        1 CLI     -0.195000
     18 C4          4.5250   -2.4530   -2.7540 ca        1 CLI      0.071400
     19 Cl10        3.7160   -3.0390   -1.3850 cl        1 CLI     -0.058400
     20 H121        1.9220   -0.9320   -2.0010 hc        1 CLI      0.022700
     21 H122        1.4870    0.7920   -1.6880 hc        1 CLI      0.022700
     22 H61         3.5770    1.2940   -0.6660 hc        1 CLI      0.072200
     23 H62         3.9070   -0.4490   -0.2790 hc        1 CLI      0.072200
     24 HN7         5.8830    1.2880   -4.8590 hn        1 CLI      0.303700
     25 HC8         6.5190   -1.2790   -5.9550 ha        1 CLI      0.124000
     26 HC9         4.9160   -4.4560   -3.4750 ha        1 CLI      0.130000
@<TRIPOS>BOND
     1    1    2 1   
     2    2    3 1   
     3    2    4 1   
     4    4    5 1   
     5    4   20 1   
     6    4   21 1   
     7    5    6 1   
     8    5   22 1   
     9    5   23 1   
    10    6    7 1   
    11    6    8 2   
    12    7   13 ar  
    13    7   18 ar  
    14    8    9 1   
    15    8   12 1   
    16    9   10 1   
    17    9   11 1   
    18   12   13 1   
    19   12   24 1   
    20   13   14 ar  
    21   14   15 ar  
    22   14   25 1   
    23   15   16 1   
    24   15   17 ar  
    25   17   18 ar  
    26   17   26 1   
    27   18   19 1   
@<TRIPOS>SUBSTRUCTURE
     1 CLI         1 TEMP              0 ****  ****    0 ROOT
