@<TRIPOS>MOLECULE
CLI
   26    27     1     0     0
SMALL
bcc


@<TRIPOS>ATOM
      1 O19         0.0530   -0.3600    0.0730 o         1 CLI     -0.872800
      2 C16         1.3120   -0.5260    0.0210 c         1 CLI      0.906600
      3 O18         1.9580   -1.0720    0.9650 o         1 CLI     -0.872800
      4 C12         2.0310   -0.0820   -1.2590 c3        1 CLI     -0.173400
      5 C6          3.4980    0.2420   -1.0560 c3        1 CLI     -0.021200
      6 C2          4.2970    0.1370   -2.2920 cc        1 CLI     -0.090400
      7 C1          4.6730   -1.0830   -2.9820 ca        1 CLI     -0.075800
      8 C5          4.8420    1.2060   -3.0260 cd        1 CLI     -0.093300
      9 C11         4.8530    2.7180   -2.8190 c         1 CLI      0.929800
     10 O14         5.1390    3.4240   -3.8350 o         1 CLI     -0.824300
     11 O15         4.6230    3.1810   -1.6750 o         1 CLI     -0.824300
     12 N7          5.5310    0.7020   -4.1430 na        1 CLI     -0.168400
     13 C3          5.4310   -0.6770   -4.1630 ca        1 CLI     -0.062200
     14 C8          5.9500   -1.6080   -5.0750 ca        1 CLI     -0.163000
     15 C13         5.7270   -2.9500   -4.8030 ca        1 CLI      0.019400
     16 CL17        6.3370   -4.1320   -5.8930 cl        1 CLI     -0.179400
     17 C9          5.0250   -3.3830   -3.6690 ca        1 CLI     -0.195000
     18 C4          4.5090   -2.4550   -2.7630 ca        1 CLI      0.071400
     19 CL10        3.6980   -3.0410   -1.3950 cl        1 CLI     -0.058400
     20 H121        1.9200   -0.9170   -1.9990 hc        1 CLI      0.022700
     21 H122        1.4990    0.8090   -1.6780 hc        1 CLI      0.022700
     22 H61         3.5950    1.2900   -0.6570 hc        1 CLI      0.072200
     23 H62         3.9120   -0.4580   -0.2780 hc        1 CLI      0.072200
     24 HN7         5.8930    1.2830   -4.8540 hn        1 CLI      0.303700
     25 HC8         6.5070   -1.2830   -5.9620 ha        1 CLI      0.124000
     26 HC9         4.8830   -4.4580   -3.4940 ha        1 CLI      0.130000
@<TRIPOS>BOND
     1    1    2 1   
     2    2    3 1   
     3    2    4 1   
     4    4    5 1   
     5    4   20 1   
     6    4   21 1   
     7    5    6 1   
     8    5   22 1   
     9    5   23 1   
    10    6    7 1   
    11    6    8 2   
    12    7   13 ar  
    13    7   18 ar  
    14    8    9 1   
    15    8   12 1   
    16    9   10 1   
    17    9   11 1   
    18   12   13 1   
    19   12   24 1   
    20   13   14 ar  
    21   14   15 ar  
    22   14   25 1   
    23   15   16 1   
    24   15   17 ar  
    25   17   18 ar  
    26   17   26 1   
    27   18   19 1   
@<TRIPOS>SUBSTRUCTURE
     1 CLI         1 TEMP              0 ****  ****    0 ROOT
