@<TRIPOS>MOLECULE
CLI
   26    27     1     0     0
SMALL
bcc


@<TRIPOS>ATOM
      1 O19         2.4750   -1.3570    4.1680 o         1 CLI     -0.872800
      2 C16         2.0780   -0.4340    3.3910 c         1 CLI      0.906600
      3 O18         2.6560    0.6920    3.3330 o         1 CLI     -0.872800
      4 C12         0.8870   -0.7450    2.4740 c3        1 CLI     -0.173400
      5 C6          0.1160    0.4830    2.0350 c3        1 CLI     -0.021200
      6 C2         -0.6430    0.2830    0.7850 cc        1 CLI     -0.090400
      7 C1         -0.0950    0.1640   -0.5530 ca        1 CLI     -0.075800
      8 C5         -2.0400    0.1750    0.6660 cd        1 CLI     -0.093300
      9 C11        -3.1850    0.2600    1.6720 c         1 CLI      0.929800
     10 O14        -4.3010   -0.2150    1.2970 o         1 CLI     -0.824300
     11 O15        -2.9870    0.8160    2.7790 o         1 CLI     -0.824300
     12 N7         -2.3800   -0.0160   -0.6850 na        1 CLI     -0.168400
     13 C3         -1.2280   -0.0520   -1.4500 ca        1 CLI     -0.062200
     14 C8         -1.0670   -0.2210   -2.8320 ca        1 CLI     -0.163000
     15 C13         0.2280   -0.1600   -3.3290 ca        1 CLI      0.019400
     16 CL17        0.4820   -0.3660   -5.0170 cl        1 CLI     -0.179400
     17 C9          1.3410    0.0680   -2.5060 ca        1 CLI     -0.195000
     18 C4          1.1770    0.2350   -1.1300 ca        1 CLI      0.071400
     19 CL10        2.5570    0.5390   -0.1940 cl        1 CLI     -0.058400
     20 H121        1.2990   -1.2800    1.5790 hc        1 CLI      0.022700
     21 H122        0.2030   -1.4550    3.0040 hc        1 CLI      0.022700
     22 H61        -0.6070    0.7780    2.8470 hc        1 CLI      0.072200
     23 H62         0.8430    1.3320    1.9040 hc        1 CLI      0.072200
     24 HN7        -3.2970   -0.2290   -0.9800 hn        1 CLI      0.303700
     25 HC8        -1.9290   -0.3920   -3.4880 ha        1 CLI      0.124000
     26 HC9         2.3450    0.1160   -2.9500 ha        1 CLI      0.130000
@<TRIPOS>BOND
     1    1    2 1   
     2    2    3 1   
     3    2    4 1   
     4    4    5 1   
     5    4   20 1   
     6    4   21 1   
     7    5    6 1   
     8    5   22 1   
     9    5   23 1   
    10    6    7 1   
    11    6    8 2   
    12    7   13 ar  
    13    7   18 ar  
    14    8    9 1   
    15    8   12 1   
    16    9   10 1   
    17    9   11 1   
    18   12   13 1   
    19   12   24 1   
    20   13   14 ar  
    21   14   15 ar  
    22   14   25 1   
    23   15   16 1   
    24   15   17 ar  
    25   17   18 ar  
    26   17   26 1   
    27   18   19 1   
@<TRIPOS>SUBSTRUCTURE
     1 CLI         1 TEMP              0 ****  ****    0 ROOT
