@<TRIPOS>MOLECULE
CLK
   33    33     1     0     0
SMALL
bcc


@<TRIPOS>ATOM
      1 C1          0.3760    0.1970    0.0080 c3        1 CLK      0.020100
      2 CL1A       -0.1980    0.2210    1.6490 cl        1 CLK     -0.054400
      3 CL1B       -0.0490   -1.2670   -0.8370 cl        1 CLK     -0.054400
      4 C2         -0.1720    1.3950   -0.7500 c         1 CLK      0.529100
      5 O2          0.5070    2.2730   -1.2560 o         1 CLK     -0.377100
      6 N2         -1.6610    1.4600   -0.8630 n4        1 CLK     -0.661800
      7 C3         -2.1820    2.6780   -1.5740 c3        1 CLK      0.080500
      8 C4         -2.2330    3.8910   -0.6160 c3        1 CLK      0.121400
      9 O4         -2.7630    3.5200    0.6340 oh        1 CLK     -0.600800
     10 C5         -3.5900    2.3860   -2.1630 c3        1 CLK      0.196400
     11 O5         -4.4350    2.1800   -1.0380 oh        1 CLK     -0.633800
     12 C6         -3.5580    1.2150   -3.0880 ca        1 CLK     -0.285300
     13 C7         -3.1430    1.3930   -4.4150 ca        1 CLK     -0.068500
     14 C8         -3.1170    0.3320   -5.3020 ca        1 CLK     -0.210000
     15 C9         -3.5220   -0.9680   -4.8860 ca        1 CLK      0.228600
     16 N9         -3.4410   -2.0400   -5.7390 nh        1 CLK     -0.846200
     17 C10        -3.9610   -1.1320   -3.5430 ca        1 CLK     -0.210000
     18 C11        -3.9750   -0.0560   -2.6730 ca        1 CLK     -0.068500
     19 H1          1.5000    0.2680    0.0320 h2        1 CLK      0.173700
     20 H2         -2.0730    1.4700    0.0900 hn        1 CLK      0.489300
     21 H3         -1.4870    2.9100   -2.4340 hx        1 CLK      0.126700
     22 H4C1       -1.1910    4.2580   -0.4030 h1        1 CLK      0.089200
     23 H4C2       -2.8310    4.7020   -1.1090 h1        1 CLK      0.089200
     24 H4         -3.7300    3.5140    0.5660 ho        1 CLK      0.443000
     25 H5         -3.9150    3.3160   -2.7150 h1        1 CLK      0.087700
     26 HA         -5.3220    1.9880   -1.3730 ho        1 CLK      0.450000
     27 H7         -2.8410    2.3940   -4.7640 ha        1 CLK      0.137500
     28 H8         -2.7880    0.4990   -6.3400 ha        1 CLK      0.153500
     29 H9N1       -3.2920   -1.8710   -6.7040 hn        1 CLK      0.436800
     30 H9N2       -3.8880   -2.8870   -5.4850 hn        1 CLK      0.436800
     31 H10        -4.3030   -2.1190   -3.1920 ha        1 CLK      0.153500
     32 H11        -4.3480   -0.1990   -1.6440 ha        1 CLK      0.137500
     33 H22        -2.0010    0.6180   -1.3600 hn        1 CLK      0.489300
@<TRIPOS>BOND
     1    1    2 1   
     2    1    3 1   
     3    1    4 1   
     4    1   19 1   
     5    4    5 2   
     6    4    6 1   
     7    6    7 1   
     8    6   20 1   
     9    6   33 1   
    10    7    8 1   
    11    7   10 1   
    12    7   21 1   
    13    8    9 1   
    14    8   22 1   
    15    8   23 1   
    16    9   24 1   
    17   10   11 1   
    18   10   12 1   
    19   10   25 1   
    20   11   26 1   
    21   12   13 ar  
    22   12   18 ar  
    23   13   14 ar  
    24   13   27 1   
    25   14   15 ar  
    26   14   28 1   
    27   15   16 1   
    28   15   17 ar  
    29   16   29 1   
    30   16   30 1   
    31   17   18 ar  
    32   17   31 1   
    33   18   32 1   
@<TRIPOS>SUBSTRUCTURE
     1 CLK         1 TEMP              0 ****  ****    0 ROOT
