@<TRIPOS>MOLECULE
CLK
   32    32     1     0     0
SMALL
bcc


@<TRIPOS>ATOM
      1 C1          1.2980    0.5720    2.4320 c3        1 CLK      0.055100
      2 CL1A        0.4060    0.4380    3.9310 cl        1 CLK     -0.124900
      3 CL1B        2.0070   -0.9570    1.9630 cl        1 CLK     -0.124900
      4 C2          0.3920    1.1130    1.3230 c         1 CLK      0.659100
      5 O2          0.6740    2.2030    0.7910 o         1 CLK     -0.591100
      6 N2         -0.6730    0.3360    0.9410 n         1 CLK     -0.530900
      7 C3         -1.6770    0.8080    0.0160 c3        1 CLK      0.027700
      8 C4         -3.0640    0.9460    0.6920 c3        1 CLK      0.119400
      9 O4         -3.4460   -0.2140    1.3940 oh        1 CLK     -0.606800
     10 C5         -1.8210   -0.1030   -1.2340 c3        1 CLK      0.189400
     11 O5         -2.2820   -1.3910   -0.8420 oh        1 CLK     -0.613800
     12 C6         -0.6080   -0.1910   -2.1070 ca        1 CLK     -0.178300
     13 C7          0.3790    0.7980   -2.1430 ca        1 CLK     -0.077500
     14 C8          1.4590    0.6970   -3.0110 ca        1 CLK     -0.195000
     15 C9          1.5910   -0.4150   -3.8740 ca        1 CLK      0.152600
     16 N9          2.7200   -0.5690   -4.6800 nh        1 CLK     -0.823200
     17 C10         0.5830   -1.4090   -3.8410 ca        1 CLK     -0.195000
     18 C11        -0.4890   -1.2900   -2.9700 ca        1 CLK     -0.077500
     19 H1          2.1380    1.2920    2.6030 h2        1 CLK      0.130700
     20 H2         -0.9380   -0.4410    1.5070 hn        1 CLK      0.331500
     21 H3         -1.3810    1.8390   -0.3470 h1        1 CLK      0.097700
     22 H4C1       -3.0360    1.7550    1.4720 h1        1 CLK      0.054700
     23 H4C2       -3.8210    1.2080   -0.0940 h1        1 CLK      0.054700
     24 H4         -3.5910   -0.9160    0.7440 ho        1 CLK      0.422000
     25 H5         -2.6780    0.3100   -1.8470 h1        1 CLK      0.080700
     26 HA         -1.5230   -1.8890   -0.5160 ho        1 CLK      0.415000
     27 H7          0.3260    1.6730   -1.4720 ha        1 CLK      0.146500
     28 H8          2.2230    1.4900   -3.0100 ha        1 CLK      0.135000
     29 H9N1        2.5940   -1.1630   -5.4680 hn        1 CLK      0.393300
     30 H9N2        3.2040    0.2760   -4.8870 hn        1 CLK      0.393300
     31 H10         0.6490   -2.2860   -4.5010 ha        1 CLK      0.135000
     32 H11        -1.2680   -2.0700   -2.9570 ha        1 CLK      0.146500
@<TRIPOS>BOND
     1    1    2 1   
     2    1    3 1   
     3    1    4 1   
     4    1   19 1   
     5    4    5 2   
     6    4    6 1   
     7    6    7 1   
     8    6   20 1   
     9    7    8 1   
    10    7   10 1   
    11    7   21 1   
    12    8    9 1   
    13    8   22 1   
    14    8   23 1   
    15    9   24 1   
    16   10   11 1   
    17   10   12 1   
    18   10   25 1   
    19   11   26 1   
    20   12   13 ar  
    21   12   18 ar  
    22   13   14 ar  
    23   13   27 1   
    24   14   15 ar  
    25   14   28 1   
    26   15   16 1   
    27   15   17 ar  
    28   16   29 1   
    29   16   30 1   
    30   17   18 ar  
    31   17   31 1   
    32   18   32 1   
@<TRIPOS>SUBSTRUCTURE
     1 CLK         1 TEMP              0 ****  ****    0 ROOT
