@<TRIPOS>MOLECULE
CLK
   34    34     1     0     0
SMALL
bcc


@<TRIPOS>ATOM
      1 C1          0.4230    0.8170    0.8910 c3        1 CLK      0.019100
      2 CL1A        0.4340    2.3470    1.7180 cl        1 CLK     -0.037900
      3 CL1B       -0.3590   -0.4440    1.8000 cl        1 CLK     -0.037900
      4 C2         -0.2660    0.9810   -0.4520 c         1 CLK      0.530100
      5 O2          0.2530    0.8700   -1.5490 o         1 CLK     -0.380100
      6 N2         -1.7380    1.2960   -0.3970 n4        1 CLK     -0.667800
      7 C3         -2.2030    2.2790   -1.4410 c3        1 CLK      0.086500
      8 C4         -2.3150    3.6960   -0.8360 c3        1 CLK      0.107400
      9 O4         -3.3050    3.6060    0.1730 oh        1 CLK     -0.639800
     10 C5         -3.5930    1.8720   -2.0270 c3        1 CLK      0.181400
     11 O5         -4.3810    1.2960   -1.0030 oh        1 CLK     -0.606800
     12 C6         -3.4890    0.8970   -3.1670 ca        1 CLK     -0.081300
     13 C7         -2.8140    1.2730   -4.3370 ca        1 CLK     -0.088000
     14 C8         -2.7990    0.4350   -5.4500 ca        1 CLK     -0.089000
     15 C9         -3.4770   -0.7950   -5.3920 ca        1 CLK     -0.046400
     16 N9         -3.5090   -1.6600   -6.5730 n4        1 CLK     -0.707000
     17 C10        -4.1470   -1.1890   -4.2210 ca        1 CLK     -0.089000
     18 C11        -4.1470   -0.3370   -3.1180 ca        1 CLK     -0.088000
     19 H1          1.4940    0.5080    0.7130 h2        1 CLK      0.185700
     20 H2         -2.2720    0.4200   -0.5180 hn        1 CLK      0.486300
     21 H3         -1.4400    2.2990   -2.2750 hx        1 CLK      0.129700
     22 H4C1       -1.3350    4.0320   -0.3990 h1        1 CLK      0.081200
     23 H4C2       -2.6230    4.4120   -1.6450 h1        1 CLK      0.081200
     24 H4         -3.4380    4.4910    0.5440 ho        1 CLK      0.467000
     25 H5         -4.0730    2.8180   -2.4190 h1        1 CLK      0.109700
     26 HA         -4.8070    2.0200   -0.5140 ho        1 CLK      0.467000
     27 H7         -2.3030    2.2490   -4.4020 ha        1 CLK      0.182000
     28 H8         -2.2650    0.7600   -6.3610 ha        1 CLK      0.176000
     29 H9N1       -3.6230   -2.6420   -6.2910 hn        1 CLK      0.474800
     30 H9N2       -4.3010   -1.3910   -7.1730 hn        1 CLK      0.474800
     31 H10        -4.6850   -2.1510   -4.1560 ha        1 CLK      0.176000
     32 H11        -4.7010   -0.6320   -2.2060 ha        1 CLK      0.182000
     33 H22        -1.9850    1.6750    0.5330 hn        1 CLK      0.486300
     34 H93        -2.6370   -1.5630   -7.1080 hn        1 CLK      0.474800
@<TRIPOS>BOND
     1    1    2 1   
     2    1    3 1   
     3    1    4 1   
     4    1   19 1   
     5    4    5 2   
     6    4    6 1   
     7    6    7 1   
     8    6   20 1   
     9    6   33 1   
    10    7    8 1   
    11    7   10 1   
    12    7   21 1   
    13    8    9 1   
    14    8   22 1   
    15    8   23 1   
    16    9   24 1   
    17   10   11 1   
    18   10   12 1   
    19   10   25 1   
    20   11   26 1   
    21   12   13 ar  
    22   12   18 ar  
    23   13   14 ar  
    24   13   27 1   
    25   14   15 ar  
    26   14   28 1   
    27   15   16 1   
    28   15   17 ar  
    29   16   29 1   
    30   16   30 1   
    31   16   34 1   
    32   17   18 ar  
    33   17   31 1   
    34   18   32 1   
@<TRIPOS>SUBSTRUCTURE
     1 CLK         1 TEMP              0 ****  ****    0 ROOT
