@<TRIPOS>MOLECULE
CLK
   32    30     1     0     0
SMALL
bcc


@<TRIPOS>ATOM
      1 C1          1.0450   -0.0550    4.4870 c3        1 CLK     -0.080000
      2 CL1A        2.2100   -1.2130    5.0080 cl        1 CLK     -0.052000
      3 CL1B        1.3700    1.4570    5.2380 cl        1 CLK     -0.052000
      4 C2          1.1270    0.1010    2.9790 c2        1 CLK      0.303000
      5 O2          2.2150    0.0430    2.4190 o         1 CLK     -0.347000
      6 N2         -0.0600    0.4780    2.2270 n         1 CLK     -0.337000
      7 C3          0.0580    0.9330    0.8910 c3        1 CLK     -0.065000
      8 C4          0.1330    2.4630    0.8720 c3        1 CLK     -0.021000
      9 O4          1.4660    2.8840    1.2080 oh        1 CLK     -0.317000
     10 C5         -1.1610    0.4760    0.0940 c3        1 CLK      0.061000
     11 O5         -1.9780   -0.3160    0.9010 oh        1 CLK     -0.319000
     12 C6         -0.7070   -0.3220   -1.1150 c2        1 CLK     -0.166000
     13 C7         -0.2790    0.3370   -2.2440 c2        1 CLK     -0.075000
     14 C8         -0.0010   -0.3700   -3.3940 c1        1 CLK     -0.195000
     15 C9         -0.1520   -1.7570   -3.4150 c1        1 CLK      0.075000
     16 N9          0.2650   -2.5070   -4.5670 n3        1 CLK     -0.333000
     17 C10        -0.5790   -2.4200   -2.2910 c1        1 CLK     -0.190000
     18 C11        -0.8580   -1.7160   -1.1390 c1        1 CLK     -0.078000
     19 H1          0.2050   -0.3390    4.7200 h2        1 CLK      0.172000
     20 H2         -0.8710    0.3690    2.5900 hn        1 CLK      0.228000
     21 H3          0.8980    0.5480    0.4740 h1        1 CLK      0.139000
     22 H4C1       -0.4650    2.8080    1.4880 h1        1 CLK      0.096000
     23 H4C2       -0.1110    2.8140   -0.0880 h1        1 CLK      0.096000
     24 H4          1.5500    3.7150    1.0430 ho        1 CLK      0.206000
     25 H5         -1.6680    1.2650   -0.2080 h1        1 CLK      0.115000
     26 HA         -2.8020   -0.0700    0.8050 ho        1 CLK      0.217000
     27 H7         -0.1750    1.2900   -2.2300 ha        1 CLK      0.130000
     28 H8          0.3140    0.1140   -4.2200 ha        1 CLK      0.134000
     29 H9N1       -0.1520   -3.2520   -4.7810 hn        1 CLK      0.190500
     30 H9N2        0.9980   -2.2160   -5.0780 hn        1 CLK      0.190500
     31 H10        -0.6820   -3.3650   -2.3070 ha        1 CLK      0.136000
     32 H11        -1.1530   -2.1760   -0.3660 ha        1 CLK      0.138000
@<TRIPOS>BOND
     1    1    2 1   
     2    1    3 1   
     3    1    4 1   
     4    1   19 1   
     5    4    5 1   
     6    4    6 1   
     7    6    7 1   
     8    6   20 1   
     9    7    8 1   
    10    7   10 1   
    11    7   21 1   
    12    8    9 1   
    13    8   22 1   
    14    8   23 1   
    15    9   24 1   
    16   10   11 1   
    17   10   12 1   
    18   10   25 1   
    19   11   26 1   
    20   12   13 1   
    21   12   18 1   
    22   13   14 1   
    23   13   27 1   
    24   14   28 1   
    25   15   16 1   
    26   15   17 1   
    27   16   29 1   
    28   16   30 1   
    29   17   31 1   
    30   18   32 1   
@<TRIPOS>SUBSTRUCTURE
     1 CLK         1 TEMP              0 ****  ****    0 ROOT
