@<TRIPOS>MOLECULE
CLK
   33    33     1     0     0
SMALL
bcc


@<TRIPOS>ATOM
      1 C1          0.3870    0.1760   -0.0130 c3        1 CLK      0.020100
      2 Cl1A       -0.1810    0.1810    1.6310 cl        1 CLK     -0.054400
      3 Cl1B       -0.0410   -1.2780   -0.8730 cl        1 CLK     -0.054400
      4 C2         -0.1640    1.3830   -0.7550 c         1 CLK      0.529100
      5 O2          0.5120    2.2670   -1.2540 o         1 CLK     -0.377100
      6 N2         -1.6540    1.4480   -0.8610 ny        1 CLK     -0.661800
      7 C3         -2.1780    2.6730   -1.5600 c3        1 CLK      0.080500
      8 C4         -2.2260    3.8770   -0.5890 c3        1 CLK      0.121400
      9 O4         -2.7500    3.4940    0.6580 oh        1 CLK     -0.600800
     10 C5         -3.5890    2.3850   -2.1450 c3        1 CLK      0.196400
     11 O5         -4.4280    2.1690   -1.0180 oh        1 CLK     -0.633800
     12 C6         -3.5600    1.2240   -3.0810 ca        1 CLK     -0.285300
     13 C7         -3.1510    1.4140   -4.4080 ca        1 CLK     -0.068500
     14 C8         -3.1280    0.3600   -5.3050 ca        1 CLK     -0.210000
     15 C9         -3.5310   -0.9430   -4.8990 ca        1 CLK      0.228600
     16 N9         -3.4530   -2.0070   -5.7620 nv        1 CLK     -0.846200
     17 C10        -3.9640   -1.1200   -3.5550 ca        1 CLK     -0.210000
     18 C11        -3.9760   -0.0510   -2.6760 ca        1 CLK     -0.068500
     19 H1          1.5110    0.2480    0.0070 h2        1 CLK      0.173700
     20 H2         -1.9960    0.6110   -1.3640 hn        1 CLK      0.489300
     21 H3         -1.4860    2.9130   -2.4200 hx        1 CLK      0.126700
     22 H4C1       -1.1830    4.2420   -0.3780 h1        1 CLK      0.089200
     23 H4C2       -2.8250    4.6920   -1.0730 h1        1 CLK      0.089200
     24 H4         -3.7170    3.4890    0.5950 ho        1 CLK      0.443000
     25 H5         -3.9160    3.3210   -2.6870 h1        1 CLK      0.087700
     26 HA         -5.3170    1.9800   -1.3510 ho        1 CLK      0.450000
     27 H7         -2.8500    2.4180   -4.7490 ha        1 CLK      0.137500
     28 H8         -2.8040    0.5380   -6.3420 ha        1 CLK      0.153500
     29 H9N1       -3.8990   -2.8560   -5.5140 hn        1 CLK      0.436800
     30 H9N2       -3.3080   -1.8290   -6.7260 hn        1 CLK      0.436800
     31 H10        -4.3050   -2.1090   -3.2130 ha        1 CLK      0.153500
     32 H11        -4.3440   -0.2040   -1.6470 ha        1 CLK      0.137500
     33 H22        -2.0620    1.4500    0.0940 hn        1 CLK      0.489300
@<TRIPOS>BOND
     1    1    2 1   
     2    1    3 1   
     3    1    4 1   
     4    1   19 1   
     5    4    5 2   
     6    4    6 1   
     7    6    7 1   
     8    6   20 1   
     9    6   33 1   
    10    7    8 1   
    11    7   10 1   
    12    7   21 1   
    13    8    9 1   
    14    8   22 1   
    15    8   23 1   
    16    9   24 1   
    17   10   11 1   
    18   10   12 1   
    19   10   25 1   
    20   11   26 1   
    21   12   13 ar  
    22   12   18 ar  
    23   13   14 ar  
    24   13   27 1   
    25   14   15 ar  
    26   14   28 1   
    27   15   16 1   
    28   15   17 ar  
    29   16   29 1   
    30   16   30 1   
    31   17   18 ar  
    32   17   31 1   
    33   18   32 1   
@<TRIPOS>SUBSTRUCTURE
     1 CLK         1 TEMP              0 ****  ****    0 ROOT
