@<TRIPOS>MOLECULE
CLM
   32    32     1     0     0
SMALL
bcc


@<TRIPOS>ATOM
      1 C1          1.7560    0.5260    2.4310 c3        1 CLM      0.054100
      2 CL1         1.3470    0.4070    4.1270 cl        1 CLM     -0.120400
      3 CL2         2.2750   -1.0110    1.7800 cl        1 CLM     -0.120400
      4 C2          0.5690    1.0730    1.6370 c         1 CLM      0.656100
      5 O2          0.6900    2.1480    1.0220 o         1 CLM     -0.585100
      6 N2         -0.5760    0.3090    1.6010 n         1 CLM     -0.536900
      7 C3         -1.8050    0.8120    1.0330 c3        1 CLM      0.024700
      8 C4         -2.9370    0.9040    2.0870 c3        1 CLM      0.119400
      9 O4         -3.0960   -0.2940    2.8110 oh        1 CLM     -0.603800
     10 C5         -2.3110   -0.0460   -0.1600 c3        1 CLM      0.172400
     11 O5         -2.7120   -1.3300    0.2930 oh        1 CLM     -0.603800
     12 C6         -1.3670   -0.1330   -1.3240 ca        1 CLM     -0.080300
     13 C7         -1.4150   -1.2740   -2.1400 ca        1 CLM     -0.130500
     14 C8         -0.6020   -1.3840   -3.2630 ca        1 CLM     -0.067000
     15 C9          0.2710   -0.3300   -3.5790 ca        1 CLM     -0.172200
     16 N9          1.1430   -0.4340   -4.7790 no        1 CLM      0.312200
     17 O9A         1.8750    0.4800   -5.0470 o         1 CLM     -0.206500
     18 O9B         1.0920   -1.4300   -5.4500 o         1 CLM     -0.206500
     19 C10         0.3280    0.8180   -2.7750 ca        1 CLM     -0.067000
     20 C11        -0.4940    0.9070   -1.6530 ca        1 CLM     -0.130500
     21 H1          2.6180    1.2370    2.3410 h2        1 CLM      0.134700
     22 HN2        -0.6780   -0.4370    2.2550 hn        1 CLM      0.332500
     23 H3         -1.6270    1.8610    0.6450 h1        1 CLM      0.097700
     24 H41        -3.8880    1.1960    1.5690 h1        1 CLM      0.059700
     25 H42        -2.6770    1.6750    2.8630 h1        1 CLM      0.059700
     26 HO4        -3.5070   -0.9420    2.2210 ho        1 CLM      0.422000
     27 H5         -3.2760    0.4220   -0.5240 h1        1 CLM      0.094700
     28 HO5        -1.9150   -1.8310    0.5080 ho        1 CLM      0.416000
     29 H7         -2.1120   -2.0910   -1.8920 ha        1 CLM      0.164000
     30 H8         -0.6440   -2.2840   -3.8990 ha        1 CLM      0.174000
     31 H10         1.0180    1.6430   -3.0250 ha        1 CLM      0.174000
     32 H11        -0.4210    1.8080   -1.0190 ha        1 CLM      0.164000
@<TRIPOS>BOND
     1    1    2 1   
     2    1    3 1   
     3    1    4 1   
     4    1   21 1   
     5    4    5 2   
     6    4    6 1   
     7    6    7 1   
     8    6   22 1   
     9    7    8 1   
    10    7   10 1   
    11    7   23 1   
    12    8    9 1   
    13    8   24 1   
    14    8   25 1   
    15    9   26 1   
    16   10   11 1   
    17   10   12 1   
    18   10   27 1   
    19   11   28 1   
    20   12   13 ar  
    21   12   20 ar  
    22   13   14 ar  
    23   13   29 1   
    24   14   15 ar  
    25   14   30 1   
    26   15   16 1   
    27   15   19 ar  
    28   16   17 1   
    29   16   18 1   
    30   19   20 ar  
    31   19   31 1   
    32   20   32 1   
@<TRIPOS>SUBSTRUCTURE
     1 CLM         1 TEMP              0 ****  ****    0 ROOT
