@<TRIPOS>MOLECULE
CLM
   32    30     1     0     0
SMALL
bcc


@<TRIPOS>ATOM
      1 C1          1.1430    0.5640    4.3650 c3        1 CLM     -0.080000
      2 CL1         2.3440   -0.5160    5.0200 cl        1 CLM     -0.053000
      3 CL2         1.4590    2.1870    4.9150 cl        1 CLM     -0.053000
      4 C2          1.1980    0.5230    2.8540 c2        1 CLM      0.299000
      5 O2          2.2100    0.1520    2.2930 o         1 CLM     -0.331000
      6 N2          0.0600    0.8920    2.0930 n         1 CLM     -0.357000
      7 C3          0.1770    1.0880    0.6900 c3        1 CLM     -0.007000
      8 C4          0.4100    2.5550    0.4040 c3        1 CLM     -0.025000
      9 O4          1.7780    2.8540    0.5680 oh        1 CLM     -0.316000
     10 C5         -1.0970    0.6390    0.0110 c3        1 CLM      0.043000
     11 O5         -1.9790    0.1080    0.9710 oh        1 CLM     -0.326000
     12 C6         -0.7720   -0.4220   -1.0160 c2        1 CLM     -0.081000
     13 C7         -1.3400   -1.6820   -0.9120 c2        1 CLM     -0.132000
     14 C8         -1.1120   -2.6290   -1.8980 c1        1 CLM     -0.065000
     15 C9         -0.3160   -2.3160   -2.9890 c1        1 CLM     -0.126000
     16 N9         -0.1440   -3.2580   -4.0350 no        1 CLM      0.568000
     17 O9A        -0.6060   -4.5360   -3.8850 o         1 CLM     -0.355500
     18 O9B         0.3690   -2.9140   -5.0890 o         1 CLM     -0.355500
     19 C10         0.2520   -1.0560   -3.0930 c1        1 CLM     -0.062000
     20 C11         0.0240   -0.1090   -2.1070 c1        1 CLM     -0.125000
     21 H1          0.2570    0.2850    4.6660 h2        1 CLM      0.175000
     22 HN2        -0.7450    1.0100    2.5040 hn        1 CLM      0.247000
     23 H3          0.9290    0.5660    0.3490 h1        1 CLM      0.147000
     24 H41         0.1390    2.7550   -0.5150 h1        1 CLM      0.098000
     25 H42        -0.1190    3.0970    1.0260 h1        1 CLM      0.098000
     26 HO4         1.9300    3.6940    0.3200 ho        1 CLM      0.207000
     27 H5         -1.5170    1.4030   -0.4310 h1        1 CLM      0.099000
     28 HO5        -2.7540    0.5400    0.9320 ho        1 CLM      0.214000
     29 H7         -1.9010   -1.9030   -0.1450 ha        1 CLM      0.156000
     30 H8         -1.5120   -3.5160   -1.8250 ha        1 CLM      0.173000
     31 H10         0.8120   -0.8350   -3.8600 ha        1 CLM      0.175000
     32 H11         0.4240    0.7790   -2.1800 ha        1 CLM      0.152000
@<TRIPOS>BOND
     1    1    2 1   
     2    1    3 1   
     3    1    4 1   
     4    1   21 1   
     5    4    5 1   
     6    4    6 1   
     7    6    7 1   
     8    6   22 1   
     9    7    8 1   
    10    7   10 1   
    11    7   23 1   
    12    8    9 1   
    13    8   24 1   
    14    8   25 1   
    15    9   26 1   
    16   10   11 1   
    17   10   12 1   
    18   10   27 1   
    19   11   28 1   
    20   12   13 1   
    21   12   20 1   
    22   13   14 1   
    23   13   29 1   
    24   14   30 1   
    25   15   16 1   
    26   15   19 1   
    27   16   17 1   
    28   16   18 1   
    29   19   31 1   
    30   20   32 1   
@<TRIPOS>SUBSTRUCTURE
     1 CLM         1 TEMP              0 ****  ****    0 ROOT
