@<TRIPOS>MOLECULE
CLM
   33    33     1     0     0
SMALL
bcc


@<TRIPOS>ATOM
      1 C1          0.3390    0.1710    0.0970 c3        1 CLM      0.020100
      2 CL1        -0.2160    0.2530    1.7420 cl        1 CLM     -0.049900
      3 CL2        -0.1270   -1.3040   -0.7040 cl        1 CLM     -0.049900
      4 C2         -0.1920    1.3600   -0.6880 c         1 CLM      0.529100
      5 O2          0.4900    2.2110   -1.2310 o         1 CLM     -0.371100
      6 N2         -1.6860    1.4540   -0.7800 n4        1 CLM     -0.665800
      7 C3         -2.1910    2.6500   -1.5380 c3        1 CLM      0.081500
      8 C4         -2.2420    3.8950   -0.6150 c3        1 CLM      0.121400
      9 O4         -2.7950    3.5630    0.6340 oh        1 CLM     -0.595800
     10 C5         -3.5980    2.3640   -2.1290 c3        1 CLM      0.174400
     11 O5         -4.4370    2.1080   -1.0130 oh        1 CLM     -0.625800
     12 C6         -3.5610    1.2220   -3.1000 ca        1 CLM     -0.160300
     13 C7         -3.9620   -0.0610   -2.7120 ca        1 CLM     -0.137500
     14 C8         -3.9420   -1.1140   -3.6240 ca        1 CLM     -0.056000
     15 C9         -3.5060   -0.8720   -4.9360 ca        1 CLM     -0.152200
     16 N9         -3.4670   -1.9990   -5.9180 no        1 CLM      0.312200
     17 O9A        -3.1240   -1.7630   -7.0420 o         1 CLM     -0.174500
     18 O9B        -3.7730   -3.0940   -5.5370 o         1 CLM     -0.174500
     19 C10        -3.1120    0.4130   -5.3400 ca        1 CLM     -0.056000
     20 C11        -3.1430    1.4550   -4.4150 ca        1 CLM     -0.137500
     21 H1          1.4650    0.2200    0.1060 h2        1 CLM      0.178700
     22 HN2        -2.0530    0.5970   -1.2220 hn        1 CLM      0.487300
     23 H3         -1.4840    2.8540   -2.3960 hx        1 CLM      0.130700
     24 H41        -2.8190    4.7000   -1.1400 h1        1 CLM      0.094200
     25 H42        -1.1980    4.2530   -0.3970 h1        1 CLM      0.094200
     26 HO4        -3.7610    3.5650    0.5530 ho        1 CLM      0.442000
     27 H5         -3.9360    3.3040   -2.6560 h1        1 CLM      0.098700
     28 HO5        -5.3400    1.9910   -1.3430 ho        1 CLM      0.455000
     29 H7         -4.3350   -0.2390   -1.6890 ha        1 CLM      0.156500
     30 H8         -4.2710   -2.1260   -3.3230 ha        1 CLM      0.193500
     31 H10        -2.7890    0.5970   -6.3820 ha        1 CLM      0.193500
     32 H11        -2.8490    2.4680   -4.7350 ha        1 CLM      0.156500
     33 H22        -2.0780    1.5190    0.1810 hn        1 CLM      0.487300
@<TRIPOS>BOND
     1    1    2 1   
     2    1    3 1   
     3    1    4 1   
     4    1   21 1   
     5    4    5 2   
     6    4    6 1   
     7    6    7 1   
     8    6   22 1   
     9    6   33 1   
    10    7    8 1   
    11    7   10 1   
    12    7   23 1   
    13    8    9 1   
    14    8   24 1   
    15    8   25 1   
    16    9   26 1   
    17   10   11 1   
    18   10   12 1   
    19   10   27 1   
    20   11   28 1   
    21   12   13 ar  
    22   12   20 ar  
    23   13   14 ar  
    24   13   29 1   
    25   14   15 ar  
    26   14   30 1   
    27   15   16 1   
    28   15   19 ar  
    29   16   17 1   
    30   16   18 1   
    31   19   20 ar  
    32   19   31 1   
    33   20   32 1   
@<TRIPOS>SUBSTRUCTURE
     1 CLM         1 TEMP              0 ****  ****    0 ROOT
