@<TRIPOS>MOLECULE
CLM
   33    33     1     0     0
SMALL
bcc


@<TRIPOS>ATOM
      1 C1          0.3110    0.1380    0.1180 c3        1 CLM      0.020100
      2 Cl1        -0.2590    0.2140    1.7590 cl        1 CLM     -0.049900
      3 Cl2        -0.1580   -1.3300   -0.6960 cl        1 CLM     -0.049900
      4 C2         -0.2040    1.3340   -0.6650 c         1 CLM      0.529100
      5 O2          0.4890    2.1840   -1.1970 o         1 CLM     -0.371100
      6 N2         -1.6960    1.4390   -0.7700 ny        1 CLM     -0.665800
      7 C3         -2.1860    2.6430   -1.5280 c3        1 CLM      0.081500
      8 C4         -2.2370    3.8830   -0.5990 c3        1 CLM      0.121400
      9 O4         -2.8040    3.5500    0.6430 oh        1 CLM     -0.595800
     10 C5         -3.5890    2.3690   -2.1330 c3        1 CLM      0.174400
     11 O5         -4.4400    2.1140   -1.0260 oh        1 CLM     -0.625800
     12 C6         -3.5510    1.2320   -3.1090 ca        1 CLM     -0.160300
     13 C7         -3.9650   -0.0510   -2.7310 ca        1 CLM     -0.137500
     14 C8         -3.9430   -1.0990   -3.6470 ca        1 CLM     -0.056000
     15 C9         -3.4940   -0.8540   -4.9540 ca        1 CLM     -0.152200
     16 N9         -3.4530   -1.9770   -5.9410 no        1 CLM      0.312200
     17 O9A        -3.0970   -1.7390   -7.0600 o         1 CLM     -0.174500
     18 O9B        -3.7700   -3.0710   -5.5670 o         1 CLM     -0.174500
     19 C10        -3.0870    0.4290   -5.3490 ca        1 CLM     -0.056000
     20 C11        -3.1190    1.4680   -4.4180 ca        1 CLM     -0.137500
     21 H1          1.4370    0.1780    0.1370 h2        1 CLM      0.178700
     22 HN2        -2.0970    1.5040    0.1870 hn        1 CLM      0.487300
     23 H3         -1.4700    2.8460   -2.3780 hx        1 CLM      0.130700
     24 H41        -2.8030    4.6950   -1.1260 h1        1 CLM      0.094200
     25 H42        -1.1920    4.2330   -0.3700 h1        1 CLM      0.094200
     26 HO4        -3.7690    3.5590    0.5530 ho        1 CLM      0.442000
     27 H5         -3.9160    3.3150   -2.6590 h1        1 CLM      0.098700
     28 HO5        -5.3410    2.0050   -1.3650 ho        1 CLM      0.455000
     29 H7         -4.3490   -0.2310   -1.7120 ha        1 CLM      0.156500
     30 H8         -4.2820   -2.1110   -3.3540 ha        1 CLM      0.193500
     31 H10        -2.7530    0.6160   -6.3870 ha        1 CLM      0.193500
     32 H11        -2.8150    2.4800   -4.7310 ha        1 CLM      0.156500
     33 H22        -2.0660    0.5870   -1.2200 hn        1 CLM      0.487300
@<TRIPOS>BOND
     1    1    2 1   
     2    1    3 1   
     3    1    4 1   
     4    1   21 1   
     5    4    5 2   
     6    4    6 1   
     7    6    7 1   
     8    6   22 1   
     9    6   33 1   
    10    7    8 1   
    11    7   10 1   
    12    7   23 1   
    13    8    9 1   
    14    8   24 1   
    15    8   25 1   
    16    9   26 1   
    17   10   11 1   
    18   10   12 1   
    19   10   27 1   
    20   11   28 1   
    21   12   13 ar  
    22   12   20 ar  
    23   13   14 ar  
    24   13   29 1   
    25   14   15 ar  
    26   14   30 1   
    27   15   16 1   
    28   15   19 ar  
    29   16   17 1   
    30   16   18 1   
    31   19   20 ar  
    32   19   31 1   
    33   20   32 1   
@<TRIPOS>SUBSTRUCTURE
     1 CLM         1 TEMP              0 ****  ****    0 ROOT
