@<TRIPOS>MOLECULE
CLM
   32    32     1     0     0
SMALL
bcc


@<TRIPOS>ATOM
      1 C1          0.1880    0.2380    0.0210 c3        1 CLM      0.056100
      2 CL1         0.0150    0.5990    1.7250 cl        1 CLM     -0.123900
      3 CL2        -0.5890   -1.2710   -0.4020 cl        1 CLM     -0.123900
      4 C2         -0.3680    1.3830   -0.8260 c         1 CLM      0.655100
      5 O2          0.3970    2.0200   -1.5710 o         1 CLM     -0.575100
      6 N2         -1.7020    1.6830   -0.6860 n         1 CLM     -0.548900
      7 C3         -2.3510    2.6640   -1.5230 c3        1 CLM      0.030700
      8 C4         -2.5350    4.0220   -0.8060 c3        1 CLM      0.112400
      9 O4         -3.4200    3.9320    0.2910 oh        1 CLM     -0.608800
     10 C5         -3.7360    2.1750   -2.0400 c3        1 CLM      0.178400
     11 O5         -4.5360    1.7000   -0.9680 oh        1 CLM     -0.607800
     12 C6         -3.5830    1.0730   -3.0480 ca        1 CLM     -0.051300
     13 C7         -4.0140   -0.2290   -2.7740 ca        1 CLM     -0.125000
     14 C8         -3.8760   -1.2350   -3.7270 ca        1 CLM     -0.067500
     15 C9         -3.2980   -0.9280   -4.9680 ca        1 CLM     -0.173200
     16 N9         -3.1450   -1.9950   -5.9920 no        1 CLM      0.313200
     17 O9A        -2.6630   -1.7140   -7.0570 o         1 CLM     -0.207000
     18 O9B        -3.5070   -3.1100   -5.7290 o         1 CLM     -0.207000
     19 C10        -2.8650    0.3770   -5.2570 ca        1 CLM     -0.067500
     20 C11        -3.0140    1.3690   -4.2930 ca        1 CLM     -0.125000
     21 H1          1.2830    0.1230   -0.1880 h2        1 CLM      0.134700
     22 HN2        -2.2990    1.0720   -0.1740 hn        1 CLM      0.335500
     23 H3         -1.6920    2.8600   -2.4250 h1        1 CLM      0.095700
     24 H41        -1.5390    4.4260   -0.4860 h1        1 CLM      0.064200
     25 H42        -3.0250    4.7460   -1.5110 h1        1 CLM      0.064200
     26 HO4        -2.9560    3.4780    1.0050 ho        1 CLM      0.413000
     27 H5         -4.2420    3.0540   -2.5340 h1        1 CLM      0.062700
     28 HO5        -4.7720    2.4730   -0.4330 ho        1 CLM      0.435000
     29 H7         -4.4750   -0.4580   -1.7980 ha        1 CLM      0.157500
     30 H8         -4.2170   -2.2620   -3.5090 ha        1 CLM      0.173000
     31 H10        -2.4130    0.6100   -6.2360 ha        1 CLM      0.173000
     32 H11        -2.6790    2.3940   -4.5180 ha        1 CLM      0.157500
@<TRIPOS>BOND
     1    1    2 1   
     2    1    3 1   
     3    1    4 1   
     4    1   21 1   
     5    4    5 2   
     6    4    6 1   
     7    6    7 1   
     8    6   22 1   
     9    7    8 1   
    10    7   10 1   
    11    7   23 1   
    12    8    9 1   
    13    8   24 1   
    14    8   25 1   
    15    9   26 1   
    16   10   11 1   
    17   10   12 1   
    18   10   27 1   
    19   11   28 1   
    20   12   13 ar  
    21   12   20 ar  
    22   13   14 ar  
    23   13   29 1   
    24   14   15 ar  
    25   14   30 1   
    26   15   16 1   
    27   15   19 ar  
    28   16   17 1   
    29   16   18 1   
    30   19   20 ar  
    31   19   31 1   
    32   20   32 1   
@<TRIPOS>SUBSTRUCTURE
     1 CLM         1 TEMP              0 ****  ****    0 ROOT
