@<TRIPOS>MOLECULE
CLQ
   50    51     1     0     0
SMALL
bcc


@<TRIPOS>ATOM
      1 CL         -0.0150    0.5600    0.1830 cl        1 CLQ      0.000600
      2 N1          5.0380    0.1220   -0.0610 nb        1 CLQ     -0.574000
      3 C1          6.2100   -0.1220    0.4890 ca        1 CLQ      0.421200
      4 C2          6.3990   -0.3930    1.8820 ca        1 CLQ     -0.194300
      5 C3          5.2850   -0.3950    2.7020 ca        1 CLQ     -0.021400
      6 C4          3.9770   -0.1740    2.1500 ca        1 CLQ     -0.143300
      7 C5          2.7670   -0.2290    2.8860 ca        1 CLQ     -0.172000
      8 C6          1.5550   -0.0090    2.2770 ca        1 CLQ     -0.058000
      9 C7          1.4900    0.2850    0.8890 ca        1 CLQ      0.025400
     10 C8          2.6400    0.3330    0.1310 ca        1 CLQ     -0.132300
     11 C9          3.9140    0.0960    0.7400 ca        1 CLQ      0.416600
     12 N2          5.4200   -0.6690    4.1390 n4        1 CLQ     -0.643400
     13 C10         6.6290   -0.0250    4.7920 c3        1 CLQ      0.134500
     14 C11         6.2660    0.6760    6.1090 c3        1 CLQ     -0.113400
     15 C12         5.7450    2.0860    5.9000 c3        1 CLQ     -0.111400
     16 C13         5.6250    2.7790    7.2580 c3        1 CLQ      0.102800
     17 N3          5.3050    4.2390    7.1790 n4        1 CLQ     -0.693400
     18 C14         3.8430    4.4650    6.9040 c3        1 CLQ      0.111800
     19 C15         3.5470    5.8200    6.2980 c3        1 CLQ     -0.138600
     20 C16         5.7210    4.9430    8.4480 c3        1 CLQ      0.111800
     21 C17         7.2040    5.2280    8.5210 c3        1 CLQ     -0.138600
     22 C18         7.7170   -1.0640    5.0530 c3        1 CLQ     -0.141100
     23 H51         2.7570   -0.4820    3.9560 ha        1 CLQ      0.115000
     24 H61         0.6170   -0.0710    2.8570 ha        1 CLQ      0.176000
     25 H81         2.5990    0.5440   -0.9550 ha        1 CLQ      0.202000
     26 HN21        4.5730   -0.3410    4.6170 hn        1 CLQ      0.458800
     27 H101        7.0220    0.7480    4.0630 hx        1 CLQ      0.116700
     28 H111        7.2090    0.7190    6.7240 hc        1 CLQ      0.091700
     29 H112        5.5280    0.0730    6.7030 hc        1 CLQ      0.091700
     30 H121        4.7480    2.0590    5.3860 hc        1 CLQ      0.069700
     31 H122        6.4530    2.6530    5.2360 hc        1 CLQ      0.069700
     32 H131        4.8230    2.2820    7.8760 hx        1 CLQ      0.110200
     33 H132        6.6070    2.6770    7.8090 hx        1 CLQ      0.110200
     34 H141        3.5030    3.6570    6.1940 hx        1 CLQ      0.105450
     35 H142        3.2880    4.3420    7.8780 hx        1 CLQ      0.105450
     36 H151        2.4450    5.8740    6.0970 hc        1 CLQ      0.084367
     37 H152        3.8080    6.6590    6.9890 hc        1 CLQ      0.084367
     38 H153        4.0840    5.9700    5.3290 hc        1 CLQ      0.084367
     39 H161        5.1510    5.9180    8.4900 hx        1 CLQ      0.105450
     40 H162        5.3950    4.3030    9.3170 hx        1 CLQ      0.105450
     41 H171        7.8160    4.2950    8.5540 hc        1 CLQ      0.084367
     42 H172        7.5510    5.8620    7.6670 hc        1 CLQ      0.084367
     43 H173        7.3960    5.7980    9.4690 hc        1 CLQ      0.084367
     44 H181        7.4120   -1.7820    5.8540 hc        1 CLQ      0.088033
     45 H182        8.6450   -0.5350    5.3890 hc        1 CLQ      0.088033
     46 H183        7.9710   -1.6390    4.1280 hc        1 CLQ      0.088033
     47 H11         7.0900   -0.1140   -0.1880 h4        1 CLQ      0.072100
     48 H22         5.4810   -1.6920    4.2590 hn        1 CLQ      0.458800
     49 H31         5.8430    4.6510    6.4040 hn        1 CLQ      0.446800
     50 H21         7.4200   -0.5950    2.2410 ha        1 CLQ      0.168000
@<TRIPOS>BOND
     1    1    9 1   
     2    2    3 ar  
     3    2   11 ar  
     4    3    4 ar  
     5    3   47 1   
     6    4    5 ar  
     7    4   50 1   
     8    5    6 ar  
     9    5   12 1   
    10    6    7 ar  
    11    6   11 ar  
    12    7    8 ar  
    13    7   23 1   
    14    8    9 ar  
    15    8   24 1   
    16    9   10 ar  
    17   10   11 ar  
    18   10   25 1   
    19   12   13 1   
    20   12   26 1   
    21   12   48 1   
    22   13   14 1   
    23   13   22 1   
    24   13   27 1   
    25   14   15 1   
    26   14   28 1   
    27   14   29 1   
    28   15   16 1   
    29   15   30 1   
    30   15   31 1   
    31   16   17 1   
    32   16   32 1   
    33   16   33 1   
    34   17   18 1   
    35   17   20 1   
    36   17   49 1   
    37   18   19 1   
    38   18   34 1   
    39   18   35 1   
    40   19   36 1   
    41   19   37 1   
    42   19   38 1   
    43   20   21 1   
    44   20   39 1   
    45   20   40 1   
    46   21   41 1   
    47   21   42 1   
    48   21   43 1   
    49   22   44 1   
    50   22   45 1   
    51   22   46 1   
@<TRIPOS>SUBSTRUCTURE
     1 CLQ         1 TEMP              0 ****  ****    0 ROOT
