@<TRIPOS>MOLECULE
CLQ
   48    49     1     0     0
SMALL
bcc


@<TRIPOS>ATOM
      1 CL          1.7330    1.0030   -6.1080 cl        1 CLQ     -0.091400
      2 N1         -1.8770   -1.5970   -3.6480 nb        1 CLQ     -0.694000
      3 C1         -2.5740   -1.8510   -2.5540 ca        1 CLQ      0.452200
      4 C2         -2.4130   -1.1800   -1.3140 ca        1 CLQ     -0.346300
      5 C3         -1.4430   -0.1830   -1.1940 ca        1 CLQ      0.218600
      6 C4         -0.6500    0.1250   -2.3730 ca        1 CLQ     -0.184300
      7 C5          0.3720    1.1080   -2.3880 ca        1 CLQ     -0.097000
      8 C6          1.0960    1.3730   -3.5250 ca        1 CLQ     -0.138000
      9 C7          0.8250    0.6510   -4.7130 ca        1 CLQ      0.029400
     10 C8         -0.1490   -0.3180   -4.7470 ca        1 CLQ     -0.169300
     11 C9         -0.9140   -0.6100   -3.5710 ca        1 CLQ      0.429600
     12 N2         -1.1710    0.4530    0.0120 nh        1 CLQ     -0.736600
     13 C10        -2.0930    0.3690    1.1310 c3        1 CLQ      0.204500
     14 C11        -1.4700    0.9480    2.4130 c3        1 CLQ     -0.082400
     15 C12        -0.3070    0.1180    2.9100 c3        1 CLQ     -0.082400
     16 C13         0.2240    0.7090    4.2180 c3        1 CLQ      0.174800
     17 N3          1.2540   -0.1070    4.8460 n3        1 CLQ     -0.742600
     18 C14         2.5510    0.0230    4.1940 c3        1 CLQ      0.173800
     19 C15         3.4670   -1.1730    4.4020 c3        1 CLQ     -0.093100
     20 C16         1.3260    0.0880    6.2890 c3        1 CLQ      0.173800
     21 C17         0.1970   -0.5800    7.0590 c3        1 CLQ     -0.093100
     22 C18        -3.4350    1.0650    0.8930 c3        1 CLQ     -0.131100
     23 H21        -3.0600   -1.4710   -0.4770 ha        1 CLQ      0.145000
     24 H51         0.6190    1.6770   -1.4790 ha        1 CLQ      0.129000
     25 H61         1.8870    2.1380   -3.5230 ha        1 CLQ      0.148000
     26 H81        -0.3580   -0.8840   -5.6700 ha        1 CLQ      0.166000
     27 HN21       -0.7150    1.3360   -0.0620 hn        1 CLQ      0.408800
     28 H101       -2.2900   -0.7310    1.3140 h1        1 CLQ      0.068700
     29 H111       -2.2750    0.9730    3.1950 hc        1 CLQ      0.045700
     30 H112       -1.1430    2.0070    2.2410 hc        1 CLQ      0.045700
     31 H121        0.5050    0.0930    2.1380 hc        1 CLQ      0.056700
     32 H122       -0.6390   -0.9400    3.0750 hc        1 CLQ      0.056700
     33 H131       -0.6420    0.7990    4.9350 h1        1 CLQ      0.027700
     34 H132        0.5950    1.7570    4.0130 h1        1 CLQ      0.027700
     35 H141        3.0910    0.9540    4.5400 h1        1 CLQ      0.028700
     36 H142        2.3760    0.1350    3.0860 h1        1 CLQ      0.028700
     37 H151        4.3820   -1.0340    3.7770 hc        1 CLQ      0.038033
     38 H152        3.7810   -1.2710    5.4680 hc        1 CLQ      0.038033
     39 H153        2.9650   -2.1210    4.0940 hc        1 CLQ      0.038033
     40 H161        2.2990   -0.3530    6.6520 h1        1 CLQ      0.028700
     41 H162        1.3410    1.1870    6.5530 h1        1 CLQ      0.028700
     42 H171        0.3990   -0.4720    8.1520 hc        1 CLQ      0.038033
     43 H172       -0.7890   -0.1080    6.8350 hc        1 CLQ      0.038033
     44 H173        0.1320   -1.6660    6.8120 hc        1 CLQ      0.038033
     45 H181       -3.3010    2.1700    0.8100 hc        1 CLQ      0.045367
     46 H182       -3.9150    0.6930   -0.0440 hc        1 CLQ      0.045367
     47 H183       -4.1180    0.8530    1.7500 hc        1 CLQ      0.045367
     48 H11        -3.3380   -2.6470   -2.6410 h4        1 CLQ      0.020100
@<TRIPOS>BOND
     1    1    9 1   
     2    2    3 ar  
     3    2   11 ar  
     4    3    4 ar  
     5    3   48 1   
     6    4    5 ar  
     7    4   23 1   
     8    5    6 ar  
     9    5   12 1   
    10    6    7 ar  
    11    6   11 ar  
    12    7    8 ar  
    13    7   24 1   
    14    8    9 ar  
    15    8   25 1   
    16    9   10 ar  
    17   10   11 ar  
    18   10   26 1   
    19   12   13 1   
    20   12   27 1   
    21   13   14 1   
    22   13   22 1   
    23   13   28 1   
    24   14   15 1   
    25   14   29 1   
    26   14   30 1   
    27   15   16 1   
    28   15   31 1   
    29   15   32 1   
    30   16   17 1   
    31   16   33 1   
    32   16   34 1   
    33   17   18 1   
    34   17   20 1   
    35   18   19 1   
    36   18   35 1   
    37   18   36 1   
    38   19   37 1   
    39   19   38 1   
    40   19   39 1   
    41   20   21 1   
    42   20   40 1   
    43   20   41 1   
    44   21   42 1   
    45   21   43 1   
    46   21   44 1   
    47   22   45 1   
    48   22   46 1   
    49   22   47 1   
@<TRIPOS>SUBSTRUCTURE
     1 CLQ         1 TEMP              0 ****  ****    0 ROOT
