@<TRIPOS>MOLECULE
CLQ
   49    50     1     0     0
SMALL
bcc


@<TRIPOS>ATOM
      1 CL          0.0380   -0.5410   -0.2840 cl        1 CLQ     -0.067400
      2 N1          5.1030   -0.0990   -0.2330 nb        1 CLQ     -0.663000
      3 C1          6.2440   -0.0030    0.4190 ca        1 CLQ      0.443200
      4 C2          6.3670    0.0250    1.8380 ca        1 CLQ     -0.322300
      5 C3          5.2210   -0.0330    2.6220 ca        1 CLQ      0.174600
      6 C4          3.9440   -0.1570    1.9450 ca        1 CLQ     -0.170300
      7 C5          2.7050   -0.2490    2.6300 ca        1 CLQ     -0.111000
      8 C6          1.5190   -0.3680    1.9470 ca        1 CLQ     -0.124000
      9 C7          1.5190   -0.3960    0.5300 ca        1 CLQ      0.026400
     10 C8          2.6960   -0.3070   -0.1770 ca        1 CLQ     -0.159300
     11 C9          3.9430   -0.1850    0.5160 ca        1 CLQ      0.421600
     12 N2          5.2340    0.1010    4.0230 nh        1 CLQ     -0.736600
     13 C10         6.5020    0.1320    4.7340 c3        1 CLQ      0.194500
     14 C11         6.3270    0.7800    6.1230 c3        1 CLQ     -0.079400
     15 C12         5.9210    2.2340    6.0000 c3        1 CLQ     -0.104400
     16 C13         5.8180    2.8520    7.3900 c3        1 CLQ      0.102800
     17 N3          5.4310    4.3020    7.3660 n4        1 CLQ     -0.691400
     18 C14         3.9510    4.4590    7.1570 c3        1 CLQ      0.109300
     19 C15         3.5610    5.8090    6.5930 c3        1 CLQ     -0.134600
     20 C16         5.8720    4.9970    8.6230 c3        1 CLQ      0.109300
     21 C17         7.3440    5.3520    8.6320 c3        1 CLQ     -0.134600
     22 C18         7.1650   -1.2320    4.9230 c3        1 CLQ     -0.134100
     23 H51         2.6700   -0.2250    3.7290 ha        1 CLQ      0.124000
     24 H61         0.5630   -0.4440    2.4890 ha        1 CLQ      0.152000
     25 H81         2.7000   -0.3320   -1.2810 ha        1 CLQ      0.176000
     26 HN21        4.5720   -0.5030    4.4710 hn        1 CLQ      0.398800
     27 H101        7.2080    0.7940    4.1480 h1        1 CLQ      0.069700
     28 H111        5.5660    0.2150    6.7210 hc        1 CLQ      0.057700
     29 H112        7.3080    0.7020    6.6610 hc        1 CLQ      0.057700
     30 H121        4.9390    2.3070    5.4610 hc        1 CLQ      0.073700
     31 H122        6.6840    2.7830    5.3860 hc        1 CLQ      0.073700
     32 H131        6.8190    2.7720    7.9070 hx        1 CLQ      0.100200
     33 H132        5.0550    2.2990    8.0080 hx        1 CLQ      0.100200
     34 H141        3.4450    4.2870    8.1500 hx        1 CLQ      0.103200
     35 H142        3.6200    3.6490    6.4440 hx        1 CLQ      0.103200
     36 H151        3.8120    6.6460    7.2880 hc        1 CLQ      0.078033
     37 H152        2.4510    5.8090    6.4370 hc        1 CLQ      0.078033
     38 H153        4.0480    6.0010    5.6050 hc        1 CLQ      0.078033
     39 H161        5.6240    4.3230    9.4920 hx        1 CLQ      0.103200
     40 H162        5.2610    5.9420    8.7200 hx        1 CLQ      0.103200
     41 H171        7.6130    6.0250    7.7810 hc        1 CLQ      0.078033
     42 H172        7.5600    5.8970    9.5870 hc        1 CLQ      0.078033
     43 H173        7.9960    4.4460    8.5960 hc        1 CLQ      0.078033
     44 H181        6.5380   -1.8980    5.5620 hc        1 CLQ      0.054700
     45 H182        8.1610   -1.1030    5.4110 hc        1 CLQ      0.054700
     46 H183        7.3190   -1.7280    3.9330 hc        1 CLQ      0.054700
     47 H11         7.1590    0.0540   -0.2030 h4        1 CLQ      0.031100
     48 H31         5.9120    4.7460    6.5710 hn        1 CLQ      0.445800
     49 H21         7.3780    0.0800    2.2640 ha        1 CLQ      0.143000
@<TRIPOS>BOND
     1    1    9 1   
     2    2    3 ar  
     3    2   11 ar  
     4    3    4 ar  
     5    3   47 1   
     6    4    5 ar  
     7    4   49 1   
     8    5    6 ar  
     9    5   12 1   
    10    6    7 ar  
    11    6   11 ar  
    12    7    8 ar  
    13    7   23 1   
    14    8    9 ar  
    15    8   24 1   
    16    9   10 ar  
    17   10   11 ar  
    18   10   25 1   
    19   12   13 1   
    20   12   26 1   
    21   13   14 1   
    22   13   22 1   
    23   13   27 1   
    24   14   15 1   
    25   14   28 1   
    26   14   29 1   
    27   15   16 1   
    28   15   30 1   
    29   15   31 1   
    30   16   17 1   
    31   16   32 1   
    32   16   33 1   
    33   17   18 1   
    34   17   20 1   
    35   17   48 1   
    36   18   19 1   
    37   18   34 1   
    38   18   35 1   
    39   19   36 1   
    40   19   37 1   
    41   19   38 1   
    42   20   21 1   
    43   20   39 1   
    44   20   40 1   
    45   21   41 1   
    46   21   42 1   
    47   21   43 1   
    48   22   44 1   
    49   22   45 1   
    50   22   46 1   
@<TRIPOS>SUBSTRUCTURE
     1 CLQ         1 TEMP              0 ****  ****    0 ROOT
