@<TRIPOS>MOLECULE
CLQ
   49    50     1     0     0
SMALL
bcc


@<TRIPOS>ATOM
      1 Cl          0.0240   -0.5650   -0.2600 cl        1 CLQ     -0.067400
      2 N1          5.0890   -0.1260   -0.2250 nb        1 CLQ     -0.663000
      3 C1          6.2330   -0.0270    0.4240 ca        1 CLQ      0.443200
      4 C2          6.3600    0.0060    1.8430 ca        1 CLQ     -0.322300
      5 C3          5.2160   -0.0490    2.6300 ca        1 CLQ      0.174600
      6 C4          3.9370   -0.1740    1.9570 ca        1 CLQ     -0.170300
      7 C5          2.6990   -0.2630    2.6450 ca        1 CLQ     -0.111000
      8 C6          1.5120   -0.3840    1.9670 ca        1 CLQ     -0.124000
      9 C7          1.5080   -0.4170    0.5500 ca        1 CLQ      0.026400
     10 C8          2.6820   -0.3330   -0.1610 ca        1 CLQ     -0.159300
     11 C9          3.9320   -0.2080    0.5280 ca        1 CLQ      0.421600
     12 N2          5.2330    0.0900    4.0300 nu        1 CLQ     -0.736600
     13 C10         6.5020    0.1240    4.7370 c3        1 CLQ      0.194500
     14 C11         6.3320    0.7770    6.1240 c3        1 CLQ     -0.079400
     15 C12         5.9260    2.2310    5.9970 c3        1 CLQ     -0.104400
     16 C13         5.8250    2.8530    7.3850 c3        1 CLQ      0.102800
     17 N3          5.4370    4.3030    7.3570 nx        1 CLQ     -0.691400
     18 C14         3.9570    4.4600    7.1490 c3        1 CLQ      0.109300
     19 C15         3.5670    5.8080    6.5800 c3        1 CLQ     -0.134600
     20 C16         5.8800    5.0030    8.6110 c3        1 CLQ      0.109300
     21 C17         7.3520    5.3570    8.6180 c3        1 CLQ     -0.134600
     22 C18         7.1670   -1.2390    4.9290 c3        1 CLQ     -0.134100
     23 H51         2.6670   -0.2350    3.7440 ha        1 CLQ      0.124000
     24 H61         0.5570   -0.4580    2.5110 ha        1 CLQ      0.152000
     25 H81         2.6840   -0.3610   -1.2650 ha        1 CLQ      0.176000
     26 HN21        4.5720   -0.5120    4.4820 hn        1 CLQ      0.398800
     27 H101        7.2070    0.7840    4.1470 h1        1 CLQ      0.069700
     28 H111        5.5720    0.2140    6.7270 hc        1 CLQ      0.057700
     29 H112        7.3140    0.7000    6.6600 hc        1 CLQ      0.057700
     30 H121        6.6880    2.7780    5.3800 hc        1 CLQ      0.073700
     31 H122        4.9430    2.3020    5.4590 hc        1 CLQ      0.073700
     32 H131        5.0620    2.3030    8.0050 hx        1 CLQ      0.100200
     33 H132        6.8260    2.7750    7.9010 hx        1 CLQ      0.100200
     34 H141        3.4530    4.2910    8.1430 hx        1 CLQ      0.103200
     35 H142        3.6250    3.6470    6.4390 hx        1 CLQ      0.103200
     36 H151        3.8190    6.6470    7.2730 hc        1 CLQ      0.078033
     37 H152        4.0530    5.9970    5.5910 hc        1 CLQ      0.078033
     38 H153        2.4570    5.8070    6.4260 hc        1 CLQ      0.078033
     39 H161        5.2690    5.9480    8.7060 hx        1 CLQ      0.103200
     40 H162        5.6320    4.3320    9.4820 hx        1 CLQ      0.103200
     41 H171        7.5690    5.9060    9.5700 hc        1 CLQ      0.078033
     42 H172        7.6210    6.0260    7.7640 hc        1 CLQ      0.078033
     43 H173        8.0040    4.4510    8.5850 hc        1 CLQ      0.078033
     44 H181        7.3170   -1.7400    3.9420 hc        1 CLQ      0.054700
     45 H182        6.5410   -1.9030    5.5730 hc        1 CLQ      0.054700
     46 H183        8.1630   -1.1090    5.4140 hc        1 CLQ      0.054700
     47 H11         7.1450    0.0270   -0.2010 h4        1 CLQ      0.031100
     48 H31         5.9180    4.7450    6.5600 hn        1 CLQ      0.445800
     49 H21         7.3710    0.0620    2.2650 ha        1 CLQ      0.143000
@<TRIPOS>BOND
     1    1    9 1   
     2    2    3 ar  
     3    2   11 ar  
     4    3    4 ar  
     5    3   47 1   
     6    4    5 ar  
     7    4   49 1   
     8    5    6 ar  
     9    5   12 1   
    10    6    7 ar  
    11    6   11 ar  
    12    7    8 ar  
    13    7   23 1   
    14    8    9 ar  
    15    8   24 1   
    16    9   10 ar  
    17   10   11 ar  
    18   10   25 1   
    19   12   13 1   
    20   12   26 1   
    21   13   14 1   
    22   13   22 1   
    23   13   27 1   
    24   14   15 1   
    25   14   28 1   
    26   14   29 1   
    27   15   16 1   
    28   15   30 1   
    29   15   31 1   
    30   16   17 1   
    31   16   32 1   
    32   16   33 1   
    33   17   18 1   
    34   17   20 1   
    35   17   48 1   
    36   18   19 1   
    37   18   34 1   
    38   18   35 1   
    39   19   36 1   
    40   19   37 1   
    41   19   38 1   
    42   20   21 1   
    43   20   39 1   
    44   20   40 1   
    45   21   41 1   
    46   21   42 1   
    47   21   43 1   
    48   22   44 1   
    49   22   45 1   
    50   22   46 1   
@<TRIPOS>SUBSTRUCTURE
     1 CLQ         1 TEMP              0 ****  ****    0 ROOT
