@<TRIPOS>MOLECULE
CLQ
   48    44     1     0     0
SMALL
bcc


@<TRIPOS>ATOM
      1 CL         -5.5320   -4.3870   -4.9630 cl        1 CLQ     -0.013000
      2 N1         -1.8810   -0.7850   -5.5950 n1        1 CLQ     -0.167000
      3 C1         -0.9690    0.0960   -5.0960 c1        1 CLQ     -0.014000
      4 C2         -0.8080    0.2290   -3.7080 c1        1 CLQ     -0.280000
      5 C3         -1.5660   -0.5260   -2.8550 c1        1 CLQ      0.134000
      6 C4         -2.4930   -1.4210   -3.3640 c1        1 CLQ     -0.118000
      7 C5         -3.3150   -2.1530   -2.4940 c2        1 CLQ     -0.097000
      8 C6         -4.2930   -3.0140   -3.0120 c1        1 CLQ     -0.137000
      9 C7         -4.4480   -3.1420   -4.3870 c1        1 CLQ     -0.049000
     10 C8         -3.6310   -2.4140   -5.2530 c1        1 CLQ     -0.104000
     11 C9         -2.6500   -1.5500   -4.7350 c1        1 CLQ      0.035000
     12 N2         -1.5850   -0.2990   -1.3970 n3        1 CLQ     -0.292000
     13 C10        -0.3400   -0.0290   -0.6840 c3        1 CLQ      0.006000
     14 C11        -0.6550    0.6780    0.6530 c3        1 CLQ     -0.166000
     15 C12         0.6090    1.4350    1.1450 c3        1 CLQ     -0.159000
     16 C13         0.7020    1.3520    2.7130 c3        1 CLQ     -0.062000
     17 N3          2.0960    1.4460    3.1200 n3        1 CLQ     -0.270000
     18 C14         2.3640    2.7850    3.6590 c3        1 CLQ     -0.063000
     19 C15         3.8380    3.0400    3.6460 c3        1 CLQ     -0.211000
     20 C16         2.3650    0.4610    4.1270 c3        1 CLQ     -0.063000
     21 C17         3.3260   -0.6460    3.5400 c3        1 CLQ     -0.211000
     22 C18         0.3490   -1.2870   -0.4120 c3        1 CLQ     -0.248000
     23 H11        -0.4320    0.6270   -5.6970 ha        1 CLQ      0.157000
     24 H21        -0.1550    0.8580   -3.3520 ha        1 CLQ      0.145000
     25 H51        -3.2060   -2.0620   -1.5200 ha        1 CLQ      0.130000
     26 H61        -4.8230   -3.5540   -2.4160 ha        1 CLQ      0.148000
     27 H81        -3.7190   -2.5300   -6.2250 ha        1 CLQ      0.166000
     28 HN21       -2.4010   -0.2620   -0.9410 hn        1 CLQ      0.202000
     29 H101        0.2240    0.5360   -1.2220 h1        1 CLQ      0.107000
     30 H111       -1.4010    1.3260    0.5210 hc        1 CLQ      0.088000
     31 H112       -0.9150    0.0110    1.3200 hc        1 CLQ      0.088000
     32 H121        1.4110    1.0220    0.7460 hc        1 CLQ      0.090500
     33 H122        0.5580    2.3530    0.8770 hc        1 CLQ      0.090500
     34 H131        0.1880    2.0990    3.1150 h1        1 CLQ      0.070500
     35 H132        0.3250    0.4850    3.0230 h1        1 CLQ      0.070500
     36 H141        1.9130    3.4560    3.1110 h1        1 CLQ      0.068500
     37 H142        2.0320    2.8380    4.5790 h1        1 CLQ      0.068500
     38 H151        4.0070    4.0240    3.5160 hc        1 CLQ      0.077333
     39 H152        4.2320    2.7480    4.5100 hc        1 CLQ      0.077333
     40 H153        4.2490    2.5380    2.9130 hc        1 CLQ      0.077333
     41 H161        1.5270    0.0500    4.4070 h1        1 CLQ      0.068500
     42 H162        2.7810    0.8770    4.8760 h1        1 CLQ      0.068500
     43 H171        2.7990   -1.3980    3.2270 hc        1 CLQ      0.077333
     44 H172        3.8480   -0.2650    2.7790 hc        1 CLQ      0.077333
     45 H173        3.9560   -0.9540    4.2550 hc        1 CLQ      0.077333
     46 H181        0.2940   -1.4890    0.5450 hc        1 CLQ      0.086000
     47 H182        1.2960   -1.2070   -0.6770 hc        1 CLQ      0.086000
     48 H183       -0.0690   -2.0000   -0.9170 hc        1 CLQ      0.086000
@<TRIPOS>BOND
     1    1    9 1   
     2    2    3 1   
     3    3   23 1   
     4    4    5 1   
     5    4   24 1   
     6    5   12 1   
     7    6    7 1   
     8    6   11 1   
     9    7    8 1   
    10    7   25 1   
    11    8   26 1   
    12    9   10 1   
    13   10   27 1   
    14   12   13 1   
    15   12   28 1   
    16   13   14 1   
    17   13   22 1   
    18   13   29 1   
    19   14   15 1   
    20   14   30 1   
    21   14   31 1   
    22   15   16 1   
    23   15   32 1   
    24   15   33 1   
    25   16   17 1   
    26   16   34 1   
    27   16   35 1   
    28   17   18 1   
    29   17   20 1   
    30   18   19 1   
    31   18   36 1   
    32   18   37 1   
    33   19   38 1   
    34   19   39 1   
    35   19   40 1   
    36   20   21 1   
    37   20   41 1   
    38   20   42 1   
    39   21   43 1   
    40   21   44 1   
    41   21   45 1   
    42   22   46 1   
    43   22   47 1   
    44   22   48 1   
@<TRIPOS>SUBSTRUCTURE
     1 CLQ         1 TEMP              0 ****  ****    0 ROOT
