@<TRIPOS>MOLECULE
CLR
   74    76     1     0     0
SMALL
bcc


@<TRIPOS>ATOM
      1 C1          4.1000    2.5840   -0.5190 c3        1 CLR     -0.145000
      2 C2          5.4930    2.1810   -0.8480 c3        1 CLR     -0.192000
      3 C3          6.3100    2.0630    0.3030 c3        1 CLR      0.034000
      4 C4          5.6860    1.1190    1.4060 c3        1 CLR     -0.121000
      5 C5          4.1980    1.5790    1.6770 c2        1 CLR     -0.102000
      6 C6          3.4380    1.1890    2.9620 c1        1 CLR     -0.161000
      7 C7          1.7270    1.6480    2.9610 c2        1 CLR     -0.126000
      8 C8          1.2540    1.6290    1.7960 c3        1 CLR     -0.086000
      9 C9          1.8740    2.2340    0.8850 c3        1 CLR     -0.088000
     10 C10         3.4430    1.6770    0.5950 c3        1 CLR     -0.004000
     11 C11         1.0320    2.3260   -0.3820 c3        1 CLR     -0.154000
     12 C12         0.3410    1.4680   -0.7810 c3        1 CLR     -0.144000
     13 C13        -0.2350    0.8080    0.2390 c3        1 CLR     -0.045000
     14 C14        -0.1450    1.6360    1.6950 c3        1 CLR     -0.104000
     15 C15        -0.7680    0.8230    2.5170 c3        1 CLR     -0.153000
     16 C16        -2.0810    0.3350    1.6000 c3        1 CLR     -0.157000
     17 C17        -1.5770    0.7120    0.0770 c3        1 CLR     -0.093000
     18 C18         0.3870   -0.6070    0.3860 c3        1 CLR     -0.200000
     19 C19         3.3150    0.2460    0.0060 c3        1 CLR     -0.202000
     20 C20        -1.9270   -0.3790   -0.8900 c3        1 CLR     -0.095000
     21 C21        -1.9890    0.1920   -2.2890 c3        1 CLR     -0.209000
     22 C22        -3.3070   -0.9840   -0.5150 c3        1 CLR     -0.159000
     23 C23        -3.5500   -2.2900   -1.3400 c3        1 CLR     -0.158000
     24 C24        -5.0800   -2.6780   -1.2700 c3        1 CLR     -0.155000
     25 C25        -5.2630   -4.1580   -1.7180 c3        1 CLR     -0.107000
     26 C26        -5.7520   -4.9870   -0.5420 c3        1 CLR     -0.207500
     27 C27        -6.2670   -4.2240   -2.8220 c3        1 CLR     -0.207500
     28 O1          7.5940    1.5280   -0.0930 oh        1 CLR     -0.329000
     29 H11         3.5570    2.5280   -1.3310 hc        1 CLR      0.083500
     30 H12         4.1060    3.5110   -0.2070 hc        1 CLR      0.083500
     31 H21         5.8850    2.8550   -1.4450 hc        1 CLR      0.086000
     32 H22         5.4720    1.3210   -1.3130 hc        1 CLR      0.086000
     33 H3          6.4470    2.9640    0.6940 h1        1 CLR      0.075000
     34 H41         5.7450    0.1540    1.2440 hc        1 CLR      0.099500
     35 H42         6.2290    1.2000    2.2170 hc        1 CLR      0.099500
     36 H6          3.9270    1.0920    3.8180 ha        1 CLR      0.121000
     37 H71         1.1800    1.2230    3.6500 ha        1 CLR      0.088500
     38 H72         1.6820    2.5920    3.2700 ha        1 CLR      0.088500
     39 H8          1.4440    0.6990    1.5470 hc        1 CLR      0.098000
     40 H9          1.9780    3.1570    1.2030 hc        1 CLR      0.087000
     41 H111        0.4490    3.1170   -0.2670 hc        1 CLR      0.080000
     42 H112        1.6600    2.5370   -1.1140 hc        1 CLR      0.080000
     43 H121       -0.3580    1.8550   -1.3510 hc        1 CLR      0.080500
     44 H122        0.8850    0.8330   -1.3160 hc        1 CLR      0.080500
     45 H14        -0.5330    2.5280    1.6490 hc        1 CLR      0.085000
     46 H151       -0.1960    0.0530    2.7510 hc        1 CLR      0.081000
     47 H152       -1.0630    1.3010    3.3260 hc        1 CLR      0.081000
     48 H161       -2.8820    0.8420    1.8400 hc        1 CLR      0.081000
     49 H162       -2.2320   -0.6290    1.6910 hc        1 CLR      0.081000
     50 H17        -1.9510    1.5610   -0.2090 hc        1 CLR      0.086000
     51 H181        1.0640   -0.5950    1.0960 hc        1 CLR      0.075333
     52 H182       -0.3230   -1.2550    0.6190 hc        1 CLR      0.075333
     53 H183        0.8040   -0.8690   -0.4590 hc        1 CLR      0.075333
     54 H191        4.1840   -0.0360   -0.3680 hc        1 CLR      0.077000
     55 H192        2.6270    0.2430   -0.7150 hc        1 CLR      0.077000
     56 H193        3.0520   -0.3670    0.7030 hc        1 CLR      0.077000
     57 H20        -1.2510   -1.0710   -0.8540 hc        1 CLR      0.090000
     58 H211       -2.8900    0.0480   -2.6640 hc        1 CLR      0.073000
     59 H212       -1.3290   -0.2510   -2.8510 hc        1 CLR      0.073000
     60 H213       -1.7960    1.1620   -2.2580 hc        1 CLR      0.073000
     61 H221       -4.0110   -0.3370   -0.7150 hc        1 CLR      0.080500
     62 H222       -3.3200   -1.1960    0.4390 hc        1 CLR      0.080500
     63 H231       -3.2930   -2.1400   -2.2700 hc        1 CLR      0.079000
     64 H232       -3.0110   -3.0190   -0.9650 hc        1 CLR      0.079000
     65 H241       -5.4020   -2.5730   -0.3540 hc        1 CLR      0.079500
     66 H242       -5.5940   -2.0900   -1.8660 hc        1 CLR      0.079500
     67 H25        -4.4150   -4.5090   -2.0320 hc        1 CLR      0.085000
     68 H261       -6.5370   -4.5600   -0.1470 hc        1 CLR      0.072500
     69 H262       -5.9930   -5.8940   -0.8540 hc        1 CLR      0.072500
     70 H263       -5.0430   -5.0510    0.1300 hc        1 CLR      0.072500
     71 H271       -6.4600   -5.1640   -3.0340 hc        1 CLR      0.072500
     72 H272       -7.0880   -3.7790   -2.5410 hc        1 CLR      0.072500
     73 H273       -5.9100   -3.7780   -3.6150 hc        1 CLR      0.072500
     74 H1          8.2510    2.1160    0.1320 ho        1 CLR      0.198000
@<TRIPOS>BOND
     1    1    2 1   
     2    1   10 1   
     3    1   29 1   
     4    1   30 1   
     5    2    3 1   
     6    2   31 1   
     7    2   32 1   
     8    3    4 1   
     9    3   28 1   
    10    3   33 1   
    11    4    5 1   
    12    4   34 1   
    13    4   35 1   
    14    5    6 1   
    15    5   10 1   
    16    6   36 1   
    17    7    8 1   
    18    7   37 1   
    19    7   38 1   
    20    8    9 1   
    21    8   14 1   
    22    8   39 1   
    23    9   10 1   
    24    9   11 1   
    25    9   40 1   
    26   10   19 1   
    27   11   12 1   
    28   11   41 1   
    29   11   42 1   
    30   12   13 1   
    31   12   43 1   
    32   12   44 1   
    33   13   14 1   
    34   13   17 1   
    35   13   18 1   
    36   14   15 1   
    37   14   45 1   
    38   15   16 1   
    39   15   46 1   
    40   15   47 1   
    41   16   17 1   
    42   16   48 1   
    43   16   49 1   
    44   17   20 1   
    45   17   50 1   
    46   18   51 1   
    47   18   52 1   
    48   18   53 1   
    49   19   54 1   
    50   19   55 1   
    51   19   56 1   
    52   20   21 1   
    53   20   22 1   
    54   20   57 1   
    55   21   58 1   
    56   21   59 1   
    57   21   60 1   
    58   22   23 1   
    59   22   61 1   
    60   22   62 1   
    61   23   24 1   
    62   23   63 1   
    63   23   64 1   
    64   24   25 1   
    65   24   65 1   
    66   24   66 1   
    67   25   26 1   
    68   25   27 1   
    69   25   67 1   
    70   26   68 1   
    71   26   69 1   
    72   26   70 1   
    73   27   71 1   
    74   27   72 1   
    75   27   73 1   
    76   28   74 1   
@<TRIPOS>SUBSTRUCTURE
     1 CLR         1 TEMP              0 ****  ****    0 ROOT
