@<TRIPOS>MOLECULE
CLR
   74    77     1     0     0
SMALL
bcc


@<TRIPOS>ATOM
      1 C1          0.0910   -0.0570    0.0490 c3        1 CLR     -0.066400
      2 C2          1.5340    0.3390    0.2620 c3        1 CLR     -0.113400
      3 C3          1.8190    0.5390    1.7440 c3        1 CLR      0.145100
      4 C4          1.4870   -0.7250    2.5310 c3        1 CLR     -0.038200
      5 C5          0.1000   -1.1990    2.2560 c2        1 CLR     -0.110400
      6 C6         -0.7090   -1.5220    3.2760 c2        1 CLR     -0.165200
      7 C7         -2.0880   -2.0300    3.1230 c3        1 CLR     -0.043200
      8 C8         -2.3730   -2.5140    1.7090 c3        1 CLR     -0.046700
      9 C9         -1.8370   -1.4980    0.6910 c3        1 CLR     -0.048700
     10 C10        -0.3030   -1.3340    0.8080 c3        1 CLR      0.000200
     11 C11        -2.2680   -1.8280   -0.7340 c3        1 CLR     -0.075400
     12 C12        -3.7560   -2.0940   -0.8900 c3        1 CLR     -0.065400
     13 C13        -4.2160   -3.1740    0.0770 c3        1 CLR     -0.045000
     14 C14        -3.8650   -2.6620    1.4970 c3        1 CLR     -0.064700
     15 C15        -4.6520   -3.5750    2.4250 c3        1 CLR     -0.074400
     16 C16        -5.9280   -3.8980    1.6460 c3        1 CLR     -0.078400
     17 C17        -5.7480   -3.3640    0.2080 c3        1 CLR     -0.053700
     18 C18        -3.5530   -4.5020   -0.2440 c3        1 CLR     -0.082100
     19 C19         0.4270   -2.5290    0.2030 c3        1 CLR     -0.084100
     20 C20        -6.4250   -4.2590   -0.8240 c3        1 CLR     -0.055700
     21 C21        -6.2180   -3.7420   -2.2350 c3        1 CLR     -0.091100
     22 C22        -7.9230   -4.3580   -0.5350 c3        1 CLR     -0.080400
     23 C23        -8.5340   -5.6090   -1.1310 c3        1 CLR     -0.079400
     24 C24       -10.0210   -5.6710   -0.8510 c3        1 CLR     -0.076400
     25 C25       -10.6630   -6.9360   -1.4050 c3        1 CLR     -0.067700
     26 C26       -12.0090   -7.1670   -0.7500 c3        1 CLR     -0.089600
     27 C27       -10.8220   -6.8610   -2.9090 c3        1 CLR     -0.089600
     28 O1          3.2000    0.8000    1.9730 oh        1 CLR     -0.601800
     29 H11        -0.5730    0.7840    0.3820 hc        1 CLR      0.044200
     30 H12        -0.0840   -0.2140   -1.0470 hc        1 CLR      0.044200
     31 H21         2.2190   -0.4510   -0.1430 hc        1 CLR      0.046700
     32 H22         1.7480    1.2890   -0.2940 hc        1 CLR      0.046700
     33 H3          1.2130    1.4060    2.1350 h1        1 CLR      0.035700
     34 H41         1.6280   -0.5140    3.6240 hc        1 CLR      0.060200
     35 H42         2.2220   -1.5280    2.2540 hc        1 CLR      0.060200
     36 H6         -0.3700   -1.4060    4.3190 ha        1 CLR      0.121000
     37 H71        -2.2670   -2.8750    3.8420 hc        1 CLR      0.049200
     38 H72        -2.8070   -1.2090    3.3980 hc        1 CLR      0.049200
     39 H8         -1.8620   -3.5030    1.5620 hc        1 CLR      0.058700
     40 H9         -2.2960   -0.5010    0.9580 hc        1 CLR      0.047700
     41 H111       -1.7060   -2.7270   -1.1030 hc        1 CLR      0.040700
     42 H112       -1.9930   -0.9680   -1.4020 hc        1 CLR      0.040700
     43 H121       -4.3340   -1.1510   -0.6990 hc        1 CLR      0.041200
     44 H122       -3.9590   -2.4020   -1.9480 hc        1 CLR      0.041200
     45 H14        -4.3140   -1.6280    1.5960 hc        1 CLR      0.045700
     46 H151       -4.8790   -3.0680    3.3940 hc        1 CLR      0.041700
     47 H152       -4.0750   -4.5050    2.6530 hc        1 CLR      0.041700
     48 H161       -6.1040   -5.0030    1.6340 hc        1 CLR      0.041700
     49 H162       -6.8130   -3.4150    2.1270 hc        1 CLR      0.041700
     50 H17        -6.2240   -2.3460    0.1400 hc        1 CLR      0.046700
     51 H181       -3.9170   -5.2940    0.4550 hc        1 CLR      0.036033
     52 H182       -2.4420   -4.4370   -0.1510 hc        1 CLR      0.036033
     53 H183       -3.7920   -4.8110   -1.2900 hc        1 CLR      0.036033
     54 H191       -0.0270   -3.4870    0.5520 hc        1 CLR      0.037700
     55 H192        1.5040   -2.5210    0.4990 hc        1 CLR      0.037700
     56 H193        0.3770   -2.4940   -0.9130 hc        1 CLR      0.037700
     57 H20        -5.9810   -5.2920   -0.7480 hc        1 CLR      0.050700
     58 H211       -5.1810   -3.9570   -2.5880 hc        1 CLR      0.033700
     59 H212       -6.9290   -4.2350   -2.9400 hc        1 CLR      0.033700
     60 H213       -6.3860   -2.6390   -2.2780 hc        1 CLR      0.033700
     61 H221       -8.4390   -3.4510   -0.9480 hc        1 CLR      0.041700
     62 H222       -8.1040   -4.3640    0.5710 hc        1 CLR      0.041700
     63 H231       -8.3580   -5.6330   -2.2380 hc        1 CLR      0.040200
     64 H232       -8.0320   -6.5150   -0.6980 hc        1 CLR      0.040200
     65 H241      -10.1860   -5.6330    0.2590 hc        1 CLR      0.039700
     66 H242      -10.5260   -4.7720   -1.2920 hc        1 CLR      0.039700
     67 H25        -9.9950   -7.8100   -1.1610 hc        1 CLR      0.045700
     68 H261      -12.6880   -6.3010   -0.9340 hc        1 CLR      0.033200
     69 H262      -11.8900   -7.2950    0.3530 hc        1 CLR      0.033200
     70 H263      -12.4880   -8.0870   -1.1630 hc        1 CLR      0.033200
     71 H271      -11.2850   -7.8020   -3.2950 hc        1 CLR      0.033200
     72 H272      -11.4780   -6.0030   -3.1930 hc        1 CLR      0.033200
     73 H273       -9.8310   -6.7270   -3.4040 hc        1 CLR      0.033200
     74 H1          3.4330    1.5580    1.4240 ho        1 CLR      0.399000
@<TRIPOS>BOND
     1    1    2 1   
     2    1   10 1   
     3    1   29 1   
     4    1   30 1   
     5    2    3 1   
     6    2   31 1   
     7    2   32 1   
     8    3    4 1   
     9    3   28 1   
    10    3   33 1   
    11    4    5 1   
    12    4   34 1   
    13    4   35 1   
    14    5    6 2   
    15    5   10 1   
    16    6    7 1   
    17    6   36 1   
    18    7    8 1   
    19    7   37 1   
    20    7   38 1   
    21    8    9 1   
    22    8   14 1   
    23    8   39 1   
    24    9   10 1   
    25    9   11 1   
    26    9   40 1   
    27   10   19 1   
    28   11   12 1   
    29   11   41 1   
    30   11   42 1   
    31   12   13 1   
    32   12   43 1   
    33   12   44 1   
    34   13   14 1   
    35   13   17 1   
    36   13   18 1   
    37   14   15 1   
    38   14   45 1   
    39   15   16 1   
    40   15   46 1   
    41   15   47 1   
    42   16   17 1   
    43   16   48 1   
    44   16   49 1   
    45   17   20 1   
    46   17   50 1   
    47   18   51 1   
    48   18   52 1   
    49   18   53 1   
    50   19   54 1   
    51   19   55 1   
    52   19   56 1   
    53   20   21 1   
    54   20   22 1   
    55   20   57 1   
    56   21   58 1   
    57   21   59 1   
    58   21   60 1   
    59   22   23 1   
    60   22   61 1   
    61   22   62 1   
    62   23   24 1   
    63   23   63 1   
    64   23   64 1   
    65   24   25 1   
    66   24   65 1   
    67   24   66 1   
    68   25   26 1   
    69   25   27 1   
    70   25   67 1   
    71   26   68 1   
    72   26   69 1   
    73   26   70 1   
    74   27   71 1   
    75   27   72 1   
    76   27   73 1   
    77   28   74 1   
@<TRIPOS>SUBSTRUCTURE
     1 CLR         1 TEMP              0 ****  ****    0 ROOT
