@<TRIPOS>MOLECULE
CLR
   74    77     1     0     0
SMALL
bcc


@<TRIPOS>ATOM
      1 C1          0.0920   -0.0530   -0.0150 c3        1 CLR     -0.070400
      2 C2          1.5350    0.3480    0.1840 c3        1 CLR     -0.075400
      3 C3          1.8180    0.5740    1.6630 c3        1 CLR      0.145100
      4 C4          1.4890   -0.6800    2.4690 c3        1 CLR     -0.075200
      5 C5          0.1040   -1.1650    2.2070 c2        1 CLR     -0.105400
      6 C6         -0.7020   -1.4770    3.2330 c2        1 CLR     -0.167200
      7 C7         -2.0810   -1.9890    3.0900 c3        1 CLR     -0.042200
      8 C8         -2.3690   -2.4890    1.6820 c3        1 CLR     -0.046700
      9 C9         -1.8350   -1.4850    0.6500 c3        1 CLR     -0.048700
     10 C10        -0.3020   -1.3200    0.7620 c3        1 CLR      0.000200
     11 C11        -2.2700   -1.8330   -0.7690 c3        1 CLR     -0.075400
     12 C12        -3.7590   -2.1010   -0.9180 c3        1 CLR     -0.065400
     13 C13        -4.2150   -3.1700    0.0630 c3        1 CLR     -0.044000
     14 C14        -3.8610   -2.6400    1.4760 c3        1 CLR     -0.065700
     15 C15        -4.6450   -3.5420    2.4170 c3        1 CLR     -0.074400
     16 C16        -5.9230   -3.8760    1.6450 c3        1 CLR     -0.078400
     17 C17        -5.7470   -3.3590    0.2010 c3        1 CLR     -0.053700
     18 C18        -3.5530   -4.5020   -0.2430 c3        1 CLR     -0.083100
     19 C19         0.4280   -2.5230    0.1710 c3        1 CLR     -0.083100
     20 C20        -6.4260   -4.2670   -0.8190 c3        1 CLR     -0.055700
     21 C21        -6.2230   -3.7660   -2.2360 c3        1 CLR     -0.091100
     22 C22        -7.9230   -4.3620   -0.5260 c3        1 CLR     -0.080400
     23 C23        -8.5360   -5.6210   -1.1050 c3        1 CLR     -0.079400
     24 C24       -10.0220   -5.6810   -0.8210 c3        1 CLR     -0.076400
     25 C25       -10.6640   -6.9510   -1.3590 c3        1 CLR     -0.067700
     26 C26       -12.0090   -7.1760   -0.6980 c3        1 CLR     -0.089600
     27 C27       -10.8280   -6.8940   -2.8640 c3        1 CLR     -0.089600
     28 O1          3.2000    0.8960    1.7720 oh        1 CLR     -0.600800
     29 H11        -0.0850   -0.2260   -1.1090 hc        1 CLR      0.044700
     30 H12        -0.5720    0.7920    0.3060 hc        1 CLR      0.044700
     31 H21         1.7530    1.2900   -0.3820 hc        1 CLR      0.055200
     32 H22         2.2230   -0.4460   -0.2070 hc        1 CLR      0.055200
     33 H3          1.2070    1.4410    2.0430 h1        1 CLR      0.035700
     34 H41         1.6290   -0.4590    3.5610 hc        1 CLR      0.051200
     35 H42         2.2240   -1.4860    2.2000 hc        1 CLR      0.051200
     36 H6         -0.3610   -1.3480    4.2740 ha        1 CLR      0.119000
     37 H71        -2.2560   -2.8250    3.8190 hc        1 CLR      0.049200
     38 H72        -2.8000   -1.1650    3.3570 hc        1 CLR      0.049200
     39 H8         -1.8580   -3.4800    1.5460 hc        1 CLR      0.058700
     40 H9         -2.2940   -0.4850    0.9060 hc        1 CLR      0.047700
     41 H111       -1.7090   -2.7360   -1.1280 hc        1 CLR      0.041700
     42 H112       -1.9970   -0.9810   -1.4480 hc        1 CLR      0.041700
     43 H121       -4.3360   -1.1570   -0.7370 hc        1 CLR      0.041700
     44 H122       -3.9640   -2.4230   -1.9720 hc        1 CLR      0.041700
     45 H14        -4.3100   -1.6060    1.5630 hc        1 CLR      0.045700
     46 H151       -4.0670   -4.4690    2.6550 hc        1 CLR      0.041700
     47 H152       -4.8700   -3.0240    3.3810 hc        1 CLR      0.041700
     48 H161       -6.8080   -3.3870    2.1220 hc        1 CLR      0.041700
     49 H162       -6.0990   -4.9800    1.6470 hc        1 CLR      0.041700
     50 H17        -6.2230   -2.3420    0.1210 hc        1 CLR      0.046700
     51 H181       -2.4420   -4.4350   -0.1540 hc        1 CLR      0.035700
     52 H182       -3.9150   -5.2850    0.4660 hc        1 CLR      0.035700
     53 H183       -3.7950   -4.8230   -1.2850 hc        1 CLR      0.035700
     54 H191        1.5060   -2.5080    0.4620 hc        1 CLR      0.037367
     55 H192       -0.0230   -3.4760    0.5370 hc        1 CLR      0.037367
     56 H193        0.3730   -2.5040   -0.9440 hc        1 CLR      0.037367
     57 H20        -5.9820   -5.2980   -0.7320 hc        1 CLR      0.050700
     58 H211       -5.1860   -3.9850   -2.5900 hc        1 CLR      0.033700
     59 H212       -6.9360   -4.2680   -2.9340 hc        1 CLR      0.033700
     60 H213       -6.3920   -2.6640   -2.2930 hc        1 CLR      0.033700
     61 H221       -8.4410   -3.4610   -0.9470 hc        1 CLR      0.041200
     62 H222       -8.1020   -4.3560    0.5820 hc        1 CLR      0.041200
     63 H231       -8.3610   -5.6570   -2.2120 hc        1 CLR      0.040200
     64 H232       -8.0320   -6.5210   -0.6620 hc        1 CLR      0.040200
     65 H241      -10.5280   -4.7870   -1.2710 hc        1 CLR      0.039700
     66 H242      -10.1850   -5.6290    0.2890 hc        1 CLR      0.039700
     67 H25        -9.9950   -7.8220   -1.1070 hc        1 CLR      0.045700
     68 H261      -12.6890   -6.3110   -0.8900 hc        1 CLR      0.033200
     69 H262      -11.8870   -7.2910    0.4060 hc        1 CLR      0.033200
     70 H263      -12.4890   -8.1000   -1.1000 hc        1 CLR      0.033200
     71 H271      -11.4850   -6.0390   -3.1550 hc        1 CLR      0.033200
     72 H272      -11.2910   -7.8380   -3.2380 hc        1 CLR      0.033200
     73 H273       -9.8380   -6.7640   -3.3620 hc        1 CLR      0.033200
     74 H1          3.3890    0.9900    2.7120 ho        1 CLR      0.398000
@<TRIPOS>BOND
     1    1    2 1   
     2    1   10 1   
     3    1   29 1   
     4    1   30 1   
     5    2    3 1   
     6    2   31 1   
     7    2   32 1   
     8    3    4 1   
     9    3   28 1   
    10    3   33 1   
    11    4    5 1   
    12    4   34 1   
    13    4   35 1   
    14    5    6 2   
    15    5   10 1   
    16    6    7 1   
    17    6   36 1   
    18    7    8 1   
    19    7   37 1   
    20    7   38 1   
    21    8    9 1   
    22    8   14 1   
    23    8   39 1   
    24    9   10 1   
    25    9   11 1   
    26    9   40 1   
    27   10   19 1   
    28   11   12 1   
    29   11   41 1   
    30   11   42 1   
    31   12   13 1   
    32   12   43 1   
    33   12   44 1   
    34   13   14 1   
    35   13   17 1   
    36   13   18 1   
    37   14   15 1   
    38   14   45 1   
    39   15   16 1   
    40   15   46 1   
    41   15   47 1   
    42   16   17 1   
    43   16   48 1   
    44   16   49 1   
    45   17   20 1   
    46   17   50 1   
    47   18   51 1   
    48   18   52 1   
    49   18   53 1   
    50   19   54 1   
    51   19   55 1   
    52   19   56 1   
    53   20   21 1   
    54   20   22 1   
    55   20   57 1   
    56   21   58 1   
    57   21   59 1   
    58   21   60 1   
    59   22   23 1   
    60   22   61 1   
    61   22   62 1   
    62   23   24 1   
    63   23   63 1   
    64   23   64 1   
    65   24   25 1   
    66   24   65 1   
    67   24   66 1   
    68   25   26 1   
    69   25   27 1   
    70   25   67 1   
    71   26   68 1   
    72   26   69 1   
    73   26   70 1   
    74   27   71 1   
    75   27   72 1   
    76   27   73 1   
    77   28   74 1   
@<TRIPOS>SUBSTRUCTURE
     1 CLR         1 TEMP              0 ****  ****    0 ROOT
