@<TRIPOS>MOLECULE
CLR
   74    77     1     0     0
SMALL
bcc


@<TRIPOS>ATOM
      1 C1          1.3000   -0.9250   -4.5720 c3        1 CLR     -0.070400
      2 C2          1.4470   -0.6380   -6.0480 c3        1 CLR     -0.075400
      3 C3          0.0760   -0.5640   -6.7080 c3        1 CLR      0.145100
      4 C4         -0.7860    0.5000   -6.0340 c3        1 CLR     -0.075200
      5 C5         -0.8580    0.3080   -4.5570 c2        1 CLR     -0.105400
      6 C6         -2.0460    0.3450   -3.9340 c2        1 CLR     -0.167200
      7 C7         -2.2320    0.1910   -2.4760 c3        1 CLR     -0.042200
      8 C8         -0.9320    0.3670   -1.7050 c3        1 CLR     -0.046700
      9 C9          0.1970   -0.4080   -2.3980 c3        1 CLR     -0.048700
     10 C10         0.4510    0.1190   -3.8300 c3        1 CLR      0.000200
     11 C11         1.4740   -0.4330   -1.5650 c3        1 CLR     -0.075400
     12 C12         1.2670   -0.8540   -0.1190 c3        1 CLR     -0.065400
     13 C13         0.2050    0.0070    0.5470 c3        1 CLR     -0.044000
     14 C14        -1.0830   -0.1660   -0.2960 c3        1 CLR     -0.065700
     15 C15        -2.1840    0.4010    0.5890 c3        1 CLR     -0.074400
     16 C16        -1.7350    0.0650    2.0130 c3        1 CLR     -0.078400
     17 C17        -0.2900   -0.4720    1.9340 c3        1 CLR     -0.053700
     18 C18         0.6580    1.4550    0.6290 c3        1 CLR     -0.083100
     19 C19         1.1960    1.4510   -3.8040 c3        1 CLR     -0.083100
     20 C20         0.5400   -0.0600    3.1460 c3        1 CLR     -0.055700
     21 C21         1.9660   -0.5680    3.0450 c3        1 CLR     -0.091100
     22 C22        -0.0980   -0.5920    4.4280 c3        1 CLR     -0.080400
     23 C23         0.3190    0.2090    5.6450 c3        1 CLR     -0.079400
     24 C24        -0.3070   -0.3520    6.9040 c3        1 CLR     -0.076400
     25 C25         0.0640    0.4510    8.1420 c3        1 CLR     -0.067700
     26 C26        -0.8960    0.1380    9.2730 c3        1 CLR     -0.089600
     27 C27         1.4880    0.1730    8.5770 c3        1 CLR     -0.089600
     28 O1          0.2970   -0.2430   -8.0760 oh        1 CLR     -0.600800
     29 H11         0.8310   -1.9360   -4.4390 hc        1 CLR      0.044700
     30 H12         2.3210   -0.9610   -4.1090 hc        1 CLR      0.044700
     31 H21         2.0490   -1.4470   -6.5380 hc        1 CLR      0.055200
     32 H22         1.9880    0.3300   -6.2100 hc        1 CLR      0.055200
     33 H3         -0.4370   -1.5650   -6.6430 h1        1 CLR      0.035700
     34 H41        -1.8140    0.4770   -6.4840 hc        1 CLR      0.051200
     35 H42        -0.3510    1.5130   -6.2560 hc        1 CLR      0.051200
     36 H6         -2.9770    0.4860   -4.5080 ha        1 CLR      0.119000
     37 H71        -2.6600   -0.8300   -2.2740 hc        1 CLR      0.049200
     38 H72        -2.9820    0.9400   -2.1050 hc        1 CLR      0.049200
     39 H8         -0.6800    1.4620   -1.6790 hc        1 CLR      0.058700
     40 H9         -0.1590   -1.4750   -2.4990 hc        1 CLR      0.047700
     41 H111        2.1980   -1.1490   -2.0380 hc        1 CLR      0.041700
     42 H112        1.9540    0.5800   -1.5750 hc        1 CLR      0.041700
     43 H121        0.9560   -1.9300   -0.0760 hc        1 CLR      0.041700
     44 H122        2.2430   -0.7650    0.4260 hc        1 CLR      0.041700
     45 H14        -1.2740   -1.2770   -0.3850 hc        1 CLR      0.045700
     46 H151       -3.1730   -0.0600    0.3500 hc        1 CLR      0.041700
     47 H152       -2.2800    1.5060    0.4490 hc        1 CLR      0.041700
     48 H161       -2.4070   -0.7060    2.4630 hc        1 CLR      0.041700
     49 H162       -1.7790    0.9780    2.6570 hc        1 CLR      0.041700
     50 H17        -0.3240   -1.5970    1.9130 hc        1 CLR      0.046700
     51 H181        0.8340    1.8860   -0.3860 hc        1 CLR      0.035700
     52 H182       -0.1170    2.0740    1.1430 hc        1 CLR      0.035700
     53 H183        1.6140    1.5290    1.2030 hc        1 CLR      0.035700
     54 H191        1.1680    1.9350   -4.8100 hc        1 CLR      0.037367
     55 H192        0.7330    2.1470   -3.0640 hc        1 CLR      0.037367
     56 H193        2.2670    1.2940   -3.5280 hc        1 CLR      0.037367
     57 H20         0.5600    1.0650    3.2000 hc        1 CLR      0.050700
     58 H211        1.9820   -1.6340    2.7130 hc        1 CLR      0.033700
     59 H212        2.5530    0.0400    2.3160 hc        1 CLR      0.033700
     60 H213        2.4750   -0.5000    4.0370 hc        1 CLR      0.033700
     61 H221        0.1900   -1.6670    4.5670 hc        1 CLR      0.041200
     62 H222       -1.2160   -0.5600    4.3460 hc        1 CLR      0.041200
     63 H231        0.0060    1.2790    5.5140 hc        1 CLR      0.040200
     64 H232        1.4360    0.2020    5.7430 hc        1 CLR      0.040200
     65 H241        0.0130   -1.4180    7.0410 hc        1 CLR      0.039700
     66 H242       -1.4240   -0.3530    6.7880 hc        1 CLR      0.039700
     67 H25        -0.0260    1.5470    7.8960 hc        1 CLR      0.045700
     68 H261       -0.6200    0.7160   10.1870 hc        1 CLR      0.033200
     69 H262       -1.9410    0.4080    8.9850 hc        1 CLR      0.033200
     70 H263       -0.8670   -0.9510    9.5200 hc        1 CLR      0.033200
     71 H271        1.6180   -0.9060    8.8290 hc        1 CLR      0.033200
     72 H272        2.2050    0.4350    7.7630 hc        1 CLR      0.033200
     73 H273        1.7410    0.7800    9.4800 hc        1 CLR      0.033200
     74 H1         -0.5720   -0.1460   -8.4820 ho        1 CLR      0.398000
@<TRIPOS>BOND
     1    1    2 1   
     2    1   10 1   
     3    1   29 1   
     4    1   30 1   
     5    2    3 1   
     6    2   31 1   
     7    2   32 1   
     8    3    4 1   
     9    3   28 1   
    10    3   33 1   
    11    4    5 1   
    12    4   34 1   
    13    4   35 1   
    14    5    6 2   
    15    5   10 1   
    16    6    7 1   
    17    6   36 1   
    18    7    8 1   
    19    7   37 1   
    20    7   38 1   
    21    8    9 1   
    22    8   14 1   
    23    8   39 1   
    24    9   10 1   
    25    9   11 1   
    26    9   40 1   
    27   10   19 1   
    28   11   12 1   
    29   11   41 1   
    30   11   42 1   
    31   12   13 1   
    32   12   43 1   
    33   12   44 1   
    34   13   14 1   
    35   13   17 1   
    36   13   18 1   
    37   14   15 1   
    38   14   45 1   
    39   15   16 1   
    40   15   46 1   
    41   15   47 1   
    42   16   17 1   
    43   16   48 1   
    44   16   49 1   
    45   17   20 1   
    46   17   50 1   
    47   18   51 1   
    48   18   52 1   
    49   18   53 1   
    50   19   54 1   
    51   19   55 1   
    52   19   56 1   
    53   20   21 1   
    54   20   22 1   
    55   20   57 1   
    56   21   58 1   
    57   21   59 1   
    58   21   60 1   
    59   22   23 1   
    60   22   61 1   
    61   22   62 1   
    62   23   24 1   
    63   23   63 1   
    64   23   64 1   
    65   24   25 1   
    66   24   65 1   
    67   24   66 1   
    68   25   26 1   
    69   25   27 1   
    70   25   67 1   
    71   26   68 1   
    72   26   69 1   
    73   26   70 1   
    74   27   71 1   
    75   27   72 1   
    76   27   73 1   
    77   28   74 1   
@<TRIPOS>SUBSTRUCTURE
     1 CLR         1 TEMP              0 ****  ****    0 ROOT
