@<TRIPOS>MOLECULE
CLS
   42    44     1     0     0
SMALL
bcc


@<TRIPOS>ATOM
      1 S1         -0.2020   -0.4300    0.1510 ss        1 CLS     -0.289200
      2 C2          1.3860    0.2580    0.5130 c3        1 CLS      0.011900
      3 C3          1.9020    0.1580    1.8940 c2        1 CLS     -0.099400
      4 C3'         3.2010    0.8650    2.1440 c3        1 CLS      0.168600
      5 O20         3.3870    1.9850    1.2760 os        1 CLS     -0.441900
      6 C21         4.1120    1.8100    0.1240 c         1 CLS      0.630100
      7 O22         4.4570    0.6700   -0.1870 o         1 CLS     -0.536000
      8 C23         4.3680    3.0910   -0.5910 c3        1 CLS     -0.151100
      9 C4          1.3260   -0.5780    2.8870 ce        1 CLS     -0.076600
     10 C4'         1.9920   -0.6340    4.2290 c         1 CLS      0.649300
     11 O4A         3.2040   -0.7870    4.3970 o         1 CLS     -0.490000
     12 O4B         1.2960   -0.4760    5.3820 oh        1 CLS     -0.566100
     13 N5          0.2120   -1.3990    2.6890 n         1 CLS     -0.377000
     14 C6         -0.3100   -1.7270    1.3590 cy        1 CLS      0.115800
     15 C7         -1.7410   -1.9320    2.0080 cy        1 CLS      0.058700
     16 C8         -1.0650   -1.4130    3.3260 c         1 CLS      0.678500
     17 O9         -1.4110   -1.1460    4.4670 o         1 CLS     -0.549500
     18 N10        -2.8120   -1.1680    1.5030 ns        1 CLS     -0.554900
     19 C11        -4.0720   -1.7100    1.2840 c         1 CLS      0.671100
     20 O12        -4.3050   -2.9090    1.5170 o         1 CLS     -0.591100
     21 C13        -5.1440   -0.7970    0.7100 c3        1 CLS     -0.070100
     22 C14        -5.1060    0.5800    1.2180 cc        1 CLS     -0.150400
     23 C15        -4.3380    1.6110    0.7010 cd        1 CLS     -0.159000
     24 C16        -4.5520    2.8340    1.4040 cd        1 CLS     -0.156000
     25 C17        -5.4740    2.6770    2.4190 cc        1 CLS     -0.170100
     26 S19        -6.0430    1.1170    2.5020 ss        1 CLS      0.069200
     27 H21         2.1510   -0.1990   -0.1740 h1        1 CLS      0.107700
     28 H22         1.2910    1.3430    0.2330 h1        1 CLS      0.107700
     29 H3'1        4.0470    0.1300    2.0410 h1        1 CLS      0.099700
     30 H3'2        3.2230    1.3280    3.1710 h1        1 CLS      0.099700
     31 H231        4.1540    2.9520   -1.6790 hc        1 CLS      0.080033
     32 H232        5.4460    3.3600   -0.4630 hc        1 CLS      0.080033
     33 H233        3.7330    3.9130   -0.1820 hc        1 CLS      0.080033
     34 H6          0.1370   -2.6710    0.9650 h2        1 CLS      0.117700
     35 H7         -2.0250   -3.0190    2.0890 h1        1 CLS      0.138700
     36 H10         0.3460   -0.3620    5.2200 ho        1 CLS      0.455000
     37 H131       -5.0180   -0.8010   -0.4090 hc        1 CLS      0.090200
     38 H132       -6.1360   -1.2780    0.9380 hc        1 CLS      0.090200
     39 H15        -3.6560    1.5200   -0.1480 ha        1 CLS      0.155000
     40 H16        -4.0430    3.7660    1.1530 ha        1 CLS      0.157000
     41 H17        -5.8050    3.4650    3.0950 h4        1 CLS      0.176000
     42 H102       -2.6520   -0.2040    1.3040 hn        1 CLS      0.340500
@<TRIPOS>BOND
     1    1    2 1   
     2    1   14 1   
     3    2    3 1   
     4    2   27 1   
     5    2   28 1   
     6    3    4 1   
     7    3    9 2   
     8    4    5 1   
     9    4   29 1   
    10    4   30 1   
    11    5    6 1   
    12    6    7 2   
    13    6    8 1   
    14    8   31 1   
    15    8   32 1   
    16    8   33 1   
    17    9   10 1   
    18    9   13 1   
    19   10   11 2   
    20   10   12 1   
    21   12   36 1   
    22   13   14 1   
    23   13   16 1   
    24   14   15 1   
    25   14   34 1   
    26   15   16 1   
    27   15   18 1   
    28   15   35 1   
    29   16   17 2   
    30   18   19 1   
    31   18   42 1   
    32   19   20 2   
    33   19   21 1   
    34   21   22 1   
    35   21   37 1   
    36   21   38 1   
    37   22   23 2   
    38   22   26 1   
    39   23   24 1   
    40   23   39 1   
    41   24   25 2   
    42   24   40 1   
    43   25   26 1   
    44   25   41 1   
@<TRIPOS>SUBSTRUCTURE
     1 CLS         1 TEMP              0 ****  ****    0 ROOT
