@<TRIPOS>MOLECULE
CLS
   42    44     1     0     0
SMALL
bcc


@<TRIPOS>ATOM
      1 S1         -0.2340   -0.3160    0.0920 ss        1 CLS     -0.289200
      2 C2          1.3630    0.3390    0.4730 c3        1 CLS      0.011900
      3 C3          1.9010    0.1430    1.8360 c2        1 CLS     -0.099400
      4 C3'         3.2080    0.8250    2.1110 c3        1 CLS      0.168600
      5 O20         3.3870    2.0000    1.3180 os        1 CLS     -0.441900
      6 C21         4.0920    1.9010    0.1440 c         1 CLS      0.630100
      7 O22         4.4250    0.7820   -0.2480 o         1 CLS     -0.536000
      8 C23         4.3440    3.2250   -0.4860 c3        1 CLS     -0.151100
      9 C4          1.3370   -0.6540    2.7870 ce        1 CLS     -0.076600
     10 C4'         2.0240   -0.8050    4.1100 c         1 CLS      0.649300
     11 O4A         3.2370   -0.9750    4.2480 o         1 CLS     -0.490000
     12 O4B         1.3470   -0.7210    5.2820 oh        1 CLS     -0.566100
     13 N5          0.2150   -1.4550    2.5520 n         1 CLS     -0.377000
     14 C6         -0.3310   -1.6900    1.2110 cy        1 CLS      0.115800
     15 C7         -1.7520   -1.9310    1.8690 cy        1 CLS      0.058700
     16 C8         -1.0520   -1.5050    3.2080 c         1 CLS      0.678500
     17 O9         -1.3790   -1.3130    4.3690 o         1 CLS     -0.549500
     18 N10        -2.8270   -1.1290    1.4340 n         1 CLS     -0.554900
     19 C11        -4.0930   -1.6490    1.2000 c         1 CLS      0.671100
     20 O12        -4.3300   -2.8600    1.3560 o         1 CLS     -0.591100
     21 C13        -5.1690   -0.6950    0.7060 c3        1 CLS     -0.070100
     22 C14        -5.1130    0.6460    1.3030 cc        1 CLS     -0.150400
     23 C15        -4.3480    1.7050    0.8430 cd        1 CLS     -0.159000
     24 C16        -4.5430    2.8790    1.6300 cd        1 CLS     -0.156000
     25 C17        -5.4500    2.6600    2.6470 cc        1 CLS     -0.170100
     26 S19        -6.0270    1.1000    2.6360 ss        1 CLS      0.069200
     27 H21         1.2700    1.4410    0.2680 h1        1 CLS      0.107700
     28 H22         2.1150   -0.0750   -0.2560 h1        1 CLS      0.107700
     29 H3'1        3.2500    1.2170    3.1660 h1        1 CLS      0.099700
     30 H3'2        4.0480    0.0940    1.9440 h1        1 CLS      0.099700
     31 H231        4.1100    3.1620   -1.5770 hc        1 CLS      0.080033
     32 H232        5.4260    3.4800   -0.3590 hc        1 CLS      0.080033
     33 H233        3.7210    4.0210   -0.0110 hc        1 CLS      0.080033
     34 H6          0.1040   -2.6080    0.7480 h2        1 CLS      0.117700
     35 H7         -2.0420   -3.0190    1.8820 h1        1 CLS      0.138700
     36 H10        -2.6640   -0.1560    1.2970 hn        1 CLS      0.340500
     37 H131       -6.1600   -1.1840    0.9170 hc        1 CLS      0.090200
     38 H132       -5.0600   -0.6240   -0.4130 hc        1 CLS      0.090200
     39 H15        -3.6810    1.6680   -0.0210 ha        1 CLS      0.155000
     40 H16        -4.0320    3.8240    1.4330 ha        1 CLS      0.157000
     41 H17        -5.7650    3.4020    3.3800 h4        1 CLS      0.176000
     42 H102        0.3960   -0.5910    5.1440 ho        1 CLS      0.455000
@<TRIPOS>BOND
     1    1    2 1   
     2    1   14 1   
     3    2    3 1   
     4    2   27 1   
     5    2   28 1   
     6    3    4 1   
     7    3    9 2   
     8    4    5 1   
     9    4   29 1   
    10    4   30 1   
    11    5    6 1   
    12    6    7 2   
    13    6    8 1   
    14    8   31 1   
    15    8   32 1   
    16    8   33 1   
    17    9   10 1   
    18    9   13 1   
    19   10   11 2   
    20   10   12 1   
    21   12   42 1   
    22   13   14 1   
    23   13   16 1   
    24   14   15 1   
    25   14   34 1   
    26   15   16 1   
    27   15   18 1   
    28   15   35 1   
    29   16   17 2   
    30   18   19 1   
    31   18   36 1   
    32   19   20 2   
    33   19   21 1   
    34   21   22 1   
    35   21   37 1   
    36   21   38 1   
    37   22   23 2   
    38   22   26 1   
    39   23   24 1   
    40   23   39 1   
    41   24   25 2   
    42   24   40 1   
    43   25   26 1   
    44   25   41 1   
@<TRIPOS>SUBSTRUCTURE
     1 CLS         1 TEMP              0 ****  ****    0 ROOT
