@<TRIPOS>MOLECULE
CLS
   42    44     1     0     0
SMALL
bcc


@<TRIPOS>ATOM
      1 S1         -0.2120   -0.2910    0.0850 ss        1 CLS     -0.289200
      2 C2          1.3850    0.3400    0.5080 c3        1 CLS      0.011900
      3 C3          1.9010    0.1010    1.8730 c2        1 CLS     -0.099400
      4 C3'         3.2080    0.7640    2.1870 c3        1 CLS      0.168600
      5 O20         3.4080    1.9600    1.4300 os        1 CLS     -0.441900
      6 C21         4.1310    1.8870    0.2650 c         1 CLS      0.630100
      7 O22         4.4610    0.7770   -0.1530 o         1 CLS     -0.536000
      8 C23         4.4030    3.2260   -0.3250 c3        1 CLS     -0.151100
      9 C4          1.3160   -0.7200    2.7910 ce        1 CLS     -0.076600
     10 C4'         1.9810   -0.9140    4.1200 c         1 CLS      0.649300
     11 O4A         3.1910   -1.0960    4.2710 o         1 CLS     -0.490000
     12 O4B         1.2880   -0.8590    5.2840 oh        1 CLS     -0.566100
     13 N5          0.1920   -1.5040    2.5160 n         1 CLS     -0.377000
     14 C6         -0.3350   -1.6970    1.1610 cy        1 CLS      0.115800
     15 C7         -1.7680   -1.9470    1.7900 cy        1 CLS      0.058700
     16 C8         -1.0850   -1.5650    3.1510 c         1 CLS      0.678500
     17 O9         -1.4280   -1.4040    4.3120 o         1 CLS     -0.549500
     18 N10        -2.8300   -1.1250    1.3630 n         1 CLS     -0.554900
     19 C11        -4.0960   -1.6280    1.0940 c         1 CLS      0.671100
     20 O12        -4.3430   -2.8420    1.2100 o         1 CLS     -0.591100
     21 C13        -5.1580   -0.6520    0.6120 c3        1 CLS     -0.070100
     22 C14        -5.1040    0.6690    1.2510 cc        1 CLS     -0.150400
     23 C15        -4.3240    1.7370    0.8370 cd        1 CLS     -0.159000
     24 C16        -4.5250    2.8880    1.6560 cd        1 CLS     -0.156000
     25 C17        -5.4490    2.6430    2.6510 cc        1 CLS     -0.170100
     26 S19        -6.0350    1.0890    2.5830 ss        1 CLS      0.069200
     27 H21         2.1440   -0.0580   -0.2210 h1        1 CLS      0.108200
     28 H22         1.3030    1.4480    0.3340 h1        1 CLS      0.108200
     29 H3'1        4.0450    0.0320    2.0140 h1        1 CLS      0.099700
     30 H3'2        3.2360    1.1270    3.2530 h1        1 CLS      0.099700
     31 H231        5.4840    3.4680   -0.1720 hc        1 CLS      0.080033
     32 H232        3.7790    4.0130    0.1620 hc        1 CLS      0.080033
     33 H233        4.1870    3.1940   -1.4200 hc        1 CLS      0.080033
     34 H6          0.1010   -2.6040    0.6770 h2        1 CLS      0.117700
     35 H7         -2.0650   -3.0320    1.7660 h1        1 CLS      0.138700
     36 H10         0.3400   -0.7180    5.1350 ho        1 CLS      0.455000
     37 H131       -6.1550   -1.1410    0.7930 hc        1 CLS      0.090200
     38 H132       -5.0300   -0.5480   -0.5020 hc        1 CLS      0.090200
     39 H15        -3.6440    1.7220   -0.0180 ha        1 CLS      0.155000
     40 H16        -4.0050    3.8340    1.4970 ha        1 CLS      0.157000
     41 H17        -5.7710    3.3650    3.4020 h4        1 CLS      0.176000
     42 H102       -2.6590   -0.1480    1.2580 hn        1 CLS      0.340500
@<TRIPOS>BOND
     1    1    2 1   
     2    1   14 1   
     3    2    3 1   
     4    2   27 1   
     5    2   28 1   
     6    3    4 1   
     7    3    9 2   
     8    4    5 1   
     9    4   29 1   
    10    4   30 1   
    11    5    6 1   
    12    6    7 2   
    13    6    8 1   
    14    8   31 1   
    15    8   32 1   
    16    8   33 1   
    17    9   10 1   
    18    9   13 1   
    19   10   11 2   
    20   10   12 1   
    21   12   36 1   
    22   13   14 1   
    23   13   16 1   
    24   14   15 1   
    25   14   34 1   
    26   15   16 1   
    27   15   18 1   
    28   15   35 1   
    29   16   17 2   
    30   18   19 1   
    31   18   42 1   
    32   19   20 2   
    33   19   21 1   
    34   21   22 1   
    35   21   37 1   
    36   21   38 1   
    37   22   23 2   
    38   22   26 1   
    39   23   24 1   
    40   23   39 1   
    41   24   25 2   
    42   24   40 1   
    43   25   26 1   
    44   25   41 1   
@<TRIPOS>SUBSTRUCTURE
     1 CLS         1 TEMP              0 ****  ****    0 ROOT
