@<TRIPOS>MOLECULE
CLS
   41    43     1     0     0
SMALL
bcc


@<TRIPOS>ATOM
      1 S1         -1.9910    0.3030    0.2530 ss        1 CLS     -0.385200
      2 C2         -1.6380   -0.2310    1.9210 c3        1 CLS      0.091900
      3 C3         -0.2170   -0.1740    2.3230 c2        1 CLS     -0.272400
      4 C3'         0.1490   -1.1190    3.4130 c3        1 CLS      0.208600
      5 O20        -0.5580   -0.6780    4.6030 os        1 CLS     -0.435900
      6 C21        -0.6330   -1.5450    5.6410 c         1 CLS      0.629100
      7 O22        -0.2400   -2.7090    5.5080 o         1 CLS     -0.571000
      8 C23        -1.2290   -0.9320    6.8660 c3        1 CLS     -0.152100
      9 C4          0.7230    0.6540    1.7810 ce        1 CLS      0.027400
     10 C4'         2.1940    0.6600    2.3130 c         1 CLS      0.929800
     11 O4A         2.8700   -0.3710    2.0780 o         1 CLS     -0.786300
     12 O4B         2.5460    1.6760    2.9530 o         1 CLS     -0.786300
     13 N5          0.4160    1.5510    0.7610 n         1 CLS     -0.335000
     14 C6         -0.9210    1.7190    0.1830 cy        1 CLS      0.116800
     15 C7         -0.2550    2.0690   -1.2020 cy        1 CLS      0.008700
     16 C8          1.1100    1.8120   -0.4530 c         1 CLS      0.700500
     17 O9          2.2770    1.8930   -0.7900 o         1 CLS     -0.519500
     18 N10        -0.5340    1.2070   -2.2910 n         1 CLS     -0.532900
     19 C11        -0.9830    1.6570   -3.5120 c         1 CLS      0.667100
     20 O12        -1.1300    2.8720   -3.7630 o         1 CLS     -0.623100
     21 C13        -1.3360    0.6150   -4.5680 c3        1 CLS     -0.076100
     22 C14        -0.4360   -0.5450   -4.6050 cc        1 CLS     -0.128400
     23 C15        -0.5400   -1.6790   -3.8190 cd        1 CLS     -0.154000
     24 C16         0.4870   -2.6260   -4.1150 cd        1 CLS     -0.148000
     25 C17         1.3220   -2.1720   -5.1140 cc        1 CLS     -0.169100
     26 S19         0.8730   -0.6600   -5.6540 ss        1 CLS      0.029200
     27 H21        -2.0150   -1.2850    1.9570 h1        1 CLS      0.064200
     28 H22        -2.2530    0.3850    2.6230 h1        1 CLS      0.064200
     29 H3'1        1.2480   -1.1090    3.6440 h1        1 CLS      0.074200
     30 H3'2       -0.1790   -2.1650    3.1690 h1        1 CLS      0.074200
     31 H231       -0.4120   -0.4400    7.4500 hc        1 CLS      0.064700
     32 H232       -1.9870   -0.1610    6.5890 hc        1 CLS      0.064700
     33 H233       -1.7030   -1.7270    7.4880 hc        1 CLS      0.064700
     34 H6         -1.4460    2.5920    0.6410 h2        1 CLS      0.092700
     35 H7         -0.3920    3.1430   -1.4960 h1        1 CLS      0.116700
     36 H10        -0.4640    0.2260   -2.1270 hn        1 CLS      0.338500
     37 H131       -2.3890    0.2780   -4.3570 hc        1 CLS      0.079200
     38 H132       -1.3410    1.1440   -5.5600 hc        1 CLS      0.079200
     39 H15        -1.3050   -1.8460   -3.0560 ha        1 CLS      0.161000
     40 H16         0.5880   -3.5790   -3.5930 ha        1 CLS      0.157000
     41 H17         2.1840   -2.7060   -5.5070 h4        1 CLS      0.169000
@<TRIPOS>BOND
     1    1    2 1   
     2    1   14 1   
     3    2    3 1   
     4    2   27 1   
     5    2   28 1   
     6    3    4 1   
     7    3    9 2   
     8    4    5 1   
     9    4   29 1   
    10    4   30 1   
    11    5    6 1   
    12    6    7 2   
    13    6    8 1   
    14    8   31 1   
    15    8   32 1   
    16    8   33 1   
    17    9   10 1   
    18    9   13 1   
    19   10   11 1   
    20   10   12 1   
    21   13   14 1   
    22   13   16 1   
    23   14   15 1   
    24   14   34 1   
    25   15   16 1   
    26   15   18 1   
    27   15   35 1   
    28   16   17 2   
    29   18   19 1   
    30   18   36 1   
    31   19   20 2   
    32   19   21 1   
    33   21   22 1   
    34   21   37 1   
    35   21   38 1   
    36   22   23 2   
    37   22   26 1   
    38   23   24 1   
    39   23   39 1   
    40   24   25 2   
    41   24   40 1   
    42   25   26 1   
    43   25   41 1   
@<TRIPOS>SUBSTRUCTURE
     1 CLS         1 TEMP              0 ****  ****    0 ROOT
