@<TRIPOS>MOLECULE
CLT
   23    23     1     0     0
SMALL
bcc


@<TRIPOS>ATOM
      1 CA         -0.0110   -0.0610   -0.0190 c3        1 CLT     -0.197400
      2 CB1         1.4970   -0.0000   -0.0260 c3        1 CLT     -0.062400
      3 CG          2.0660   -0.2050    1.3670 c3        1 CLT     -0.047100
      4 CD          3.5520   -0.1370    1.4000 ca        1 CLT     -0.049300
      5 CE1         4.2150    1.0350    1.0090 ca        1 CLT     -0.131500
      6 CE2         4.3090   -1.2310    1.8350 ca        1 CLT     -0.131500
      7 CZ1         5.6060    1.1090    1.0570 ca        1 CLT     -0.136000
      8 CZ2         5.7010   -1.1550    1.8820 ca        1 CLT     -0.136000
      9 CH          6.3520    0.0150    1.4950 ca        1 CLT     -0.153000
     10 CB2        -0.5960    0.4410   -1.3530 c         1 CLT      0.909600
     11 OG1        -0.1430    1.5160   -1.8420 o         1 CLT     -0.850800
     12 OG2        -1.5190   -0.2420   -1.8820 o         1 CLT     -0.850800
     13 HA1        -0.3590   -1.1060    0.1700 hc        1 CLT      0.019700
     14 HA2        -0.4180    0.5910    0.7950 hc        1 CLT      0.019700
     15 HB11        1.8150    0.9980   -0.4310 hc        1 CLT      0.049200
     16 HB12        1.9030   -0.7840   -0.7160 hc        1 CLT      0.049200
     17 HG1         1.6560    0.5880    2.0500 hc        1 CLT      0.038200
     18 HG2         1.7180   -1.1950    1.7650 hc        1 CLT      0.038200
     19 HE1         3.6260    1.8950    0.6530 ha        1 CLT      0.136500
     20 HE2         3.8010   -2.1590    2.1360 ha        1 CLT      0.136500
     21 HZ1         6.1150    2.0310    0.7430 ha        1 CLT      0.117500
     22 HZ2         6.2840   -2.0220    2.2230 ha        1 CLT      0.117500
     23 HH          7.4480    0.0740    1.5300 ha        1 CLT      0.115000
@<TRIPOS>BOND
     1    1    2 1   
     2    1   10 1   
     3    1   13 1   
     4    1   14 1   
     5    2    3 1   
     6    2   15 1   
     7    2   16 1   
     8    3    4 1   
     9    3   17 1   
    10    3   18 1   
    11    4    5 ar  
    12    4    6 ar  
    13    5    7 ar  
    14    5   19 1   
    15    6    8 ar  
    16    6   20 1   
    17    7    9 ar  
    18    7   21 1   
    19    8    9 ar  
    20    8   22 1   
    21    9   23 1   
    22   10   11 1   
    23   10   12 1   
@<TRIPOS>SUBSTRUCTURE
     1 CLT         1 TEMP              0 ****  ****    0 ROOT
