@<TRIPOS>MOLECULE
CLT
   23    23     1     0     0
SMALL
bcc


@<TRIPOS>ATOM
      1 CA          0.0250   -0.8080    2.3220 c3        1 CLT     -0.197400
      2 CB1         0.0470   -0.1290    0.9750 c3        1 CLT     -0.059400
      3 CG         -0.2730   -1.1080   -0.1410 c3        1 CLT     -0.048100
      4 CD         -0.1430   -0.4990   -1.4930 ca        1 CLT     -0.047300
      5 CE1         1.1180   -0.1350   -1.9840 ca        1 CLT     -0.131500
      6 CE2        -1.2700   -0.2900   -2.2960 ca        1 CLT     -0.131500
      7 CZ1         1.2470    0.4220   -3.2550 ca        1 CLT     -0.135000
      8 CZ2        -1.1390    0.2680   -3.5670 ca        1 CLT     -0.135000
      9 CH          0.1190    0.6230   -4.0500 ca        1 CLT     -0.152000
     10 CB2         0.1790    0.2160    3.4620 c         1 CLT      0.908600
     11 OG1        -0.5910    1.2190    3.4770 o         1 CLT     -0.850300
     12 OG2         1.0600   -0.0110    4.3400 o         1 CLT     -0.850300
     13 HA1         0.8440   -1.5660    2.3910 hc        1 CLT      0.019200
     14 HA2        -0.9510   -1.3390    2.4670 hc        1 CLT      0.019200
     15 HB11       -0.6970    0.7110    0.9790 hc        1 CLT      0.048700
     16 HB12        1.0580    0.3220    0.7980 hc        1 CLT      0.048700
     17 HG1         0.4260   -1.9860   -0.0710 hc        1 CLT      0.038200
     18 HG2        -1.3140   -1.5020    0.0040 hc        1 CLT      0.038200
     19 HE1         2.0060   -0.2830   -1.3510 ha        1 CLT      0.133500
     20 HE2        -2.2660   -0.5610   -1.9160 ha        1 CLT      0.133500
     21 HZ1         2.2410    0.7090   -3.6280 ha        1 CLT      0.117500
     22 HZ2        -2.0320    0.4300   -4.1880 ha        1 CLT      0.117500
     23 HH          0.2220    1.0640   -5.0510 ha        1 CLT      0.115000
@<TRIPOS>BOND
     1    1    2 1   
     2    1   10 1   
     3    1   13 1   
     4    1   14 1   
     5    2    3 1   
     6    2   15 1   
     7    2   16 1   
     8    3    4 1   
     9    3   17 1   
    10    3   18 1   
    11    4    5 ar  
    12    4    6 ar  
    13    5    7 ar  
    14    5   19 1   
    15    6    8 ar  
    16    6   20 1   
    17    7    9 ar  
    18    7   21 1   
    19    8    9 ar  
    20    8   22 1   
    21    9   23 1   
    22   10   11 1   
    23   10   12 1   
@<TRIPOS>SUBSTRUCTURE
     1 CLT         1 TEMP              0 ****  ****    0 ROOT
