@<TRIPOS>MOLECULE
CLT
   23    21     1     0     0
SMALL
bcc


@<TRIPOS>ATOM
      1 CA         -2.8230   -0.0960   -0.5920 c3        1 CLT     -0.226000
      2 CB1        -1.3170    0.0310   -0.6560 c3        1 CLT     -0.141000
      3 CG         -0.7530    0.0670    0.7490 c3        1 CLT     -0.133000
      4 CD          0.7580    0.0450    0.6860 c2        1 CLT     -0.042000
      5 CE1         1.4660    1.2360    0.6350 c2        1 CLT     -0.124000
      6 CE2         1.4360   -1.1620    0.7480 c1        1 CLT     -0.139000
      7 CZ1         2.8520    1.2190    0.6460 c1        1 CLT     -0.134000
      8 CZ2         2.8220   -1.1780    0.7580 c1        1 CLT     -0.145500
      9 CH          3.5300    0.0120    0.7070 c1        1 CLT     -0.145500
     10 CB2        -3.3890   -0.1030   -1.9960 c2        1 CLT      0.329000
     11 OG1        -3.6240   -1.1970   -2.5740 o         1 CLT     -0.585500
     12 OG2        -3.6450    0.9840   -2.5770 o         1 CLT     -0.585500
     13 HA1        -3.1940    0.6610   -0.0950 hc        1 CLT      0.059000
     14 HA2        -3.0610   -0.9300   -0.1400 hc        1 CLT      0.059000
     15 HB11       -1.0790    0.8570   -1.1240 hc        1 CLT      0.088500
     16 HB12       -0.9450   -0.7350   -1.1370 hc        1 CLT      0.088500
     17 HG1        -1.0490    0.8840    1.1980 hc        1 CLT      0.077500
     18 HG2        -1.0700   -0.7130    1.2470 hc        1 CLT      0.077500
     19 HE1         0.9880    2.0870    0.5920 ha        1 CLT      0.147000
     20 HE2         0.9380   -2.0010    0.7840 ha        1 CLT      0.126000
     21 HZ1         3.3510    2.0580    0.6100 ha        1 CLT      0.120000
     22 HZ2         3.3000   -2.0280    0.8170 ha        1 CLT      0.115000
     23 HH          4.5060    0.0010    0.7140 ha        1 CLT      0.115000
@<TRIPOS>BOND
     1    1    2 1   
     2    1   10 1   
     3    1   13 1   
     4    1   14 1   
     5    2    3 1   
     6    2   15 1   
     7    2   16 1   
     8    3    4 1   
     9    3   17 1   
    10    3   18 1   
    11    4    5 1   
    12    4    6 1   
    13    5    7 1   
    14    5   19 1   
    15    6   20 1   
    16    7   21 1   
    17    8    9 1   
    18    8   22 1   
    19    9   23 1   
    20   10   11 1   
    21   10   12 1   
@<TRIPOS>SUBSTRUCTURE
     1 CLT         1 TEMP              0 ****  ****    0 ROOT
