@<TRIPOS>MOLECULE
CLT
   23    23     1     0     0
SMALL
bcc


@<TRIPOS>ATOM
      1 CA         -0.0170    0.0980    0.0100 c3        1 CLT     -0.197400
      2 CB1         1.4910    0.0480   -0.0130 c3        1 CLT     -0.062400
      3 CG          2.0620   -0.1080    1.3850 c3        1 CLT     -0.047100
      4 CD          3.5500   -0.1440    1.4010 ca        1 CLT     -0.049300
      5 CE1         4.2890    0.9510    0.9310 ca        1 CLT     -0.131500
      6 CE2         4.2330   -1.2610    1.8980 ca        1 CLT     -0.131500
      7 CZ1         5.6820    0.9270    0.9620 ca        1 CLT     -0.136000
      8 CZ2         5.6270   -1.2820    1.9280 ca        1 CLT     -0.136000
      9 CH          6.3540   -0.1880    1.4620 ca        1 CLT     -0.153000
     10 CB2        -0.5820    0.5530   -1.3490 c         1 CLT      0.909600
     11 OG1        -0.0600    1.5590   -1.9110 o         1 CLT     -0.850800
     12 OG2        -1.5590   -0.0930   -1.8240 o         1 CLT     -0.850800
     13 HA1        -0.4370   -0.9060    0.2700 hc        1 CLT      0.019700
     14 HA2        -0.3660    0.8280    0.7830 hc        1 CLT      0.019700
     15 HB11        1.8750    0.9930   -0.4850 hc        1 CLT      0.049200
     16 HB12        1.8310   -0.8050   -0.6550 hc        1 CLT      0.049200
     17 HG1         1.7180    0.7550    2.0190 hc        1 CLT      0.038200
     18 HG2         1.6500   -1.0430    1.8490 hc        1 CLT      0.038200
     19 HE1         3.7570    1.8260    0.5260 ha        1 CLT      0.136500
     20 HE2         3.6640   -2.1290    2.2610 ha        1 CLT      0.136500
     21 HZ1         6.2520    1.7890    0.5870 ha        1 CLT      0.117500
     22 HZ2         6.1520   -2.1650    2.3180 ha        1 CLT      0.117500
     23 HH          7.4520   -0.2060    1.4850 ha        1 CLT      0.115000
@<TRIPOS>BOND
     1    1    2 1   
     2    1   10 1   
     3    1   13 1   
     4    1   14 1   
     5    2    3 1   
     6    2   15 1   
     7    2   16 1   
     8    3    4 1   
     9    3   17 1   
    10    3   18 1   
    11    4    5 ar  
    12    4    6 ar  
    13    5    7 ar  
    14    5   19 1   
    15    6    8 ar  
    16    6   20 1   
    17    7    9 ar  
    18    7   21 1   
    19    8    9 ar  
    20    8   22 1   
    21    9   23 1   
    22   10   11 1   
    23   10   12 1   
@<TRIPOS>SUBSTRUCTURE
     1 CLT         1 TEMP              0 ****  ****    0 ROOT
