@<TRIPOS>MOLECULE
CLU
   23    24     1     0     0
SMALL
bcc


@<TRIPOS>ATOM
      1 CL1        -0.0610    0.4370    0.2650 cl        1 CLU     -0.088900
      2 CAM         3.8690   -0.2930    0.1640 ca        1 CLU      0.000400
      3 CAE         4.2230   -0.1090    1.5010 ca        1 CLU     -0.110500
      4 CAC         3.2530    0.2440    2.4350 ca        1 CLU     -0.135000
      5 CAD         1.9300    0.4120    2.0350 ca        1 CLU     -0.110500
      6 CAN         2.5350   -0.1140   -0.2820 ca        1 CLU      0.195400
      7 CAL         1.5710    0.2320    0.6990 ca        1 CLU      0.000400
      8 CL2         5.0900   -0.7250   -0.9430 cl        1 CLU     -0.088900
      9 NAJ         2.1720   -0.1300   -1.6370 ne        1 CLU     -0.650100
     10 CAK         2.2300   -1.2210   -2.3660 c2        1 CLU      0.772100
     11 NAI         2.4990   -2.5740   -1.9280 nh        1 CLU     -0.794200
     12 CAG         2.3790   -3.4570   -3.0830 c3        1 CLU      0.149300
     13 CAF         1.9090   -2.5620   -4.2670 c3        1 CLU      0.149300
     14 NAH         1.9660   -1.1860   -3.7840 nh        1 CLU     -0.794200
     15 HAE         5.2690   -0.2420    1.8160 ha        1 CLU      0.148500
     16 HAC         3.5310    0.3890    3.4890 ha        1 CLU      0.141000
     17 HAD         1.1620    0.6870    2.7760 ha        1 CLU      0.148500
     18 HNAI        3.3500   -2.6730   -1.4120 hn        1 CLU      0.416800
     19 HAG1        1.6090   -4.2390   -2.8470 h1        1 CLU      0.058450
     20 HAG2        3.3450   -3.9680   -3.3370 h1        1 CLU      0.058450
     21 HAF1        2.6090   -2.6510   -5.1400 h1        1 CLU      0.058450
     22 HAF2        0.8790   -2.8600   -4.5990 h1        1 CLU      0.058450
     23 HNAH        1.2020   -0.6020   -4.0530 hn        1 CLU      0.416800
@<TRIPOS>BOND
     1    1    7 1   
     2    2    3 ar  
     3    2    6 ar  
     4    2    8 1   
     5    3    4 ar  
     6    3   15 1   
     7    4    5 ar  
     8    4   16 1   
     9    5    7 ar  
    10    5   17 1   
    11    6    7 ar  
    12    6    9 1   
    13    9   10 2   
    14   10   11 1   
    15   10   14 1   
    16   11   12 1   
    17   11   18 1   
    18   12   13 1   
    19   12   19 1   
    20   12   20 1   
    21   13   14 1   
    22   13   21 1   
    23   13   22 1   
    24   14   23 1   
@<TRIPOS>SUBSTRUCTURE
     1 CLU         1 TEMP              0 ****  ****    0 ROOT
