@<TRIPOS>MOLECULE
CLU
   23    24     1     0     0
SMALL
bcc


@<TRIPOS>ATOM
      1 Cl1        -0.0580    0.4650    0.2360 cl        1 CLU     -0.088900
      2 CAM         3.8670   -0.2930    0.1670 ca        1 CLU      0.000400
      3 CAE         4.2130   -0.1010    1.5040 ca        1 CLU     -0.110500
      4 CAC         3.2400    0.2650    2.4290 ca        1 CLU     -0.135000
      5 CAD         1.9210    0.4400    2.0190 ca        1 CLU     -0.110500
      6 CAN         2.5380   -0.1080   -0.2900 ca        1 CLU      0.195400
      7 CAL         1.5690    0.2520    0.6820 ca        1 CLU      0.000400
      8 Cl2         5.0920   -0.7420   -0.9300 cl        1 CLU     -0.088900
      9 NAJ         2.1830   -0.1310   -1.6470 ne        1 CLU     -0.650100
     10 CAK         2.2390   -1.2280   -2.3680 c2        1 CLU      0.772100
     11 NAI         2.4950   -2.5800   -1.9180 nu        1 CLU     -0.794200
     12 CAG         2.3760   -3.4710   -3.0680 c3        1 CLU      0.149300
     13 CAF         1.9200   -2.5810   -4.2610 c3        1 CLU      0.149300
     14 NAH         1.9830   -1.2020   -3.7880 nu        1 CLU     -0.794200
     15 HAE         5.2570   -0.2390    1.8270 ha        1 CLU      0.148500
     16 HAC         3.5130    0.4160    3.4840 ha        1 CLU      0.141000
     17 HAD         1.1500    0.7260    2.7530 ha        1 CLU      0.148500
     18 HNAI        3.3420   -2.6810   -1.3960 hn        1 CLU      0.416800
     19 HAG1        1.6000   -4.2460   -2.8300 h1        1 CLU      0.058450
     20 HAG2        3.3400   -3.9910   -3.3110 h1        1 CLU      0.058450
     21 HAF1        2.6250   -2.6820   -5.1280 h1        1 CLU      0.058450
     22 HAF2        0.8910   -2.8740   -4.5980 h1        1 CLU      0.058450
     23 HNAH        1.2260   -0.6150   -4.0660 hn        1 CLU      0.416800
@<TRIPOS>BOND
     1    1    7 1   
     2    2    3 ar  
     3    2    6 ar  
     4    2    8 1   
     5    3    4 ar  
     6    3   15 1   
     7    4    5 ar  
     8    4   16 1   
     9    5    7 ar  
    10    5   17 1   
    11    6    7 ar  
    12    6    9 1   
    13    9   10 2   
    14   10   11 1   
    15   10   14 1   
    16   11   12 1   
    17   11   18 1   
    18   12   13 1   
    19   12   19 1   
    20   12   20 1   
    21   13   14 1   
    22   13   21 1   
    23   13   22 1   
    24   14   23 1   
@<TRIPOS>SUBSTRUCTURE
     1 CLU         1 TEMP              0 ****  ****    0 ROOT
