@<TRIPOS>MOLECULE
CLU
   23    24     1     0     0
SMALL
bcc


@<TRIPOS>ATOM
      1 CL1         0.2750   -0.7280    0.0950 cl        1 CLU     -0.088900
      2 CAM         4.1550    0.2410    0.1340 ca        1 CLU      0.000400
      3 CAE         4.3790    0.4270    1.4990 ca        1 CLU     -0.110500
      4 CAC         3.3400    0.2590    2.4100 ca        1 CLU     -0.135000
      5 CAD         2.0720   -0.0990    1.9610 ca        1 CLU     -0.110500
      6 CAN         2.8720   -0.1110   -0.3600 ca        1 CLU      0.195400
      7 CAL         1.8430   -0.2890    0.5980 ca        1 CLU      0.000400
      8 CL2         5.4610    0.4470   -0.9350 cl        1 CLU     -0.088900
      9 NAJ         2.6440   -0.1320   -1.7440 ne        1 CLU     -0.650100
     10 CAK         2.2940   -1.2270   -2.3800 c2        1 CLU      0.772100
     11 NAI         2.2330   -2.5780   -1.8650 nh        1 CLU     -0.794200
     12 CAG         1.8690   -3.4670   -2.9640 c3        1 CLU      0.149300
     13 CAF         1.8060   -2.5760   -4.2390 c3        1 CLU      0.149300
     14 NAH         1.9490   -1.1980   -3.7800 nh        1 CLU     -0.794200
     15 HAE         5.3830    0.7070    1.8560 ha        1 CLU      0.148500
     16 HAC         3.5210    0.4090    3.4840 ha        1 CLU      0.141000
     17 HAD         1.2490   -0.2320    2.6810 ha        1 CLU      0.148500
     18 HNAI        1.6720   -2.6760   -1.0430 hn        1 CLU      0.416800
     19 HAG1        0.8860   -3.9800   -2.7940 h1        1 CLU      0.058450
     20 HAG2        2.6700   -4.2470   -3.0630 h1        1 CLU      0.058450
     21 HAF1        2.6080   -2.8740   -4.9650 h1        1 CLU      0.058450
     22 HAF2        0.8080   -2.6710   -4.7440 h1        1 CLU      0.058450
     23 HNAH        2.5320   -0.6150   -4.3430 hn        1 CLU      0.416800
@<TRIPOS>BOND
     1    1    7 1   
     2    2    3 ar  
     3    2    6 ar  
     4    2    8 1   
     5    3    4 ar  
     6    3   15 1   
     7    4    5 ar  
     8    4   16 1   
     9    5    7 ar  
    10    5   17 1   
    11    6    7 ar  
    12    6    9 1   
    13    9   10 2   
    14   10   11 1   
    15   10   14 1   
    16   11   12 1   
    17   11   18 1   
    18   12   13 1   
    19   12   19 1   
    20   12   20 1   
    21   13   14 1   
    22   13   21 1   
    23   13   22 1   
    24   14   23 1   
@<TRIPOS>SUBSTRUCTURE
     1 CLU         1 TEMP              0 ****  ****    0 ROOT
