@<TRIPOS>MOLECULE
CLU
   23    24     1     0     0
SMALL
bcc


@<TRIPOS>ATOM
      1 CL1         0.9840   -2.8150    0.7510 cl        1 CLU     -0.088900
      2 CAM         1.2980    1.0400   -0.2600 ca        1 CLU      0.000400
      3 CAE         2.6150    1.1040   -0.7180 ca        1 CLU     -0.110500
      4 CAC         3.4090   -0.0390   -0.7130 ca        1 CLU     -0.135000
      5 CAD         2.8890   -1.2460   -0.2510 ca        1 CLU     -0.110500
      6 CAN         0.7410   -0.1660    0.2320 ca        1 CLU      0.195400
      7 CAL         1.5740   -1.3140    0.2100 ca        1 CLU      0.000400
      8 CL2         0.3630    2.4650   -0.2870 cl        1 CLU     -0.088900
      9 NAJ        -0.5170   -0.2340    0.8490 ne        1 CLU     -0.650100
     10 CAK        -1.6340   -0.0320    0.1880 c2        1 CLU      0.772100
     11 NAI        -1.8100    0.1270   -1.2400 nh        1 CLU     -0.794200
     12 CAG        -3.2390    0.2470   -1.5100 c3        1 CLU      0.149300
     13 CAF        -3.9580    0.0460   -0.1440 c3        1 CLU      0.149300
     14 NAH        -2.9060    0.0110    0.8670 nh        1 CLU     -0.794200
     15 HAE         3.0250    2.0590   -1.0830 ha        1 CLU      0.148500
     16 HAC         4.4470    0.0110   -1.0730 ha        1 CLU      0.141000
     17 HAD         3.5180   -2.1500   -0.2510 ha        1 CLU      0.148500
     18 HNAI       -1.2460    0.8480   -1.6420 hn        1 CLU      0.416800
     19 HAG1       -3.5110    1.2400   -1.9550 h1        1 CLU      0.058450
     20 HAG2       -3.5270   -0.5610   -2.2340 h1        1 CLU      0.058450
     21 HAF1       -4.6300    0.9150    0.0860 h1        1 CLU      0.058450
     22 HAF2       -4.5730   -0.8920   -0.1590 h1        1 CLU      0.058450
     23 HNAH       -3.0210   -0.6730    1.5850 hn        1 CLU      0.416800
@<TRIPOS>BOND
     1    1    7 1   
     2    2    3 ar  
     3    2    6 ar  
     4    2    8 1   
     5    3    4 ar  
     6    3   15 1   
     7    4    5 ar  
     8    4   16 1   
     9    5    7 ar  
    10    5   17 1   
    11    6    7 ar  
    12    6    9 1   
    13    9   10 2   
    14   10   11 1   
    15   10   14 1   
    16   11   12 1   
    17   11   18 1   
    18   12   13 1   
    19   12   19 1   
    20   12   20 1   
    21   13   14 1   
    22   13   21 1   
    23   13   22 1   
    24   14   23 1   
@<TRIPOS>SUBSTRUCTURE
     1 CLU         1 TEMP              0 ****  ****    0 ROOT
