@<TRIPOS>MOLECULE
CLV
   23    23     1     0     0
SMALL
bcc


@<TRIPOS>ATOM
      1 N1          2.6250    0.6660    1.3950 n3        1 CLV     -0.912800
      2 CA1         1.8150    1.2380    0.3320 c3        1 CLV      0.189500
      3 CB1         2.6710    1.9420   -0.7190 c3        1 CLV     -0.085100
      4 C1          0.9130    0.1870   -0.3880 c3        1 CLV      0.188900
      5 N2          1.6890   -0.9350   -0.9860 n2        1 CLV     -0.518900
      6 N3         -0.0890   -0.4150    0.5420 n         1 CLV     -0.436800
      7 C2         -0.0240   -1.8070    0.3700 c         1 CLV      0.549200
      8 O2         -0.7120   -2.6780    0.9230 o         1 CLV     -0.636500
      9 CA2         1.1590   -2.0430   -0.5680 ce        1 CLV      0.329200
     10 CA3        -1.3070    0.2830    0.8520 c3        1 CLV     -0.049000
     11 C3         -2.0550    1.0460   -0.2790 c         1 CLV      0.902600
     12 O3         -1.6490    0.9780   -1.4730 o         1 CLV     -0.830800
     13 OXT        -3.0550    1.7120    0.1020 o         1 CLV     -0.830800
     14 HN11        2.9310    1.3950    2.0080 hn        1 CLV      0.344800
     15 HN12        2.0990    0.0000    1.9250 hn        1 CLV      0.344800
     16 HA1         1.0900    2.0110    0.7440 h1        1 CLV      0.030700
     17 HB11        3.4070    1.2420   -1.1780 hc        1 CLV      0.037367
     18 HB12        2.0070    2.3450   -1.5210 hc        1 CLV      0.037367
     19 HB13        3.2290    2.7920   -0.2560 hc        1 CLV      0.037367
     20 H1          0.3650    0.7220   -1.2360 h2        1 CLV      0.166700
     21 HA2         1.4790   -3.0480   -0.8520 h4        1 CLV      0.040800
     22 HA31       -2.0310   -0.4620    1.2860 h1        1 CLV      0.049200
     23 HA32       -1.0540    1.0390    1.6490 h1        1 CLV      0.049200
@<TRIPOS>BOND
     1    1    2 1   
     2    1   14 1   
     3    1   15 1   
     4    2    3 1   
     5    2    4 1   
     6    2   16 1   
     7    3   17 1   
     8    3   18 1   
     9    3   19 1   
    10    4    5 1   
    11    4    6 1   
    12    4   20 1   
    13    5    9 2   
    14    6    7 1   
    15    6   10 1   
    16    7    8 2   
    17    7    9 1   
    18    9   21 1   
    19   10   11 1   
    20   10   22 1   
    21   10   23 1   
    22   11   12 1   
    23   11   13 1   
@<TRIPOS>SUBSTRUCTURE
     1 CLV         1 TEMP              0 ****  ****    0 ROOT
