@<TRIPOS>MOLECULE
CLV
   23    23     1     0     0
SMALL
bcc


@<TRIPOS>ATOM
      1 N1         -2.0030    1.1540    0.3650 n3        1 CLV     -0.911800
      2 CA1        -0.8440    0.6220    1.0540 c3        1 CLV      0.189500
      3 CB1        -1.2420    0.2470    2.5560 c3        1 CLV     -0.087100
      4 C1         -0.3980   -0.5200    0.3950 c3        1 CLV      0.143900
      5 N2         -1.3950   -1.0310   -0.3770 n2        1 CLV     -0.542900
      6 N3          0.6740   -0.1210   -0.7430 n         1 CLV     -0.425800
      7 C2          0.1470   -0.7200   -1.9650 c         1 CLV      0.546200
      8 O2          0.5200   -0.4710   -3.1060 o         1 CLV     -0.630500
      9 CA2        -1.0970   -1.1630   -1.6060 ce        1 CLV      0.328200
     10 CA3         2.0410    0.2700   -0.5160 c3        1 CLV     -0.053000
     11 C3          2.9410   -0.4030   -1.5520 c         1 CLV      0.901600
     12 O3          3.3880    0.2590   -2.5180 o         1 CLV     -0.830300
     13 OXT         3.2960   -1.6070   -1.3940 o         1 CLV     -0.830300
     14 HN11       -1.8540    2.0150    0.1470 hn        1 CLV      0.348300
     15 HN12       -2.7270    1.1010    0.9070 hn        1 CLV      0.348300
     16 HA1        -0.1240    1.3010    1.0640 h1        1 CLV      0.073700
     17 HB11       -0.4400   -0.0940    3.0350 hc        1 CLV      0.038700
     18 HB12       -1.5880    1.0560    3.0210 hc        1 CLV      0.038700
     19 HB13       -1.9440   -0.4540    2.5470 hc        1 CLV      0.038700
     20 H1         -0.0840   -1.0580    1.1420 h2        1 CLV      0.170700
     21 HA2        -1.7040   -1.6280   -2.2510 h4        1 CLV      0.040800
     22 HA31        2.1210    1.2520   -0.5980 h1        1 CLV      0.052700
     23 HA32        2.3170   -0.0080    0.3930 h1        1 CLV      0.052700
@<TRIPOS>BOND
     1    1    2 1   
     2    1   14 1   
     3    1   15 1   
     4    2    3 1   
     5    2    4 1   
     6    2   16 1   
     7    3   17 1   
     8    3   18 1   
     9    3   19 1   
    10    4    5 1   
    11    4    6 1   
    12    4   20 1   
    13    5    9 2   
    14    6    7 1   
    15    6   10 1   
    16    7    8 2   
    17    7    9 1   
    18    9   21 1   
    19   10   11 1   
    20   10   22 1   
    21   10   23 1   
    22   11   12 1   
    23   11   13 1   
@<TRIPOS>SUBSTRUCTURE
     1 CLV         1 TEMP              0 ****  ****    0 ROOT
