@<TRIPOS>MOLECULE
CLW
   15    16     1     0     0
SMALL
bcc


@<TRIPOS>ATOM
      1 C1          0.0070   -0.0130   -0.0070 ca        1 CLW     -0.126000
      2 C2          1.4100   -0.0100   -0.0220 ca        1 CLW     -0.088000
      3 C3          2.0420    0.0100    1.2040 ca        1 CLW      0.047100
      4 C4          1.3240    0.0290    2.4470 ca        1 CLW     -0.004400
      5 C5         -0.0640    0.0250    2.4520 ca        1 CLW     -0.121000
      6 C6         -0.7020    0.0040    1.1970 ca        1 CLW      0.024400
      7 CL1        -2.4010   -0.0020    1.1590 cl        1 CLW     -0.080400
      8 O1          3.4210    0.0150    1.4630 os        1 CLW     -0.290200
      9 C7          3.5570    0.0190    2.8720 c         1 CLW      0.811600
     10 N1          2.2830    0.0850    3.4750 n         1 CLW     -0.453100
     11 O2          4.6910    0.0080    3.3380 o         1 CLW     -0.564500
     12 H11        -0.5370   -0.0280   -0.9650 ha        1 CLW      0.157000
     13 H21         1.9740   -0.0220   -0.9640 ha        1 CLW      0.166000
     14 H51        -0.6440    0.0430    3.3850 ha        1 CLW      0.162000
     15 HN11        2.1140   -0.1600    4.4170 hn        1 CLW      0.358500
@<TRIPOS>BOND
     1    1    2 ar  
     2    1    6 ar  
     3    1   12 1   
     4    2    3 ar  
     5    2   13 1   
     6    3    4 ar  
     7    3    8 1   
     8    4    5 ar  
     9    4   10 1   
    10    5    6 ar  
    11    5   14 1   
    12    6    7 1   
    13    8    9 1   
    14    9   10 1   
    15    9   11 2   
    16   10   15 1   
@<TRIPOS>SUBSTRUCTURE
     1 CLW         1 TEMP              0 ****  ****    0 ROOT
