@<TRIPOS>MOLECULE
CLW
   15    10     1     0     0
SMALL
bcc


@<TRIPOS>ATOM
      1 C1         -1.2470    0.0000   -1.7020 c1        1 CLW     -0.126000
      2 C2          0.1390    0.0000   -1.7020 c1        1 CLW     -0.104500
      3 C3          0.8430    0.0000   -0.4830 c1        1 CLW      0.002500
      4 C4          0.1600    0.0000    0.7000 c1        1 CLW      0.002500
      5 C5         -1.2470    0.0000    0.6990 c1        1 CLW     -0.104500
      6 C6         -1.9400    0.0000   -0.5010 c1        1 CLW     -0.054000
      7 CL1        -3.6840   -0.0020   -0.5100 cl        1 CLW     -0.002000
      8 O1          2.1760    0.0000   -0.1980 o         1 CLW     -0.222000
      9 C7          2.3170    0.0000    1.1600 c2        1 CLW      0.379000
     10 N1          1.0730    0.0000    1.7130 n1        1 CLW     -0.307000
     11 O2          3.3690   -0.0000    1.7680 o         1 CLW     -0.222000
     12 H11        -1.7350    0.0000   -2.5470 ha        1 CLW      0.157000
     13 H21         0.6270    0.0000   -2.5470 ha        1 CLW      0.164000
     14 H51        -1.7360    0.0000    1.5450 ha        1 CLW      0.164000
     15 HN11        0.8840    0.0000    2.6060 DU        1 CLW      0.272000
@<TRIPOS>BOND
     1    1    6 1   
     2    1   12 1   
     3    2    3 1   
     4    2   13 1   
     5    4    5 1   
     6    5   14 1   
     7    6    7 1   
     8    8    9 1   
     9    9   10 1   
    10    9   11 1   
@<TRIPOS>SUBSTRUCTURE
     1 CLW         1 TEMP              0 ****  ****    0 ROOT
