@<TRIPOS>MOLECULE
CLW
   15    16     1     0     0
SMALL
bcc


@<TRIPOS>ATOM
      1 C1          1.3740   -0.0130   -1.4680 ca        1 CLW     -0.126000
      2 C2          1.8090   -0.0110   -0.1350 ca        1 CLW     -0.088000
      3 C3          0.8300    0.0100    0.8360 ca        1 CLW      0.047100
      4 C4         -0.5720    0.0300    0.5240 ca        1 CLW     -0.004400
      5 C5         -0.9930    0.0280   -0.7980 ca        1 CLW     -0.121000
      6 C6          0.0120    0.0050   -1.7830 ca        1 CLW      0.024400
      7 CL1        -0.4610    0.0010   -3.4160 cl        1 CLW     -0.080400
      8 O1          0.9970    0.0130    2.2300 os        1 CLW     -0.290200
      9 C7         -0.3070    0.0190    2.7820 c         1 CLW      0.811600
     10 N1         -1.2650    0.0870    1.7480 n         1 CLW     -0.453100
     11 O2         -0.4120    0.0070    4.0030 o         1 CLW     -0.564500
     12 H11         2.1240   -0.0290   -2.2740 ha        1 CLW      0.157000
     13 H21         2.8770   -0.0250    0.1210 ha        1 CLW      0.166000
     14 H51        -2.0570    0.0470   -1.0710 ha        1 CLW      0.162000
     15 HN11       -2.2140   -0.1570    1.8690 hn        1 CLW      0.358500
@<TRIPOS>BOND
     1    1    2 ar  
     2    1    6 ar  
     3    1   12 1   
     4    2    3 ar  
     5    2   13 1   
     6    3    4 ar  
     7    3    8 1   
     8    4    5 ar  
     9    4   10 1   
    10    5    6 ar  
    11    5   14 1   
    12    6    7 1   
    13    8    9 1   
    14    9   10 1   
    15    9   11 2   
    16   10   15 1   
@<TRIPOS>SUBSTRUCTURE
     1 CLW         1 TEMP              0 ****  ****    0 ROOT
