@<TRIPOS>MOLECULE
CLX
    7     6     1     0     0
SMALL
bcc


@<TRIPOS>ATOM
      1 C1         -0.5560   -0.0010   -0.0300 c3        1 CLX      0.116200
      2 C           0.9570   -0.0010   -0.0300 c         1 CLX      0.568900
      3 O           1.5650   -0.0010    1.0240 o         1 CLX     -0.451100
      4 CL1        -1.1370    1.5830    0.4080 cl        1 CLX     -0.092400
      5 CL2        -1.1370   -1.1720    1.1240 cl        1 CLX     -0.092400
      6 CL3        -1.1370   -0.4150   -1.6210 cl        1 CLX     -0.092400
      7 H           1.4450    0.0090   -0.8750 h4        1 CLX      0.043200
@<TRIPOS>BOND
     1    1    2 1   
     2    1    4 1   
     3    1    5 1   
     4    1    6 1   
     5    2    3 2   
     6    2    7 1   
@<TRIPOS>SUBSTRUCTURE
     1 CLX         1 TEMP              0 ****  ****    0 ROOT
