@<TRIPOS>MOLECULE
CLX
    7     6     1     0     0
SMALL
bcc


@<TRIPOS>ATOM
      1 C1         -0.0140   -0.0060    0.0420 c3        1 CLX      0.116200
      2 C           1.5160   -0.0050    0.0330 c         1 CLX      0.568900
      3 O           2.2000    0.0010    1.0450 o         1 CLX     -0.451100
      4 Cl1        -0.5350    1.4340   -0.8360 cl        1 CLX     -0.092400
      5 Cl2        -0.7100   -0.0010    1.6480 cl        1 CLX     -0.092400
      6 Cl3        -0.5340   -1.4520   -0.8260 cl        1 CLX     -0.092400
      7 H           1.9380   -0.0100   -0.9970 h4        1 CLX      0.043200
@<TRIPOS>BOND
     1    1    2 1   
     2    1    4 1   
     3    1    5 1   
     4    1    6 1   
     5    2    3 2   
     6    2    7 1   
@<TRIPOS>SUBSTRUCTURE
     1 CLX         1 TEMP              0 ****  ****    0 ROOT
