@<TRIPOS>MOLECULE
CLX
    7     6     1     0     0
SMALL
bcc


@<TRIPOS>ATOM
      1 C1         -0.0140   -0.0030    0.0440 c3        1 CLX      0.116200
      2 C           1.5160   -0.0090    0.0290 c         1 CLX      0.568900
      3 O           2.2040   -0.0060    1.0380 o         1 CLX     -0.451100
      4 CL1        -0.5320    1.4380   -0.8330 cl        1 CLX     -0.092400
      5 CL2        -0.7040    0.0060    1.6530 cl        1 CLX     -0.092400
      6 CL3        -0.5430   -1.4480   -0.8210 cl        1 CLX     -0.092400
      7 H           1.9340   -0.0170   -1.0030 h4        1 CLX      0.043200
@<TRIPOS>BOND
     1    1    2 1   
     2    1    4 1   
     3    1    5 1   
     4    1    6 1   
     5    2    3 2   
     6    2    7 1   
@<TRIPOS>SUBSTRUCTURE
     1 CLX         1 TEMP              0 ****  ****    0 ROOT
