@<TRIPOS>MOLECULE
CLX
    7     6     1     0     0
SMALL
bcc


@<TRIPOS>ATOM
      1 C1          0.0000    0.0800   -0.0240 c3        1 CLX      0.116200
      2 C          -0.0000    1.3660    0.8050 c         1 CLX      0.568900
      3 O           0.0000    1.3850    2.0270 o         1 CLX     -0.451100
      4 CL1        -1.4430    0.1210   -1.0390 cl        1 CLX     -0.092400
      5 CL2         0.0000   -1.3810    0.9410 cl        1 CLX     -0.092400
      6 CL3         1.4430    0.1210   -1.0390 cl        1 CLX     -0.092400
      7 H          -0.0000    2.2810    0.1740 h4        1 CLX      0.043200
@<TRIPOS>BOND
     1    1    2 1   
     2    1    4 1   
     3    1    5 1   
     4    1    6 1   
     5    2    3 2   
     6    2    7 1   
@<TRIPOS>SUBSTRUCTURE
     1 CLX         1 TEMP              0 ****  ****    0 ROOT
