@<TRIPOS>MOLECULE
CLY
   61    62     1     0     0
SMALL
bcc


@<TRIPOS>ATOM
      1 O4          1.1430   -1.3510   -0.1910 oh        1 CLY     -0.588800
      2 C1          2.3610   -0.6760   -0.4430 c3        1 CLY      0.111100
      3 C2          3.1090   -0.7010    0.9090 c3        1 CLY      0.102100
      4 C3          2.3300    0.1980    1.8800 c3        1 CLY      0.106100
      5 C4          2.2150    1.6390    1.3600 c3        1 CLY      0.132100
      6 O5          1.6020    1.6250    0.0770 os        1 CLY     -0.387600
      7 C5          2.1970    0.7760   -0.9050 c3        1 CLY      0.150200
      8 O6          4.4250   -0.1900    0.7760 oh        1 CLY     -0.640800
      9 O7          2.8950    0.2150    3.1770 oh        1 CLY     -0.630800
     10 S1          1.1340    0.8310   -2.3300 ss        1 CLY     -0.225200
     11 C6          0.9850    2.5360   -2.6980 c3        1 CLY     -0.041000
     12 C7          3.5120    2.5010    1.2630 c3        1 CLY      0.093500
     13 C8          3.0880    3.9790    1.1580 c3        1 CLY      0.019700
     14 C9          4.1530    4.8590    0.5530 c3        1 CLY     -0.116100
     15 Cl1         2.5900    4.6090    2.7310 cl        1 CLY     -0.162400
     16 N1          4.4790    2.2400    2.3700 ny        1 CLY     -0.649800
     17 C10         5.8590    2.7920    2.1400 c         1 CLY      0.546100
     18 O8          6.2930    2.7480    0.9970 o         1 CLY     -0.444100
     19 C11         6.6120    3.3720    3.3460 c3        1 CLY      0.117500
     20 C12         8.1000    2.9590    3.2530 c3        1 CLY     -0.091400
     21 C13         8.3410    2.0000    4.4200 c3        1 CLY     -0.079700
     22 C14         7.0900    2.1220    5.3150 c3        1 CLY      0.157800
     23 N2          6.0690    2.9150    4.6220 n3        1 CLY     -0.764600
     24 C15         5.4710    3.9570    5.4250 c3        1 CLY      0.141100
     25 C16         9.6220    2.3250    5.1610 c3        1 CLY     -0.078400
     26 C17         9.9710    1.2580    6.1780 c3        1 CLY     -0.080400
     27 C18        11.2280    1.6110    6.9310 c3        1 CLY     -0.096100
     28 HO4         0.5420   -1.1630   -0.9290 ho        1 CLY      0.442000
     29 H1          2.9490   -1.2380   -1.2240 h1        1 CLY      0.074700
     30 H2          3.1380   -1.7540    1.3030 h1        1 CLY      0.084700
     31 H3          1.2750   -0.2170    1.9230 h1        1 CLY      0.113700
     32 H4          1.4660    2.1870    2.0070 h1        1 CLY      0.117700
     33 H5          3.2140    1.1750   -1.1660 h2        1 CLY      0.067700
     34 HO6         4.9310   -0.8280    0.2560 ho        1 CLY      0.438000
     35 HO7         2.7440   -0.6570    3.5670 ho        1 CLY      0.446000
     36 H61         0.2680    2.5880   -3.5540 h1        1 CLY      0.079367
     37 H62         1.9540    2.9840   -3.0090 h1        1 CLY      0.079367
     38 H63         0.5720    3.1160   -1.8430 h1        1 CLY      0.079367
     39 H7          4.0550    2.2210    0.3060 hx        1 CLY      0.131700
     40 H8          2.1630    4.0090    0.5140 h1        1 CLY      0.126700
     41 H91         3.7310    5.8700    0.3250 hc        1 CLY      0.065367
     42 H92         5.0200    4.9950    1.2450 hc        1 CLY      0.065367
     43 H93         4.5300    4.4080   -0.3990 hc        1 CLY      0.065367
     44 HN1         4.5820    1.2100    2.4660 hn        1 CLY      0.487800
     45 H11         6.5090    4.4930    3.2130 h1        1 CLY      0.103700
     46 H121        8.7350    3.8770    3.3520 hc        1 CLY      0.082200
     47 H122        8.3420    2.4820    2.2720 hc        1 CLY      0.082200
     48 H13         8.4080    0.9470    4.0310 hc        1 CLY      0.067700
     49 H141        6.6460    1.1090    5.5120 h1        1 CLY      0.067700
     50 H142        7.3610    2.5800    6.3070 h1        1 CLY      0.067700
     51 H151        6.1950    4.7600    5.7300 h1        1 CLY      0.054033
     52 H152        4.6330    4.4300    4.8460 h1        1 CLY      0.054033
     53 H153        5.0490    3.4850    6.3520 h1        1 CLY      0.054033
     54 H161        9.5260    3.3180    5.6730 hc        1 CLY      0.052700
     55 H162       10.4590    2.4140    4.4170 hc        1 CLY      0.052700
     56 H171        9.1200    1.1330    6.8990 hc        1 CLY      0.041200
     57 H172       10.1100    0.2740    5.6560 hc        1 CLY      0.041200
     58 H181       11.4710    0.8100    7.6710 hc        1 CLY      0.042367
     59 H182       12.0910    1.7190    6.2310 hc        1 CLY      0.042367
     60 H183       11.1010    2.5740    7.4830 hc        1 CLY      0.042367
     61 H12         4.0870    2.5960    3.2530 hn        1 CLY      0.487800
@<TRIPOS>BOND
     1    1    2 1   
     2    1   28 1   
     3    2    3 1   
     4    2    7 1   
     5    2   29 1   
     6    3    4 1   
     7    3    8 1   
     8    3   30 1   
     9    4    5 1   
    10    4    9 1   
    11    4   31 1   
    12    5    6 1   
    13    5   12 1   
    14    5   32 1   
    15    6    7 1   
    16    7   10 1   
    17    7   33 1   
    18    8   34 1   
    19    9   35 1   
    20   10   11 1   
    21   11   36 1   
    22   11   37 1   
    23   11   38 1   
    24   12   13 1   
    25   12   16 1   
    26   12   39 1   
    27   13   14 1   
    28   13   15 1   
    29   13   40 1   
    30   14   41 1   
    31   14   42 1   
    32   14   43 1   
    33   16   17 1   
    34   16   44 1   
    35   16   61 1   
    36   17   18 2   
    37   17   19 1   
    38   19   20 1   
    39   19   23 1   
    40   19   45 1   
    41   20   21 1   
    42   20   46 1   
    43   20   47 1   
    44   21   22 1   
    45   21   25 1   
    46   21   48 1   
    47   22   23 1   
    48   22   49 1   
    49   22   50 1   
    50   23   24 1   
    51   24   51 1   
    52   24   52 1   
    53   24   53 1   
    54   25   26 1   
    55   25   54 1   
    56   25   55 1   
    57   26   27 1   
    58   26   56 1   
    59   26   57 1   
    60   27   58 1   
    61   27   59 1   
    62   27   60 1   
@<TRIPOS>SUBSTRUCTURE
     1 CLY         1 TEMP              0 ****  ****    0 ROOT
