@<TRIPOS>MOLECULE
CLY
   60    61     1     0     0
SMALL
bcc


@<TRIPOS>ATOM
      1 O4          2.9910    1.0150   -3.8360 oh        1 CLY     -0.578800
      2 C1          1.9590    1.5400   -3.0280 c3        1 CLY      0.107100
      3 C2          2.2130    1.1390   -1.5600 c3        1 CLY      0.069100
      4 C3          1.9230   -0.3570   -1.3570 c3        1 CLY      0.130100
      5 C4          0.5380   -0.7750   -1.8840 c3        1 CLY      0.090100
      6 O5          0.4110   -0.3310   -3.2370 os        1 CLY     -0.406600
      7 C5          0.5580    1.0730   -3.4310 c3        1 CLY      0.159200
      8 O6          1.3700    1.8620   -0.6790 oh        1 CLY     -0.597800
      9 O7          2.1620   -0.7660   -0.0320 oh        1 CLY     -0.586800
     10 S1          0.2580    1.3830   -5.1580 ss        1 CLY     -0.230200
     11 C6         -1.3990    0.8510   -5.3550 c3        1 CLY     -0.050000
     12 C7         -0.6960   -0.3320   -1.0500 c3        1 CLY      0.077700
     13 C8         -1.9770   -0.7510   -1.8110 c3        1 CLY      0.045700
     14 C9         -3.1960   -0.0290   -1.2950 c3        1 CLY     -0.101100
     15 CL1        -2.2270   -2.5050   -1.7330 cl        1 CLY     -0.208400
     16 N1         -0.6640   -0.8370    0.2990 n         1 CLY     -0.549900
     17 C10        -1.1060   -0.0860    1.3690 c         1 CLY      0.667100
     18 O8         -1.6960    0.9990    1.1990 o         1 CLY     -0.620100
     19 C11        -0.9310   -0.6880    2.7810 c3        1 CLY      0.107500
     20 C12        -1.2130    0.3740    3.8640 c3        1 CLY     -0.089400
     21 C13         0.1160    0.6230    4.5780 c3        1 CLY     -0.080700
     22 C14         1.0710   -0.4730    4.0610 c3        1 CLY      0.163800
     23 N2          0.4260   -1.2180    2.9790 n3        1 CLY     -0.735600
     24 C15         0.4810   -2.6510    3.1350 c3        1 CLY      0.154100
     25 C16        -0.0380    0.6020    6.0850 c3        1 CLY     -0.074400
     26 C17         1.2200    1.0670    6.7890 c3        1 CLY     -0.081400
     27 C18         1.0660    1.0090    8.2870 c3        1 CLY     -0.093100
     28 HO4         2.7580    0.1000   -4.0480 ho        1 CLY      0.419000
     29 H1          2.0390    2.6580   -3.1420 h1        1 CLY      0.090700
     30 H2          3.2940    1.3340   -1.3100 h1        1 CLY      0.069700
     31 H3          2.6890   -0.9280   -1.9660 h1        1 CLY      0.083700
     32 H4          0.5200   -1.9000   -1.9890 h1        1 CLY      0.098700
     33 H5         -0.1960    1.6230   -2.8060 h2        1 CLY      0.078700
     34 HO6         1.6750    2.7770   -0.6840 ho        1 CLY      0.414000
     35 HO7         1.7660   -0.1120    0.5620 ho        1 CLY      0.430000
     36 H61        -1.6590    1.0540   -6.4200 h1        1 CLY      0.070367
     37 H62        -1.5100   -0.2380   -5.1540 h1        1 CLY      0.070367
     38 H63        -2.1000    1.4090   -4.6950 h1        1 CLY      0.070367
     39 H7         -0.7040    0.8030   -0.9930 h1        1 CLY      0.100700
     40 H8         -1.8290   -0.5340   -2.9030 h1        1 CLY      0.079700
     41 H91        -4.0990   -0.3110   -1.8870 hc        1 CLY      0.053367
     42 H92        -3.3820   -0.2660   -0.2190 hc        1 CLY      0.053367
     43 H93        -3.0380    1.0750   -1.3770 hc        1 CLY      0.053367
     44 HN1        -0.1230   -1.6560    0.4590 hn        1 CLY      0.330500
     45 H11        -1.7080   -1.5070    2.8530 h1        1 CLY      0.066700
     46 H121       -1.9820   -0.0190    4.5750 hc        1 CLY      0.070200
     47 H122       -1.6110    1.3170    3.4130 hc        1 CLY      0.070200
     48 H13         0.5190    1.6260    4.2710 hc        1 CLY      0.062700
     49 H141        1.9990   -0.0080    3.6310 h1        1 CLY      0.048200
     50 H142        1.3840   -1.1500    4.9040 h1        1 CLY      0.048200
     51 H151        1.5580   -2.9570    3.2050 h1        1 CLY      0.036033
     52 H152       -0.0580   -3.0290    4.0470 h1        1 CLY      0.036033
     53 H153        0.0280   -3.1330    2.2290 h1        1 CLY      0.036033
     54 H161       -0.3000   -0.4340    6.4270 hc        1 CLY      0.043200
     55 H162       -0.8910    1.2720    6.3730 hc        1 CLY      0.043200
     56 H171        1.4570    2.1180    6.4760 hc        1 CLY      0.040200
     57 H172        2.0850    0.4260    6.4730 hc        1 CLY      0.040200
     58 H181        2.0000    1.3610    8.7870 hc        1 CLY      0.033700
     59 H182        0.2200    1.6570    8.6220 hc        1 CLY      0.033700
     60 H183        0.8590   -0.0360    8.6230 hc        1 CLY      0.033700
@<TRIPOS>BOND
     1    1    2 1   
     2    1   28 1   
     3    2    3 1   
     4    2    7 1   
     5    2   29 1   
     6    3    4 1   
     7    3    8 1   
     8    3   30 1   
     9    4    5 1   
    10    4    9 1   
    11    4   31 1   
    12    5    6 1   
    13    5   12 1   
    14    5   32 1   
    15    6    7 1   
    16    7   10 1   
    17    7   33 1   
    18    8   34 1   
    19    9   35 1   
    20   10   11 1   
    21   11   36 1   
    22   11   37 1   
    23   11   38 1   
    24   12   13 1   
    25   12   16 1   
    26   12   39 1   
    27   13   14 1   
    28   13   15 1   
    29   13   40 1   
    30   14   41 1   
    31   14   42 1   
    32   14   43 1   
    33   16   17 1   
    34   16   44 1   
    35   17   18 2   
    36   17   19 1   
    37   19   20 1   
    38   19   23 1   
    39   19   45 1   
    40   20   21 1   
    41   20   46 1   
    42   20   47 1   
    43   21   22 1   
    44   21   25 1   
    45   21   48 1   
    46   22   23 1   
    47   22   49 1   
    48   22   50 1   
    49   23   24 1   
    50   24   51 1   
    51   24   52 1   
    52   24   53 1   
    53   25   26 1   
    54   25   54 1   
    55   25   55 1   
    56   26   27 1   
    57   26   56 1   
    58   26   57 1   
    59   27   58 1   
    60   27   59 1   
    61   27   60 1   
@<TRIPOS>SUBSTRUCTURE
     1 CLY         1 TEMP              0 ****  ****    0 ROOT
