@<TRIPOS>MOLECULE
CLY
   61    62     1     0     0
SMALL
bcc


@<TRIPOS>ATOM
      1 O4          1.2810   -1.3690   -0.3730 oh        1 CLY     -0.588800
      2 C1          2.4690   -0.6300   -0.5870 c3        1 CLY      0.111100
      3 C2          3.2210   -0.6990    0.7620 c3        1 CLY      0.102100
      4 C3          2.4070    0.1100    1.7820 c3        1 CLY      0.106100
      5 C4          2.2300    1.5720    1.3450 c3        1 CLY      0.132100
      6 O5          1.6150    1.6040    0.0630 os        1 CLY     -0.387600
      7 C5          2.2420    0.8380   -0.9660 c3        1 CLY      0.150200
      8 O6          4.5140   -0.1260    0.6570 oh        1 CLY     -0.640800
      9 O7          2.9750    0.0770    3.0780 oh        1 CLY     -0.630800
     10 S1          1.1740    0.9280   -2.3840 ss        1 CLY     -0.225200
     11 C6          0.9580    2.6440   -2.6590 c3        1 CLY     -0.041000
     12 C7          3.4900    2.4910    1.2960 c3        1 CLY      0.093500
     13 C8          3.0040    3.9540    1.2730 c3        1 CLY      0.019700
     14 C9          4.0290    4.9110    0.7190 c3        1 CLY     -0.116100
     15 CL1         2.4840    4.4730    2.8800 cl        1 CLY     -0.162400
     16 N1          4.4700    2.2100    2.3860 n4        1 CLY     -0.649800
     17 C10         5.8240    2.8330    2.1880 c         1 CLY      0.546100
     18 O8          6.2580    2.8700    1.0450 o         1 CLY     -0.444100
     19 C11         6.5530    3.3770    3.4250 c3        1 CLY      0.117500
     20 C12         8.0590    3.0380    3.3090 c3        1 CLY     -0.091400
     21 C13         8.3450    2.0260    4.4190 c3        1 CLY     -0.079700
     22 C14         7.0930    2.0400    5.3200 c3        1 CLY      0.157800
     23 N2          6.0350    2.8240    4.6730 n3        1 CLY     -0.764600
     24 C15         5.3920    3.7900    5.5350 c3        1 CLY      0.141100
     25 C16         9.6130    2.3660    5.1770 c3        1 CLY     -0.078400
     26 C17        10.0130    1.2590    6.1310 c3        1 CLY     -0.080400
     27 C18        11.2540    1.6260    6.9040 c3        1 CLY     -0.096100
     28 HO4         0.6710   -1.1670   -1.0990 ho        1 CLY      0.442000
     29 H1          3.0780   -1.1210   -1.3970 h1        1 CLY      0.074700
     30 H2          3.2960   -1.7710    1.0960 h1        1 CLY      0.084700
     31 H3          1.3710   -0.3510    1.8020 h1        1 CLY      0.113700
     32 H4          1.4600    2.0500    2.0220 h1        1 CLY      0.117700
     33 H5          3.2410    1.2940   -1.2040 h2        1 CLY      0.067700
     34 HO6         5.0450   -0.7130    0.1020 ho        1 CLY      0.438000
     35 HO7         2.8610   -0.8210    3.4180 ho        1 CLY      0.446000
     36 H61         0.2380    2.7140   -3.5100 h1        1 CLY      0.079367
     37 H62         1.9090    3.1450   -2.9460 h1        1 CLY      0.079367
     38 H63         0.5260    3.1600   -1.7730 h1        1 CLY      0.079367
     39 H7          4.0420    2.2880    0.3250 hx        1 CLY      0.131700
     40 H8          2.0760    3.9810    0.6330 h1        1 CLY      0.126700
     41 H91         4.4220    4.5300   -0.2570 hc        1 CLY      0.065367
     42 H92         3.5630    5.9140    0.5470 hc        1 CLY      0.065367
     43 H93         4.8910    5.0450    1.4170 hc        1 CLY      0.065367
     44 HN1         4.6160    1.1810    2.4250 hn        1 CLY      0.487800
     45 H11         6.3990    4.4980    3.3560 h1        1 CLY      0.103700
     46 H121        8.3190    2.6300    2.3030 hc        1 CLY      0.082200
     47 H122        8.6510    3.9770    3.4600 hc        1 CLY      0.082200
     48 H13         8.4590    1.0010    3.9710 hc        1 CLY      0.067700
     49 H141        6.6950    0.9980    5.4580 h1        1 CLY      0.067700
     50 H142        7.3450    2.4520    6.3360 h1        1 CLY      0.067700
     51 H151        6.0810    4.6060    5.8850 h1        1 CLY      0.054033
     52 H152        4.9950    3.2480    6.4330 h1        1 CLY      0.054033
     53 H153        4.5330    4.2570    4.9830 h1        1 CLY      0.054033
     54 H161        9.4730    3.3230    5.7460 hc        1 CLY      0.052700
     55 H162       10.4420    2.5360    4.4400 hc        1 CLY      0.052700
     56 H171       10.1940    0.3140    5.5540 hc        1 CLY      0.041200
     57 H172        9.1700    1.0560    6.8450 hc        1 CLY      0.041200
     58 H181       11.5360    0.7960    7.5960 hc        1 CLY      0.042367
     59 H182       11.0860    2.5490    7.5100 hc        1 CLY      0.042367
     60 H183       12.1100    1.8120    6.2100 hc        1 CLY      0.042367
     61 H12         4.0640    2.4990    3.2880 hn        1 CLY      0.487800
@<TRIPOS>BOND
     1    1    2 1   
     2    1   28 1   
     3    2    3 1   
     4    2    7 1   
     5    2   29 1   
     6    3    4 1   
     7    3    8 1   
     8    3   30 1   
     9    4    5 1   
    10    4    9 1   
    11    4   31 1   
    12    5    6 1   
    13    5   12 1   
    14    5   32 1   
    15    6    7 1   
    16    7   10 1   
    17    7   33 1   
    18    8   34 1   
    19    9   35 1   
    20   10   11 1   
    21   11   36 1   
    22   11   37 1   
    23   11   38 1   
    24   12   13 1   
    25   12   16 1   
    26   12   39 1   
    27   13   14 1   
    28   13   15 1   
    29   13   40 1   
    30   14   41 1   
    31   14   42 1   
    32   14   43 1   
    33   16   17 1   
    34   16   44 1   
    35   16   61 1   
    36   17   18 2   
    37   17   19 1   
    38   19   20 1   
    39   19   23 1   
    40   19   45 1   
    41   20   21 1   
    42   20   46 1   
    43   20   47 1   
    44   21   22 1   
    45   21   25 1   
    46   21   48 1   
    47   22   23 1   
    48   22   49 1   
    49   22   50 1   
    50   23   24 1   
    51   24   51 1   
    52   24   52 1   
    53   24   53 1   
    54   25   26 1   
    55   25   54 1   
    56   25   55 1   
    57   26   27 1   
    58   26   56 1   
    59   26   57 1   
    60   27   58 1   
    61   27   59 1   
    62   27   60 1   
@<TRIPOS>SUBSTRUCTURE
     1 CLY         1 TEMP              0 ****  ****    0 ROOT
