@<TRIPOS>MOLECULE
CLY
   60    61     1     0     0
SMALL
bcc


@<TRIPOS>ATOM
      1 O4         -4.3210   -3.8930   -2.7290 oh        1 CLY     -0.589800
      2 C1         -3.2970   -3.0580   -2.0170 c3        1 CLY      0.105100
      3 C2         -3.7780   -2.7340   -0.7560 c3        1 CLY      0.077100
      4 C3         -3.3270   -1.6750    0.0110 c3        1 CLY      0.133100
      5 C4         -3.0490   -0.4630   -0.8340 c3        1 CLY      0.125100
      6 O5         -3.7810   -0.5040   -2.2830 os        1 CLY     -0.416600
      7 C5         -3.0200   -1.8300   -2.8310 c3        1 CLY      0.166200
      8 O6         -3.5580   -4.0810    0.1670 oh        1 CLY     -0.608800
      9 O7         -2.0660   -2.0840    0.7100 oh        1 CLY     -0.594800
     10 S1         -3.5000   -2.1120   -4.4140 ss        1 CLY     -0.232200
     11 C6         -2.1590   -2.8600   -5.3200 c3        1 CLY     -0.049000
     12 C7         -1.6260   -0.3480   -1.0320 c3        1 CLY      0.083700
     13 C8         -1.3520    0.4390   -2.3150 c3        1 CLY      0.035700
     14 C9          0.0630    0.1630   -2.7890 c3        1 CLY     -0.102100
     15 CL1        -1.5350    2.1270   -2.0030 cl        1 CLY     -0.213400
     16 N1         -1.0290    0.3600    0.1120 n         1 CLY     -0.539900
     17 C10         0.3370    0.0610    0.5220 c         1 CLY      0.666100
     18 O8          1.0290   -0.6710   -0.1590 o         1 CLY     -0.615100
     19 C11         0.9140    0.7250    1.7200 c3        1 CLY      0.105500
     20 C12         1.7920    2.0120    1.2630 c3        1 CLY     -0.083400
     21 C13         3.1420    1.8650    1.9310 c3        1 CLY     -0.077700
     22 C14         2.9960    0.9320    2.7960 c3        1 CLY      0.162800
     23 N2          1.8240   -0.0360    2.2490 n3        1 CLY     -0.739600
     24 C15         1.2430   -0.7850    3.3720 c3        1 CLY      0.158100
     25 C16         3.5610    3.2800    2.6840 c3        1 CLY     -0.075400
     26 C17         5.0220    3.6310    2.3440 c3        1 CLY     -0.081400
     27 C18         5.3670    5.0270    2.9180 c3        1 CLY     -0.093100
     28 HO4        -3.9670   -4.6790   -2.9420 ho        1 CLY      0.420000
     29 H1         -2.4690   -3.5750   -1.9220 h1        1 CLY      0.098700
     30 H2         -4.7460   -2.6080   -0.8540 h1        1 CLY      0.059700
     31 H3         -4.0080   -1.4500    0.6810 h1        1 CLY      0.061700
     32 H4         -3.3610    0.3280   -0.3520 h1        1 CLY      0.080700
     33 H5         -2.0620   -1.6630   -2.8220 h2        1 CLY      0.098700
     34 HO6        -4.2660   -4.6110    0.0900 ho        1 CLY      0.421000
     35 HO7        -2.2710   -2.4850    1.4810 ho        1 CLY      0.425000
     36 H61        -2.5120   -3.3000   -6.1230 h1        1 CLY      0.069700
     37 H62        -1.7130   -3.5210   -4.7550 h1        1 CLY      0.069700
     38 H63        -1.5110   -2.1620   -5.5850 h1        1 CLY      0.069700
     39 H7         -1.2330   -1.2400   -1.1050 h1        1 CLY      0.112700
     40 H8         -1.9850    0.1660   -3.0040 h1        1 CLY      0.091700
     41 H91         0.6810    0.8030   -2.3670 hc        1 CLY      0.053367
     42 H92         0.1060    0.2640   -3.7790 hc        1 CLY      0.053367
     43 H93         0.3160   -0.7420   -2.5450 hc        1 CLY      0.053367
     44 HN1        -1.5040    0.9990    0.5480 hn        1 CLY      0.325500
     45 H11         0.1090    0.8940    2.2450 h1        1 CLY      0.075700
     46 H121        1.3590    2.8350    1.5580 hc        1 CLY      0.061700
     47 H122        1.8990    2.0170    0.2880 hc        1 CLY      0.061700
     48 H13         3.8240    1.6150    1.2710 hc        1 CLY      0.056700
     49 H141        3.8320    0.4270    2.8900 h1        1 CLY      0.045200
     50 H142        2.7390    1.3110    3.6550 h1        1 CLY      0.045200
     51 H151        0.6610   -1.4970    3.0260 h1        1 CLY      0.037700
     52 H152        1.9660   -1.1840    3.9100 h1        1 CLY      0.037700
     53 H153        0.7120   -0.1720    3.9370 h1        1 CLY      0.037700
     54 H161        2.9720    3.9990    2.3760 hc        1 CLY      0.044700
     55 H162        3.4670    3.1740    3.6500 hc        1 CLY      0.044700
     56 H171        5.6170    2.9610    2.7370 hc        1 CLY      0.040200
     57 H172        5.1370    3.6420    1.3760 hc        1 CLY      0.040200
     58 H181        5.1750    5.0420    3.8790 hc        1 CLY      0.034700
     59 H182        4.8250    5.7120    2.4640 hc        1 CLY      0.034700
     60 H183        6.3180    5.2130    2.7730 hc        1 CLY      0.034700
@<TRIPOS>BOND
     1    1    2 1   
     2    1   28 1   
     3    2    3 1   
     4    2    7 1   
     5    2   29 1   
     6    3    4 1   
     7    3    8 1   
     8    3   30 1   
     9    4    5 1   
    10    4    9 1   
    11    4   31 1   
    12    5    6 1   
    13    5   12 1   
    14    5   32 1   
    15    6    7 1   
    16    7   10 1   
    17    7   33 1   
    18    8   34 1   
    19    9   35 1   
    20   10   11 1   
    21   11   36 1   
    22   11   37 1   
    23   11   38 1   
    24   12   13 1   
    25   12   16 1   
    26   12   39 1   
    27   13   14 1   
    28   13   15 1   
    29   13   40 1   
    30   14   41 1   
    31   14   42 1   
    32   14   43 1   
    33   16   17 1   
    34   16   44 1   
    35   17   18 2   
    36   17   19 1   
    37   19   20 1   
    38   19   23 1   
    39   19   45 1   
    40   20   21 1   
    41   20   46 1   
    42   20   47 1   
    43   21   22 1   
    44   21   25 1   
    45   21   48 1   
    46   22   23 1   
    47   22   49 1   
    48   22   50 1   
    49   23   24 1   
    50   24   51 1   
    51   24   52 1   
    52   24   53 1   
    53   25   26 1   
    54   25   54 1   
    55   25   55 1   
    56   26   27 1   
    57   26   56 1   
    58   26   57 1   
    59   27   58 1   
    60   27   59 1   
    61   27   60 1   
@<TRIPOS>SUBSTRUCTURE
     1 CLY         1 TEMP              0 ****  ****    0 ROOT
