@<TRIPOS>MOLECULE
CLY
   61    62     1     0     0
SMALL
bcc


@<TRIPOS>ATOM
      1 O4          1.3270   -1.3410   -0.4690 oh        1 CLY     -0.588800
      2 C1          2.5000   -0.5720   -0.6640 c3        1 CLY      0.111100
      3 C2          3.2620   -0.6720    0.6770 c3        1 CLY      0.102100
      4 C3          2.4390    0.0860    1.7280 c3        1 CLY      0.106100
      5 C4          2.2320    1.5580    1.3420 c3        1 CLY      0.132100
      6 O5          1.6080    1.6220    0.0660 os        1 CLY     -0.387600
      7 C5          2.2430    0.9030   -0.9930 c3        1 CLY      0.150200
      8 O6          4.5430   -0.0720    0.5840 oh        1 CLY     -0.640800
      9 O7          3.0160    0.0200    3.0190 oh        1 CLY     -0.630800
     10 S1          1.1640    1.0210   -2.4010 ss        1 CLY     -0.225200
     11 C6          0.9070    2.7390   -2.6120 c3        1 CLY     -0.041000
     12 C7          3.4730    2.5030    1.3170 c3        1 CLY      0.093500
     13 C8          2.9590    3.9560    1.3480 c3        1 CLY      0.019700
     14 C9          3.9620    4.9500    0.8200 c3        1 CLY     -0.116100
     15 CL1         2.4390    4.4090    2.9740 cl        1 CLY     -0.162400
     16 N1          4.4650    2.2040    2.3910 n4        1 CLY     -0.649800
     17 C10         5.8070    2.8570    2.2060 c         1 CLY      0.546100
     18 O8          6.2310    2.9430    1.0610 o         1 CLY     -0.444100
     19 C11         6.5360    3.3720    3.4550 c3        1 CLY      0.117500
     20 C12         8.0450    3.0580    3.3200 c3        1 CLY     -0.091400
     21 C13         8.3520    2.0150    4.3950 c3        1 CLY     -0.079700
     22 C14         7.1060    1.9830    5.3030 c3        1 CLY      0.157800
     23 N2          6.0320    2.7710    4.6880 n3        1 CLY     -0.764600
     24 C15         5.3810    3.7010    5.5830 c3        1 CLY      0.141100
     25 C16         9.6200    2.3480    5.1570 c3        1 CLY     -0.078400
     26 C17        10.0410    1.2180    6.0730 c3        1 CLY     -0.080400
     27 C18        11.2810    1.5770    6.8490 c3        1 CLY     -0.096100
     28 HO4         0.7090   -1.1250   -1.1840 ho        1 CLY      0.442000
     29 H1          3.1130   -1.0240   -1.4950 h1        1 CLY      0.074700
     30 H2          3.3590   -1.7540    0.9730 h1        1 CLY      0.084700
     31 H3          1.4120   -0.3960    1.7390 h1        1 CLY      0.113700
     32 H4          1.4570    1.9980    2.0400 h1        1 CLY      0.117700
     33 H5          3.2310    1.3860   -1.2210 h2        1 CLY      0.067700
     34 HO6         5.0810   -0.6280    0.0060 ho        1 CLY      0.438000
     35 HO7         2.9210   -0.8910    3.3290 ho        1 CLY      0.446000
     36 H61         0.1790    2.8240   -3.4560 h1        1 CLY      0.079367
     37 H62         1.8440    3.2730   -2.8860 h1        1 CLY      0.079367
     38 H63         0.4680    3.2130   -1.7060 h1        1 CLY      0.079367
     39 H7          4.0220    2.3440    0.3360 hx        1 CLY      0.131700
     40 H8          2.0270    3.9860    0.7140 h1        1 CLY      0.126700
     41 H91         3.4770    5.9500    0.6860 hc        1 CLY      0.065367
     42 H92         4.3560    4.6110   -0.1710 hc        1 CLY      0.065367
     43 H93         4.8260    5.0770    1.5170 hc        1 CLY      0.065367
     44 HN1         4.6310    1.1770    2.3940 hn        1 CLY      0.487800
     45 H11         6.3650    4.4920    3.4230 h1        1 CLY      0.103700
     46 H121        8.3040    2.6860    2.2990 hc        1 CLY      0.082200
     47 H122        8.6250    4.0000    3.4970 hc        1 CLY      0.082200
     48 H13         8.4780    1.0070    3.9140 hc        1 CLY      0.067700
     49 H141        7.3590    2.3660    6.3310 h1        1 CLY      0.067700
     50 H142        6.7230    0.9310    5.4110 h1        1 CLY      0.067700
     51 H151        4.5120    4.1720    5.0520 h1        1 CLY      0.054033
     52 H152        6.0600    4.5150    5.9560 h1        1 CLY      0.054033
     53 H153        4.9970    3.1240    6.4660 h1        1 CLY      0.054033
     54 H161       10.4420    2.5530    4.4200 hc        1 CLY      0.052700
     55 H162        9.4700    3.2850    5.7560 hc        1 CLY      0.052700
     56 H171        9.2050    0.9800    6.7840 hc        1 CLY      0.041200
     57 H172       10.2320    0.2940    5.4650 hc        1 CLY      0.041200
     58 H181       11.1040    2.4780    7.4850 hc        1 CLY      0.042367
     59 H182       12.1300    1.7980    6.1580 hc        1 CLY      0.042367
     60 H183       11.5790    0.7300    7.5130 hc        1 CLY      0.042367
     61 H12         4.0610    2.4540    3.3050 hn        1 CLY      0.487800
@<TRIPOS>BOND
     1    1    2 1   
     2    1   28 1   
     3    2    3 1   
     4    2    7 1   
     5    2   29 1   
     6    3    4 1   
     7    3    8 1   
     8    3   30 1   
     9    4    5 1   
    10    4    9 1   
    11    4   31 1   
    12    5    6 1   
    13    5   12 1   
    14    5   32 1   
    15    6    7 1   
    16    7   10 1   
    17    7   33 1   
    18    8   34 1   
    19    9   35 1   
    20   10   11 1   
    21   11   36 1   
    22   11   37 1   
    23   11   38 1   
    24   12   13 1   
    25   12   16 1   
    26   12   39 1   
    27   13   14 1   
    28   13   15 1   
    29   13   40 1   
    30   14   41 1   
    31   14   42 1   
    32   14   43 1   
    33   16   17 1   
    34   16   44 1   
    35   16   61 1   
    36   17   18 2   
    37   17   19 1   
    38   19   20 1   
    39   19   23 1   
    40   19   45 1   
    41   20   21 1   
    42   20   46 1   
    43   20   47 1   
    44   21   22 1   
    45   21   25 1   
    46   21   48 1   
    47   22   23 1   
    48   22   49 1   
    49   22   50 1   
    50   23   24 1   
    51   24   51 1   
    52   24   52 1   
    53   24   53 1   
    54   25   26 1   
    55   25   54 1   
    56   25   55 1   
    57   26   27 1   
    58   26   56 1   
    59   26   57 1   
    60   27   58 1   
    61   27   59 1   
    62   27   60 1   
@<TRIPOS>SUBSTRUCTURE
     1 CLY         1 TEMP              0 ****  ****    0 ROOT
