@<TRIPOS>MOLECULE
CLZ
   24    25     1     0     0
SMALL
bcc


@<TRIPOS>ATOM
      1 C1         -0.8910    1.2520    0.1990 c2        1 CLZ      0.246000
      2 N2         -2.2120    1.5380    0.0540 n2        1 CLZ     -0.308000
      3 C3         -3.0850    0.4670   -0.1250 c2        1 CLZ      0.215000
      4 N4         -2.7360   -0.8630   -0.0330 n2        1 CLZ     -0.280000
      5 N5         -0.0780    2.2350    0.7030 nh        1 CLZ     -0.303000
      6 N6         -4.4090    0.7760   -0.4240 nh        1 CLZ     -0.328000
      7 C7          1.3650   -1.8430   -0.0220 ca        1 CLZ      0.031000
      8 C8          0.9360   -0.5290   -0.2130 ca        1 CLZ     -0.188000
      9 C9         -0.3920   -0.1130   -0.0150 ca        1 CLZ     -0.166000
     10 C10        -1.4020   -1.1310    0.0230 ca        1 CLZ      0.092000
     11 C11        -0.9770   -2.5030    0.1410 ca        1 CLZ     -0.075000
     12 C12         0.3460   -2.8340    0.1670 ca        1 CLZ     -0.144000
     13 N13         2.7200   -2.2020   -0.1360 nh        1 CLZ     -0.334000
     14 CL          2.2210    0.5290   -0.8930 cl        1 CLZ      0.959000
     15 O1          1.3580    1.8090   -1.6390 o         1 CLZ     -0.532500
     16 O2          2.7960    1.3310    0.5150 o         1 CLZ     -0.532500
     17 H51        -0.4240    3.1690    0.7050 hn        1 CLZ      0.243500
     18 H52         0.9110    2.1460    0.6100 hn        1 CLZ      0.243500
     19 H61        -4.7110    1.7090   -0.2650 hn        1 CLZ      0.230500
     20 H62        -5.0820    0.0550   -0.3170 hn        1 CLZ      0.230500
     21 H11        -1.7500   -3.2850    0.2270 ha        1 CLZ      0.164000
     22 H12         0.6500   -3.8850    0.3030 ha        1 CLZ      0.147000
     23 H131        3.3040   -1.7140    0.5150 hn        1 CLZ      0.194000
     24 H132        2.8650   -3.1890   -0.0930 hn        1 CLZ      0.194000
@<TRIPOS>BOND
     1    1    2 1   
     2    1    5 1   
     3    1    9 1   
     4    2    3 1   
     5    3    4 1   
     6    3    6 1   
     7    4   10 1   
     8    5   17 1   
     9    5   18 1   
    10    6   19 1   
    11    6   20 1   
    12    7    8 1   
    13    7   12 1   
    14    7   13 1   
    15    8    9 1   
    16    8   14 1   
    17    9   10 1   
    18   10   11 1   
    19   11   12 1   
    20   11   21 1   
    21   12   22 1   
    22   13   23 1   
    23   13   24 1   
    24   14   15 1   
    25   14   16 1   
@<TRIPOS>SUBSTRUCTURE
     1 CLZ         1 TEMP              0 ****  ****    0 ROOT
