@<TRIPOS>MOLECULE
CLZ
   24    25     1     0     0
SMALL
bcc


@<TRIPOS>ATOM
      1 C1         -0.0410    0.2110   -0.0570 c2        1 CLZ      0.246000
      2 N2          1.3050    0.0380   -0.1200 n2        1 CLZ     -0.308000
      3 C3          1.9820   -0.1810    1.0780 c2        1 CLZ      0.215000
      4 N4          1.4170   -0.1030    2.3320 n2        1 CLZ     -0.280000
      5 N5         -0.6660    0.7530   -1.1500 nh        1 CLZ     -0.303000
      6 N6          3.3320   -0.5080    0.9890 nh        1 CLZ     -0.328000
      7 C7         -2.7900   -0.0080    2.6100 ca        1 CLZ      0.031000
      8 C8         -2.1510   -0.1860    1.3840 ca        1 CLZ     -0.188000
      9 C9         -0.7670   -0.0140    1.2010 ca        1 CLZ     -0.166000
     10 C10         0.0580   -0.0190    2.3750 ca        1 CLZ      0.092000
     11 C11        -0.5900    0.0850    3.6570 ca        1 CLZ     -0.075000
     12 C12        -1.9490    0.1380    3.7630 ca        1 CLZ     -0.144000
     13 N13        -4.1880   -0.0940    2.7340 nh        1 CLZ     -0.334000
     14 CL         -3.2540   -0.8150    0.1110 cl        1 CLZ      0.959000
     15 O1         -3.6550    0.6210   -0.7460 o         1 CLZ     -0.532500
     16 O2         -2.2030   -1.5600   -1.0220 o         1 CLZ     -0.532500
     17 H51        -1.6580    0.6820   -1.2310 hn        1 CLZ      0.243500
     18 H52        -0.1680    0.7630   -2.0140 hn        1 CLZ      0.243500
     19 H61         3.7900   -0.3400    0.1240 hn        1 CLZ      0.230500
     20 H62         3.8770   -0.4300    1.8150 hn        1 CLZ      0.230500
     21 H11         0.0430    0.1380    4.5600 ha        1 CLZ      0.164000
     22 H12        -2.4220    0.2630    4.7500 ha        1 CLZ      0.147000
     23 H131       -4.6680    0.5790    2.1700 hn        1 CLZ      0.194000
     24 H132       -4.4960   -0.0650    3.6840 hn        1 CLZ      0.194000
@<TRIPOS>BOND
     1    1    2 1   
     2    1    5 1   
     3    1    9 1   
     4    2    3 1   
     5    3    4 1   
     6    3    6 1   
     7    4   10 1   
     8    5   17 1   
     9    5   18 1   
    10    6   19 1   
    11    6   20 1   
    12    7    8 1   
    13    7   12 1   
    14    7   13 1   
    15    8    9 1   
    16    8   14 1   
    17    9   10 1   
    18   10   11 1   
    19   11   12 1   
    20   11   21 1   
    21   12   22 1   
    22   13   23 1   
    23   13   24 1   
    24   14   15 1   
    25   14   16 1   
@<TRIPOS>SUBSTRUCTURE
     1 CLZ         1 TEMP              0 ****  ****    0 ROOT
