@<TRIPOS>MOLECULE
CLZ
   24    25     1     0     0
SMALL
bcc


@<TRIPOS>ATOM
      1 C1          0.1140    0.1520   -0.0840 c2        1 CLZ      0.139000
      2 N2          1.4570    0.0880   -0.0940 n2        1 CLZ     -0.251000
      3 C3          2.1030   -0.1320    1.1310 c2        1 CLZ      0.163000
      4 N4          1.4800   -0.1280    2.3490 n2        1 CLZ     -0.224000
      5 N5         -0.5740    0.3820   -1.2980 nv        1 CLZ     -0.339000
      6 N6          3.4780   -0.3960    1.0830 nv        1 CLZ     -0.315000
      7 C7         -2.7530    0.0420    2.4460 ca        1 CLZ      0.201000
      8 C8         -2.0620   -0.1320    1.2410 ca        1 CLZ     -0.344000
      9 C9         -0.6530   -0.0280    1.1390 ca        1 CLZ     -0.112000
     10 C10         0.1150   -0.0650    2.3390 ca        1 CLZ      0.045000
     11 C11        -0.5890   -0.0090    3.6000 ca        1 CLZ     -0.050000
     12 C12        -1.9420    0.0780    3.6500 ca        1 CLZ     -0.164000
     13 N13        -4.1020    0.2130    2.5290 nv        1 CLZ     -0.318000
     14 Cl         -2.9610   -0.6230   -0.2070 cl        1 CLZ      1.002000
     15 O1         -4.0060    0.7270   -0.4110 o         1 CLZ     -0.546000
     16 O2         -4.0980   -1.7180    0.4730 o         1 CLZ     -0.546000
     17 H51         0.0180    0.4120   -2.1060 hn        1 CLZ      0.204000
     18 H52        -1.1600    1.1940   -1.2410 hn        1 CLZ      0.204000
     19 H61         3.9530   -0.1120    0.2570 hn        1 CLZ      0.222000
     20 H62         3.9770   -0.2730    1.9350 hn        1 CLZ      0.222000
     21 H11         0.0060   -0.0270    4.5300 ha        1 CLZ      0.163000
     22 H12        -2.4570    0.1570    4.6220 ha        1 CLZ      0.150000
     23 H131       -4.6620    0.0780    1.7090 hn        1 CLZ      0.246000
     24 H132       -4.5400    0.0640    3.4060 hn        1 CLZ      0.246000
@<TRIPOS>BOND
     1    1    2 1   
     2    1    5 1   
     3    1    9 1   
     4    2    3 1   
     5    3    4 1   
     6    3    6 1   
     7    4   10 1   
     8    5   17 1   
     9    5   18 1   
    10    6   19 1   
    11    6   20 1   
    12    7    8 1   
    13    7   12 1   
    14    7   13 1   
    15    8    9 1   
    16    8   14 1   
    17    9   10 1   
    18   10   11 1   
    19   11   12 1   
    20   11   21 1   
    21   12   22 1   
    22   13   23 1   
    23   13   24 1   
    24   14   15 1   
    25   14   16 1   
@<TRIPOS>SUBSTRUCTURE
     1 CLZ         1 TEMP              0 ****  ****    0 ROOT
