@<TRIPOS>MOLECULE
CLZ
   24    21     1     0     0
SMALL
bcc


@<TRIPOS>ATOM
      1 C1          0.9140    0.0030   -1.3650 c1        1 CLZ      0.139000
      2 N2          2.2590    0.0030   -1.3650 n1        1 CLZ     -0.251000
      3 C3          2.9450    0.0030   -0.1790 c1        1 CLZ      0.163000
      4 N4          2.2650    0.0030    1.0060 n1        1 CLZ     -0.224000
      5 N5          0.2050   -0.0490   -2.5920 n3        1 CLZ     -0.339000
      6 N6          4.3640    0.0040   -0.1810 n3        1 CLZ     -0.315000
      7 C7         -1.8810    0.0030    1.0400 c1        1 CLZ      0.201000
      8 C8         -1.1910    0.0030   -0.1610 c1        1 CLZ     -0.344000
      9 C9          0.2210    0.0030   -0.1640 c1        1 CLZ     -0.112000
     10 C10         0.9030    0.0030    1.0110 c2        1 CLZ      0.045000
     11 C11         0.1980    0.0030    2.2350 c2        1 CLZ     -0.050000
     12 C12        -1.1860    0.0030    2.2380 c1        1 CLZ     -0.164000
     13 N13        -3.2640   -0.0140    1.3550 n3        1 CLZ     -0.318000
     14 CL         -2.0660    0.0450   -1.6690 cl        1 CLZ      1.002000
     15 O1         -2.9920   -0.9680   -1.9720 o         1 CLZ     -0.546000
     16 O2         -2.9340    1.1140   -1.9480 o         1 CLZ     -0.546000
     17 H51         0.0090    0.7220   -3.0380 hn        1 CLZ      0.204000
     18 H52        -0.0060   -0.8560   -2.9620 hn        1 CLZ      0.204000
     19 H61         4.8190    0.7930   -0.1460 hn        1 CLZ      0.222000
     20 H62         4.8200   -0.7850   -0.2180 hn        1 CLZ      0.222000
     21 H11         0.6880    0.0030    3.0800 ha        1 CLZ      0.163000
     22 H12        -1.6730    0.0030    3.0840 ha        1 CLZ      0.150000
     23 H131       -3.8840   -0.0230    0.6860 hn        1 CLZ      0.246000
     24 H132       -3.5330   -0.0140    2.2260 hn        1 CLZ      0.246000
@<TRIPOS>BOND
     1    1    5 1   
     2    1    9 1   
     3    2    3 1   
     4    3    6 1   
     5    4   10 1   
     6    5   17 1   
     7    5   18 1   
     8    6   19 1   
     9    6   20 1   
    10    7    8 1   
    11    7   13 1   
    12    8   14 1   
    13    9   10 1   
    14   10   11 1   
    15   11   12 1   
    16   11   21 1   
    17   12   22 1   
    18   13   23 1   
    19   13   24 1   
    20   14   15 1   
    21   14   16 1   
@<TRIPOS>SUBSTRUCTURE
     1 CLZ         1 TEMP              0 ****  ****    0 ROOT
