@<TRIPOS>MOLECULE
CM
    7     5     1     0     0
SMALL
bcc


@<TRIPOS>ATOM
      1 C1         -0.8240    0.0000    0.0000 c1        1 CM       0.321000
      2 C2          0.6890    0.0000    0.0000 c2        1 CM      -0.268000
      3 O1         -1.4540    0.0000    1.0900 o         1 CM      -0.596000
      4 O2         -1.4540    0.0000   -1.0900 o         1 CM      -0.596000
      5 H21         1.0140   -0.9200    0.0000 ha        1 CM       0.046333
      6 H22         1.0140    0.4600    0.7970 ha        1 CM       0.046333
      7 H23         1.0140    0.4600   -0.7970 ha        1 CM       0.046333
@<TRIPOS>BOND
     1    1    3 1   
     2    1    4 1   
     3    2    5 1   
     4    2    6 1   
     5    2    7 1   
@<TRIPOS>SUBSTRUCTURE
     1 CM          1 TEMP              0 ****  ****    0 ROOT
