@<TRIPOS>MOLECULE
CM
    7     6     1     0     0
SMALL
bcc


@<TRIPOS>ATOM
      1 C1         -0.0310   -0.0020   -0.0230 c         1 CM       0.901600
      2 C2          1.4970    0.0020   -0.0060 c3        1 CM      -0.200100
      3 O1         -0.6460   -0.0030    1.0840 o         1 CM      -0.861300
      4 O2         -0.6160   -0.0040   -1.1460 o         1 CM      -0.861300
      5 H21         1.8790    0.0030    1.0410 hc        1 CM       0.007033
      6 H22         1.8740    0.9080   -0.5340 hc        1 CM       0.007033
      7 H23         1.8790   -0.9020   -0.5340 hc        1 CM       0.007033
@<TRIPOS>BOND
     1    1    2 1   
     2    1    3 1   
     3    1    4 1   
     4    2    5 1   
     5    2    6 1   
     6    2    7 1   
@<TRIPOS>SUBSTRUCTURE
     1 CM          1 TEMP              0 ****  ****    0 ROOT
