@<TRIPOS>MOLECULE
CM
    7     6     1     0     0
SMALL
bcc


@<TRIPOS>ATOM
      1 C1         -0.0470   -0.0440   -0.0000 c         1 CM       0.901600
      2 C2          1.4040    0.4350    0.0000 c3        1 CM      -0.200100
      3 O1         -0.2650   -1.2920   -0.0000 o         1 CM      -0.861300
      4 O2         -0.9680    0.8250   -0.0000 o         1 CM      -0.861300
      5 H21         1.4520    1.5480    0.0000 hc        1 CM       0.007033
      6 H22         1.9260    0.0460    0.9050 hc        1 CM       0.007033
      7 H23         1.9260    0.0460   -0.9050 hc        1 CM       0.007033
@<TRIPOS>BOND
     1    1    2 1   
     2    1    3 1   
     3    1    4 1   
     4    2    5 1   
     5    2    6 1   
     6    2    7 1   
@<TRIPOS>SUBSTRUCTURE
     1 CM          1 TEMP              0 ****  ****    0 ROOT
