@<TRIPOS>MOLECULE
CM
    7     6     1     0     0
SMALL
bcc


@<TRIPOS>ATOM
      1 C1         -0.0310    0.0000   -0.0220 c         1 CM       0.901600
      2 C2          1.4970    0.0000   -0.0060 c3        1 CM      -0.200100
      3 O1         -0.6450   -0.0000    1.0850 o         1 CM      -0.861300
      4 O2         -0.6170   -0.0000   -1.1450 o         1 CM      -0.861300
      5 H21         1.8800    0.0000    1.0400 hc        1 CM       0.007033
      6 H22         1.8760    0.9050   -0.5350 hc        1 CM       0.007033
      7 H23         1.8760   -0.9050   -0.5350 hc        1 CM       0.007033
@<TRIPOS>BOND
     1    1    2 1   
     2    1    3 1   
     3    1    4 1   
     4    2    5 1   
     5    2    6 1   
     6    2    7 1   
@<TRIPOS>SUBSTRUCTURE
     1 CM          1 TEMP              0 ****  ****    0 ROOT
