@<TRIPOS>MOLECULE
CM0
   38    39     1     0     0
SMALL
bcc


@<TRIPOS>ATOM
      1 P           4.8190   -2.5930   -1.9860 p5        1 CM0      1.332900
      2 O5'         4.8290   -0.8550   -1.8850 os        1 CM0     -0.563200
      3 O3P         3.7910   -2.8780   -0.9110 o         1 CM0     -0.934500
      4 C3'         1.9010   -0.7480   -0.1630 c3        1 CM0      0.166100
      5 N1          0.3960    2.6500   -0.4440 n         1 CM0     -0.356000
      6 C5'         3.6020   -0.2760   -2.0710 c3        1 CM0      0.238400
      7 O1P         6.2370   -2.9660   -1.6700 o         1 CM0     -0.934500
      8 O2P         4.3410   -2.8310   -3.3900 o         1 CM0     -0.934500
      9 C4'         3.0080    0.1790   -0.7170 c3        1 CM0      0.064100
     10 C2         -0.2650    3.4190    0.5390 c         1 CM0      0.801500
     11 C5         -0.2990    4.1940   -2.1620 cc        1 CM0     -0.046100
     12 O4'         2.4360    1.5070   -0.8760 os        1 CM0     -0.443600
     13 C2'         0.7270    0.1980    0.1900 c3        1 CM0      0.100100
     14 O2         -0.3360    3.0430    1.7390 o         1 CM0     -0.710500
     15 N3         -0.8640    4.6280    0.1650 n         1 CM0     -0.595500
     16 C4         -0.8650    5.1190   -1.1610 c         1 CM0      0.736700
     17 O4         -1.2660    6.2790   -1.3400 o         1 CM0     -0.621500
     18 C6          0.3310    3.0420   -1.7750 cd        1 CM0      0.012600
     19 C8         -2.7470    4.2440   -4.1500 c         1 CM0      0.899600
     20 O5         -0.3550    4.6010   -3.4740 os        1 CM0     -0.316900
     21 O8         -3.3450    4.6420   -5.1930 o         1 CM0     -0.847300
     22 C1'         1.3360    1.6270    0.0270 c3        1 CM0      0.267500
     23 O2'         0.2680   -0.0130    1.5080 oh        1 CM0     -0.577800
     24 O9         -3.3070    4.0920   -3.0300 o         1 CM0     -0.847300
     25 H5'1        3.7120    0.6480   -2.7120 h1        1 CM0      0.002700
     26 H5'2        2.8910   -0.9890   -2.5760 h1        1 CM0      0.002700
     27 H4'         3.8330    0.2730    0.0400 h1        1 CM0      0.068700
     28 H3'         1.5800   -1.4900   -0.9450 h1        1 CM0      0.083700
     29 H1'         1.7300    1.9750    1.0320 h2        1 CM0      0.067700
     30 H2'        -0.1230    0.0370   -0.5270 h1        1 CM0      0.037700
     31 H6          0.8260    2.3580   -2.4920 h4        1 CM0      0.199000
     32 H3         -1.3620    5.1210    0.8700 hn        1 CM0      0.324500
     33 H7C1       -0.9050    4.1320   -5.3390 h1        1 CM0      0.034200
     34 H7C2       -1.1330    2.7630   -4.1290 h1        1 CM0      0.034200
     35 HA         -0.2260    0.7830    1.7540 ho        1 CM0      0.397000
     36 C7         -1.2630    3.8600   -4.3100 c3        1 CM0      0.010400
     37 O3'         2.3430   -1.4270    0.9850 oh        1 CM0     -0.648800
     38 HB          2.9660   -2.1150    0.6520 ho        1 CM0      0.495000
@<TRIPOS>BOND
     1    1    2 1   
     2    1    3 1   
     3    1    7 1   
     4    1    8 1   
     5    2    6 1   
     6    4    9 1   
     7    4   13 1   
     8    4   28 1   
     9    4   37 1   
    10    5   10 1   
    11    5   18 1   
    12    5   22 1   
    13    6    9 1   
    14    6   25 1   
    15    6   26 1   
    16    9   12 1   
    17    9   27 1   
    18   10   14 2   
    19   10   15 1   
    20   11   16 1   
    21   11   18 2   
    22   11   20 1   
    23   12   22 1   
    24   13   22 1   
    25   13   23 1   
    26   13   30 1   
    27   15   16 1   
    28   15   32 1   
    29   16   17 2   
    30   18   31 1   
    31   19   21 1   
    32   19   24 1   
    33   19   36 1   
    34   20   36 1   
    35   22   29 1   
    36   23   35 1   
    37   33   36 1   
    38   34   36 1   
    39   37   38 1   
@<TRIPOS>SUBSTRUCTURE
     1 CM0         1 TEMP              0 ****  ****    0 ROOT
