@<TRIPOS>MOLECULE
CM0
   38    37     1     0     0
SMALL
bcc


@<TRIPOS>ATOM
      1 P          -4.1530    2.4410    0.4380 p3        1 CM0      2.520000
      2 O5'        -2.5590    2.6630    0.3380 o         1 CM0     -0.732000
      3 O3P        -4.5330    2.2470    1.8500 o         1 CM0     -1.237000
      4 C3'         0.2950    2.7530    1.0440 c3        1 CM0      0.025000
      5 N1          0.4530   -0.5840    0.7590 n         1 CM0     -0.232000
      6 C5'        -1.6930    1.5820    0.7360 c3        1 CM0      0.073000
      7 O1P        -4.8820    3.6710   -0.1230 o         1 CM0     -1.237000
      8 O2P        -4.5400    1.2240   -0.3600 o         1 CM0     -1.237000
      9 C4'        -0.6550    2.0950    1.6970 c3        1 CM0     -0.057000
     10 C2         -0.6470   -1.4340    1.2420 c2        1 CM0      0.396000
     11 C5          0.6730   -2.0700   -1.2660 c1        1 CM0     -0.115000
     12 O4'         0.0620    0.8780    2.4210 os        1 CM0     -0.295000
     13 C2'         1.3610    1.7120    0.7480 c3        1 CM0     -0.012000
     14 O2         -1.1570   -1.2130    2.3400 o         1 CM0     -0.410000
     15 N3         -1.0860   -2.5970    0.4500 n         1 CM0     -0.381000
     16 C4         -0.4270   -2.9180   -0.7790 c1        1 CM0      0.342000
     17 O4         -0.8370   -3.8310   -1.4660 o         1 CM0     -0.368000
     18 C6          1.1310   -0.9160   -0.4560 c2        1 CM0      0.029000
     19 C7          2.2120   -3.4460   -2.4310 c3        1 CM0     -0.102000
     20 C8          2.6040   -3.8840   -3.8600 c2        1 CM0      0.341000
     21 O5          1.2990   -2.3650   -2.4990 os        1 CM0     -0.159000
     22 O8          3.0090   -3.0120   -4.7060 o         1 CM0     -0.576500
     23 C1'         0.9760    0.4620    1.6060 c3        1 CM0      0.113000
     24 O2'         2.5660    2.1670    1.1160 oh        1 CM0     -0.349000
     25 O9          2.4080   -5.1000   -4.2350 o         1 CM0     -0.576500
     26 O3'         0.8530    3.8480    1.9000 oh        1 CM0     -0.437000
     27 H5'1       -2.2300    0.8780    1.1770 h1        1 CM0      0.054000
     28 H5'2       -1.2500    1.2060   -0.0590 h1        1 CM0      0.054000
     29 H4'        -1.0790    2.6930    2.3720 h1        1 CM0      0.106000
     30 H3'        -0.0510    3.1100    0.2350 h1        1 CM0      0.109000
     31 H1'         1.7420    0.1450    2.0960 h2        1 CM0      0.129000
     32 H2'         1.3610    1.4740   -0.2470 h1        1 CM0      0.097000
     33 H6          1.9070   -0.3930   -0.7410 h4        1 CM0      0.195000
     34 H3         -1.8320   -3.0870    0.7200 hn        1 CM0      0.238000
     35 H7C1        3.0190   -3.1640   -1.9410 h1        1 CM0      0.063000
     36 H7C2        1.7950   -4.1920   -1.9670 h1        1 CM0      0.063000
     37 HA          3.0460    2.3760    0.3820 ho        1 CM0      0.233000
     38 HB          0.8400    4.5790    1.4690 ho        1 CM0      0.333000
@<TRIPOS>BOND
     1    1    3 1   
     2    1    7 1   
     3    1    8 1   
     4    2    6 1   
     5    4    9 1   
     6    4   13 1   
     7    4   26 1   
     8    4   30 1   
     9    5   10 1   
    10    5   18 1   
    11    5   23 1   
    12    6    9 1   
    13    6   27 1   
    14    6   28 1   
    15    9   12 1   
    16    9   29 1   
    17   10   14 1   
    18   10   15 1   
    19   11   18 1   
    20   11   21 1   
    21   12   23 1   
    22   13   23 1   
    23   13   24 1   
    24   13   32 1   
    25   15   16 1   
    26   15   34 1   
    27   16   17 1   
    28   18   33 1   
    29   19   20 1   
    30   19   21 1   
    31   19   35 1   
    32   19   36 1   
    33   20   22 1   
    34   20   25 1   
    35   23   31 1   
    36   24   37 1   
    37   26   38 1   
@<TRIPOS>SUBSTRUCTURE
     1 CM0         1 TEMP              0 ****  ****    0 ROOT
