@<TRIPOS>MOLECULE
CM3
   67    71     1     0     0
SMALL
bcc


@<TRIPOS>ATOM
      1 C1          0.1490   -1.4230    2.4130 c3        1 CM3     -0.030400
      2 C2         -0.9260   -0.7410    1.5540 c3        1 CM3      0.202400
      3 O3         -1.2430    0.5870    2.0120 os        1 CM3     -0.318900
      4 C4         -1.5190    0.6720    3.3640 ca        1 CM3      0.109100
      5 C5         -2.2270    1.8220    3.7580 ca        1 CM3     -0.131000
      6 C6         -2.4940    2.0410    5.1000 ca        1 CM3     -0.113000
      7 C7         -2.0560    1.1100    6.0540 ca        1 CM3      0.069100
      8 O8         -2.3460    1.3830    7.3710 oh        1 CM3     -0.491100
      9 C9         -1.3510   -0.0470    5.6560 ca        1 CM3      0.064900
     10 F10        -0.9330   -0.9160    6.6110 f         1 CM3     -0.143900
     11 C11        -1.0790   -0.2830    4.2920 ca        1 CM3     -0.128300
     12 C12        -0.3320   -1.5060    3.8700 c3        1 CM3     -0.014400
     13 C13        -1.1810   -2.7490    4.0740 c3        1 CM3     -0.093100
     14 C14         1.5120   -0.8170    2.3160 ca        1 CM3     -0.111300
     15 C15         1.7690    0.4960    2.7250 ca        1 CM3     -0.081500
     16 C16         3.0520    1.0310    2.6470 ca        1 CM3     -0.186500
     17 C17         4.0960    0.2400    2.1490 ca        1 CM3      0.125100
     18 O18         5.3900    0.6970    2.0420 oh        1 CM3     -0.498100
     19 C19         3.8580   -1.0790    1.7290 ca        1 CM3     -0.186500
     20 C20         2.5690   -1.5930    1.8170 ca        1 CM3     -0.081500
     21 C21        -0.5510   -0.6410    0.1080 ca        1 CM3     -0.125300
     22 C22        -0.0880    0.5490   -0.4570 ca        1 CM3     -0.075500
     23 C23         0.2450    0.6110   -1.8090 ca        1 CM3     -0.184000
     24 C24         0.1140   -0.5340   -2.6020 ca        1 CM3      0.138100
     25 C25        -0.3570   -1.7400   -2.0440 ca        1 CM3     -0.184000
     26 C26        -0.6860   -1.7820   -0.6970 ca        1 CM3     -0.075500
     27 O27         0.4280   -0.6050   -3.9430 os        1 CM3     -0.324900
     28 C28         0.8020    0.6310   -4.5650 c3        1 CM3      0.127400
     29 C29         1.0090    0.2970   -6.0500 c3        1 CM3      0.172800
     30 N30        -0.1980    0.4550   -6.8430 n3        1 CM3     -0.736600
     31 C31        -0.4130    1.8300   -7.2700 c3        1 CM3      0.176300
     32 C32        -1.7000    2.0190   -8.0700 c3        1 CM3     -0.077900
     33 C33        -1.7600    1.0550   -9.2350 c3        1 CM3     -0.078400
     34 C34        -1.5700   -0.3670   -8.7530 c3        1 CM3     -0.077900
     35 C35        -0.2880   -0.5070   -7.9320 c3        1 CM3      0.176300
     36 H1          0.2180   -2.4810    2.0180 hc        1 CM3      0.066700
     37 H2         -1.8740   -1.3540    1.6480 h1        1 CM3      0.055700
     38 H5         -2.5550    2.5390    2.9910 ha        1 CM3      0.157000
     39 H6         -3.0450    2.9320    5.4340 ha        1 CM3      0.159000
     40 HO8        -1.9820    0.6640    7.9120 ho        1 CM3      0.428000
     41 H12         0.5770   -1.5950    4.5350 hc        1 CM3      0.079700
     42 H131       -1.5320   -2.8010    5.1330 hc        1 CM3      0.042033
     43 H132       -2.0730   -2.7380    3.4040 hc        1 CM3      0.042033
     44 H133       -0.5800   -3.6640    3.8540 hc        1 CM3      0.042033
     45 H15         0.9440    1.1160    3.1100 ha        1 CM3      0.139000
     46 H16         3.2430    2.0630    2.9730 ha        1 CM3      0.142000
     47 H18         5.4110    1.6090    2.3650 ho        1 CM3      0.418000
     48 H19         4.6880   -1.6830    1.3380 ha        1 CM3      0.142000
     49 H20         2.3830   -2.6260    1.4850 ha        1 CM3      0.139000
     50 H22         0.0130    1.4470    0.1740 ha        1 CM3      0.139000
     51 H23         0.6090    1.5570   -2.2320 ha        1 CM3      0.143000
     52 H25        -0.4580   -2.6270   -2.6840 ha        1 CM3      0.143000
     53 H26        -1.0590   -2.7200   -0.2580 ha        1 CM3      0.139000
     54 H281        0.0040    1.3990   -4.3990 h1        1 CM3      0.045200
     55 H282        1.7700    0.9840   -4.1200 h1        1 CM3      0.045200
     56 H291        1.8460    0.9580   -6.4250 h1        1 CM3      0.047700
     57 H292        1.3620   -0.7720   -6.1130 h1        1 CM3      0.047700
     58 H311       -0.4640    2.4670   -6.3420 h1        1 CM3      0.027950
     59 H312        0.4530    2.2070   -7.8940 h1        1 CM3      0.027950
     60 H321       -1.7340    3.0750   -8.4400 hc        1 CM3      0.047950
     61 H322       -2.5860    1.8590   -7.4030 hc        1 CM3      0.047950
     62 H331       -0.9600    1.3110   -9.9790 hc        1 CM3      0.040200
     63 H332       -2.7470    1.1500   -9.7570 hc        1 CM3      0.040200
     64 H341       -1.5070   -1.0660   -9.6260 hc        1 CM3      0.047950
     65 H342       -2.4500   -0.6730   -8.1300 hc        1 CM3      0.047950
     66 H351        0.5950   -0.4190   -8.6330 h1        1 CM3      0.027950
     67 H352       -0.2640   -1.5370   -7.4770 h1        1 CM3      0.027950
@<TRIPOS>BOND
     1    1    2 1   
     2    1   12 1   
     3    1   14 1   
     4    1   36 1   
     5    2    3 1   
     6    2   21 1   
     7    2   37 1   
     8    3    4 1   
     9    4    5 ar  
    10    4   11 ar  
    11    5    6 ar  
    12    5   38 1   
    13    6    7 ar  
    14    6   39 1   
    15    7    8 1   
    16    7    9 ar  
    17    8   40 1   
    18    9   10 1   
    19    9   11 ar  
    20   11   12 1   
    21   12   13 1   
    22   12   41 1   
    23   13   42 1   
    24   13   43 1   
    25   13   44 1   
    26   14   15 ar  
    27   14   20 ar  
    28   15   16 ar  
    29   15   45 1   
    30   16   17 ar  
    31   16   46 1   
    32   17   18 1   
    33   17   19 ar  
    34   18   47 1   
    35   19   20 ar  
    36   19   48 1   
    37   20   49 1   
    38   21   22 ar  
    39   21   26 ar  
    40   22   23 ar  
    41   22   50 1   
    42   23   24 ar  
    43   23   51 1   
    44   24   25 ar  
    45   24   27 1   
    46   25   26 ar  
    47   25   52 1   
    48   26   53 1   
    49   27   28 1   
    50   28   29 1   
    51   28   54 1   
    52   28   55 1   
    53   29   30 1   
    54   29   56 1   
    55   29   57 1   
    56   30   31 1   
    57   30   35 1   
    58   31   32 1   
    59   31   58 1   
    60   31   59 1   
    61   32   33 1   
    62   32   60 1   
    63   32   61 1   
    64   33   34 1   
    65   33   62 1   
    66   33   63 1   
    67   34   35 1   
    68   34   64 1   
    69   34   65 1   
    70   35   66 1   
    71   35   67 1   
@<TRIPOS>SUBSTRUCTURE
     1 CM3         1 TEMP              0 ****  ****    0 ROOT
