@<TRIPOS>MOLECULE
CM3
   67    71     1     0     0
SMALL
bcc


@<TRIPOS>ATOM
      1 C1         -0.0800    0.0890    0.0980 c3        1 CM3     -0.030400
      2 C2          1.4530    0.0330    0.0080 c3        1 CM3      0.202400
      3 O3          2.0930    0.3170    1.2680 os        1 CM3     -0.318900
      4 C4          1.6440    1.4680    1.8880 ca        1 CM3      0.109100
      5 C5          2.5070    1.9950    2.8650 ca        1 CM3     -0.131000
      6 C6          2.1220    3.1070    3.5960 ca        1 CM3     -0.113000
      7 C7          0.8740    3.6990    3.3540 ca        1 CM3      0.069100
      8 O8          0.5440    4.7970    4.1140 oh        1 CM3     -0.491100
      9 C9          0.0100    3.1710    2.3680 ca        1 CM3      0.064900
     10 F10        -1.1960    3.7640    2.1720 f         1 CM3     -0.143900
     11 C11         0.3940    2.0420    1.6120 ca        1 CM3     -0.128300
     12 C12        -0.5180    1.4830    0.5710 c3        1 CM3     -0.014400
     13 C13        -0.6250    2.4310   -0.6130 c3        1 CM3     -0.093100
     14 C14        -0.7030   -0.9930    0.9200 ca        1 CM3     -0.111300
     15 C15        -0.4550   -1.1180    2.2910 ca        1 CM3     -0.081500
     16 C16        -1.0650   -2.1200    3.0400 ca        1 CM3     -0.186500
     17 C17        -1.9390   -3.0140    2.4080 ca        1 CM3      0.125100
     18 O18        -2.5810   -4.0290    3.0790 oh        1 CM3     -0.498100
     19 C19        -2.1990   -2.9080    1.0320 ca        1 CM3     -0.186500
     20 C20        -1.5790   -1.8990    0.3030 ca        1 CM3     -0.081500
     21 C21         1.9690   -1.2870   -0.4720 ca        1 CM3     -0.125300
     22 C22         2.5100   -2.2330    0.4000 ca        1 CM3     -0.075500
     23 C23         2.9910   -3.4510   -0.0810 ca        1 CM3     -0.184000
     24 C24         2.9260   -3.7200   -1.4520 ca        1 CM3      0.138100
     25 C25         2.3850   -2.7720   -2.3430 ca        1 CM3     -0.184000
     26 C26         1.9150   -1.5650   -1.8460 ca        1 CM3     -0.075500
     27 O27         3.3490   -4.8920   -2.0450 os        1 CM3     -0.324900
     28 C28         4.0100   -5.8270   -1.1840 c3        1 CM3      0.127400
     29 C29         4.4560   -6.9810   -2.0960 c3        1 CM3      0.173800
     30 N30         5.7870   -6.7900   -2.6460 n3        1 CM3     -0.736600
     31 C31         6.8370   -7.2190   -1.7330 c3        1 CM3      0.176300
     32 C32         8.2440   -6.9870   -2.2800 c3        1 CM3     -0.077900
     33 C33         8.4020   -7.6120   -3.6500 c3        1 CM3     -0.078400
     34 C34         7.3180   -7.1170   -4.5830 c3        1 CM3     -0.077900
     35 C35         5.9300   -7.3400   -3.9860 c3        1 CM3      0.176300
     36 H1         -0.4440   -0.0390   -0.9650 hc        1 CM3      0.066700
     37 H2          1.7790    0.8420   -0.7140 h1        1 CM3      0.055700
     38 H5          3.4800    1.5110    3.0400 ha        1 CM3      0.157000
     39 H6          2.7790    3.5380    4.3660 ha        1 CM3      0.159000
     40 HO8        -0.3400    5.0930    3.8430 ho        1 CM3      0.428000
     41 H12        -1.5450    1.3900    1.0330 hc        1 CM3      0.079700
     42 H131        0.3550    2.5240   -1.1390 hc        1 CM3      0.042033
     43 H132       -1.3860    2.0540   -1.3380 hc        1 CM3      0.042033
     44 H133       -0.9380    3.4440   -0.2630 hc        1 CM3      0.042033
     45 H15         0.2390   -0.4170    2.7830 ha        1 CM3      0.139000
     46 H16        -0.8630   -2.2080    4.1170 ha        1 CM3      0.142000
     47 H18        -2.3160   -3.9840    4.0100 ho        1 CM3      0.418000
     48 H19        -2.8850   -3.6190    0.5520 ha        1 CM3      0.142000
     49 H20        -1.7820   -1.8190   -0.7760 ha        1 CM3      0.139000
     50 H22         2.5590   -2.0130    1.4790 ha        1 CM3      0.139000
     51 H23         3.4120   -4.1810    0.6240 ha        1 CM3      0.143000
     52 H25         2.3470   -3.0010   -3.4170 ha        1 CM3      0.143000
     53 H26         1.4960   -0.8190   -2.5390 ha        1 CM3      0.139000
     54 H281        3.2730   -6.2090   -0.4280 h1        1 CM3      0.044700
     55 H282        4.8670   -5.3280   -0.6640 h1        1 CM3      0.044700
     56 H291        3.7100   -7.0560   -2.9380 h1        1 CM3      0.047700
     57 H292        4.3860   -7.9300   -1.4880 h1        1 CM3      0.047700
     58 H311        6.7330   -8.3150   -1.4720 h1        1 CM3      0.027700
     59 H312        6.7160   -6.6310   -0.7790 h1        1 CM3      0.027700
     60 H321        8.9800   -7.4340   -1.5640 hc        1 CM3      0.047950
     61 H322        8.4490   -5.8870   -2.3420 hc        1 CM3      0.047950
     62 H331        9.4100   -7.3580   -4.0690 hc        1 CM3      0.040200
     63 H332        8.3450   -8.7290   -3.5630 hc        1 CM3      0.040200
     64 H341        7.4680   -6.0250   -4.7880 hc        1 CM3      0.047950
     65 H342        7.3720   -7.6610   -5.5610 hc        1 CM3      0.047950
     66 H351        5.7090   -8.4490   -4.0010 h1        1 CM3      0.027700
     67 H352        5.1700   -6.8300   -4.6440 h1        1 CM3      0.027700
@<TRIPOS>BOND
     1    1    2 1   
     2    1   12 1   
     3    1   14 1   
     4    1   36 1   
     5    2    3 1   
     6    2   21 1   
     7    2   37 1   
     8    3    4 1   
     9    4    5 ar  
    10    4   11 ar  
    11    5    6 ar  
    12    5   38 1   
    13    6    7 ar  
    14    6   39 1   
    15    7    8 1   
    16    7    9 ar  
    17    8   40 1   
    18    9   10 1   
    19    9   11 ar  
    20   11   12 1   
    21   12   13 1   
    22   12   41 1   
    23   13   42 1   
    24   13   43 1   
    25   13   44 1   
    26   14   15 ar  
    27   14   20 ar  
    28   15   16 ar  
    29   15   45 1   
    30   16   17 ar  
    31   16   46 1   
    32   17   18 1   
    33   17   19 ar  
    34   18   47 1   
    35   19   20 ar  
    36   19   48 1   
    37   20   49 1   
    38   21   22 ar  
    39   21   26 ar  
    40   22   23 ar  
    41   22   50 1   
    42   23   24 ar  
    43   23   51 1   
    44   24   25 ar  
    45   24   27 1   
    46   25   26 ar  
    47   25   52 1   
    48   26   53 1   
    49   27   28 1   
    50   28   29 1   
    51   28   54 1   
    52   28   55 1   
    53   29   30 1   
    54   29   56 1   
    55   29   57 1   
    56   30   31 1   
    57   30   35 1   
    58   31   32 1   
    59   31   58 1   
    60   31   59 1   
    61   32   33 1   
    62   32   60 1   
    63   32   61 1   
    64   33   34 1   
    65   33   62 1   
    66   33   63 1   
    67   34   35 1   
    68   34   64 1   
    69   34   65 1   
    70   35   66 1   
    71   35   67 1   
@<TRIPOS>SUBSTRUCTURE
     1 CM3         1 TEMP              0 ****  ****    0 ROOT
