@<TRIPOS>MOLECULE
CM3
   67    65     1     0     0
SMALL
bcc


@<TRIPOS>ATOM
      1 C1         -3.0170    1.4370    1.3650 c3        1 CM3     -0.077000
      2 C2         -1.4810    1.6360    1.3990 c3        1 CM3      0.083000
      3 O3         -0.8750    1.5660    2.6150 os        1 CM3     -0.203000
      4 C4         -1.6130    2.2100    3.8210 c2        1 CM3      0.067000
      5 C5         -0.9600    2.5110    5.0000 c1        1 CM3     -0.130000
      6 C6         -1.6200    3.2420    6.0070 c1        1 CM3     -0.165000
      7 C7         -2.9900    3.6840    5.8110 c1        1 CM3      0.016000
      8 O8         -3.6430    4.3740    6.8210 o         1 CM3     -0.238000
      9 C9         -3.6750    3.3760    4.5920 c2        1 CM3      0.097000
     10 F10        -4.9400    3.7220    4.4390 f         1 CM3     -0.088000
     11 C11        -3.0390    2.6660    3.6120 c2        1 CM3     -0.131000
     12 C12        -3.7670    2.2360    2.2360 c3        1 CM3     -0.061000
     13 C13        -4.1890    3.5520    1.4610 c3        1 CM3     -0.212000
     14 C14        -3.3400   -0.1050    1.7020 c2        1 CM3     -0.104000
     15 C15        -2.9260   -0.6330    2.8930 c2        1 CM3     -0.075000
     16 C16        -3.4520   -1.8450    3.3400 c1        1 CM3     -0.214000
     17 C17        -4.3990   -2.5170    2.5720 c1        1 CM3      0.081000
     18 O18        -4.9970   -3.7330    3.0640 oh        1 CM3     -0.252000
     19 C19        -4.8150   -1.9860    1.3750 c1        1 CM3     -0.158000
     20 C20        -4.2950   -0.7860    0.9320 c1        1 CM3     -0.088000
     21 C21        -0.8210    0.5230    0.4830 c2        1 CM3     -0.114000
     22 C22         0.2580   -0.2320    0.9840 c2        1 CM3     -0.063000
     23 C23         0.9870   -1.0780    0.1280 c1        1 CM3     -0.161000
     24 C24         0.6430   -1.1710   -1.2140 c1        1 CM3      0.091000
     25 C25        -0.4360   -0.4170   -1.7180 c1        1 CM3     -0.206000
     26 C26        -1.1660    0.4320   -0.8580 c1        1 CM3     -0.089000
     27 O27         1.4420   -2.0960   -2.1500 os        1 CM3     -0.218000
     28 C28         2.6080   -1.4210   -2.8460 c3        1 CM3     -0.023000
     29 C29         3.8960   -2.4420   -2.8950 c3        1 CM3     -0.072000
     30 N30         4.6360   -2.3280   -4.3610 n3        1 CM3     -0.261000
     31 C31         5.5780   -1.1370   -4.3690 c3        1 CM3     -0.066000
     32 C32         6.4510   -1.0650   -5.6870 c3        1 CM3     -0.174500
     33 C33         6.4280   -1.0680   -5.7210 c3        1 CM3     -0.156000
     34 C34         5.5020   -2.2700   -5.7000 c3        1 CM3     -0.174500
     35 C35         4.6490   -2.3530   -4.3670 c3        1 CM3     -0.066000
     36 H1         -3.3200    1.6170    0.4580 hc        1 CM3      0.106000
     37 H2         -1.2850    2.4960    1.0190 h1        1 CM3      0.094000
     38 H5         -0.0280    2.2130    5.1370 ha        1 CM3      0.156000
     39 H6         -1.1370    3.4930    6.8240 ha        1 CM3      0.142000
     40 HO8        -3.8060    3.8240    7.4960 ho        1 CM3      0.219000
     41 H12        -4.5680    1.7540    2.4650 hc        1 CM3      0.121000
     42 H131       -3.4800    4.1850    1.4990 hc        1 CM3      0.082000
     43 H132       -4.3840    3.3280    0.5090 hc        1 CM3      0.082000
     44 H133       -5.0150    3.9460    1.8900 hc        1 CM3      0.082000
     45 H15        -2.2660   -0.1670    3.4240 ha        1 CM3      0.145000
     46 H16        -3.1650   -2.2120    4.1750 ha        1 CM3      0.134000
     47 H18        -5.4310   -3.5660    3.8350 ho        1 CM3      0.217000
     48 H19        -5.4790   -2.4590    0.8360 ha        1 CM3      0.150000
     49 H20        -4.5970   -0.4080    0.0800 ha        1 CM3      0.132000
     50 H22         0.5000   -0.1670    1.9260 ha        1 CM3      0.150000
     51 H23         1.7300   -1.5970    0.4770 ha        1 CM3      0.150000
     52 H25        -0.6790   -0.4810   -2.6610 ha        1 CM3      0.140000
     53 H26        -1.9340    0.9670   -1.2150 ha        1 CM3      0.129000
     54 H281        2.8530   -0.6190   -2.3610 h1        1 CM3      0.086000
     55 H282        2.3520   -1.1890   -3.7390 h1        1 CM3      0.086000
     56 H291        3.5920   -3.3560   -2.7560 h1        1 CM3      0.087000
     57 H292        4.5260   -2.2020   -2.1950 h1        1 CM3      0.087000
     58 H311        5.0360   -0.2950   -4.2920 h1        1 CM3      0.081500
     59 H312        6.1990   -1.2040   -3.5660 h1        1 CM3      0.081500
     60 H321        6.9580   -0.1930   -5.6990 hc        1 CM3      0.085750
     61 H322        7.1140   -1.8290   -5.6850 hc        1 CM3      0.085750
     62 H331        5.8820   -0.2360   -5.8030 hc        1 CM3      0.079500
     63 H332        7.0440   -1.1380   -6.5350 hc        1 CM3      0.079500
     64 H341        6.0510   -3.1000   -5.7840 hc        1 CM3      0.085750
     65 H342        4.8910   -2.2140   -6.4650 hc        1 CM3      0.085750
     66 H351        3.9580   -3.0940   -4.4600 h1        1 CM3      0.081500
     67 H352        5.2630   -2.5780   -3.5970 h1        1 CM3      0.081500
@<TRIPOS>BOND
     1    1    2 1   
     2    1   12 1   
     3    1   14 1   
     4    1   36 1   
     5    2    3 1   
     6    2   21 1   
     7    2   37 1   
     8    3    4 1   
     9    4    5 1   
    10    4   11 1   
    11    5   38 1   
    12    6    7 1   
    13    6   39 1   
    14    7    9 1   
    15    8   40 1   
    16    9   10 1   
    17    9   11 1   
    18   11   12 1   
    19   12   13 1   
    20   12   41 1   
    21   13   42 1   
    22   13   43 1   
    23   13   44 1   
    24   14   15 1   
    25   14   20 1   
    26   15   16 1   
    27   15   45 1   
    28   16   46 1   
    29   17   18 1   
    30   17   19 1   
    31   18   47 1   
    32   19   48 1   
    33   20   49 1   
    34   21   22 1   
    35   21   26 1   
    36   22   23 1   
    37   22   50 1   
    38   23   51 1   
    39   24   25 1   
    40   24   27 1   
    41   25   52 1   
    42   26   53 1   
    43   27   28 1   
    44   28   29 1   
    45   28   54 1   
    46   28   55 1   
    47   29   30 1   
    48   29   56 1   
    49   29   57 1   
    50   30   31 1   
    51   30   35 1   
    52   31   32 1   
    53   31   58 1   
    54   31   59 1   
    55   32   33 1   
    56   32   60 1   
    57   32   61 1   
    58   33   34 1   
    59   33   62 1   
    60   33   63 1   
    61   34   35 1   
    62   34   64 1   
    63   34   65 1   
    64   35   66 1   
    65   35   67 1   
@<TRIPOS>SUBSTRUCTURE
     1 CM3         1 TEMP              0 ****  ****    0 ROOT
