@<TRIPOS>MOLECULE
CM3
   67    71     1     0     0
SMALL
bcc


@<TRIPOS>ATOM
      1 C1         -0.0940    0.1150    0.0700 c3        1 CM3     -0.030400
      2 C2          1.4390    0.0530    0.0020 c3        1 CM3      0.202400
      3 O3          2.0630    0.3240    1.2720 os        1 CM3     -0.318900
      4 C4          1.6100    1.4720    1.8940 ca        1 CM3      0.109100
      5 C5          2.4620    1.9880    2.8880 ca        1 CM3     -0.131000
      6 C6          2.0720    3.0970    3.6220 ca        1 CM3     -0.113000
      7 C7          0.8300    3.6960    3.3660 ca        1 CM3      0.069100
      8 O8          0.4940    4.7900    4.1300 oh        1 CM3     -0.491100
      9 C9         -0.0220    3.1790    2.3640 ca        1 CM3      0.064900
     10 F10        -1.2220    3.7790    2.1560 f         1 CM3     -0.143900
     11 C11         0.3680    2.0550    1.6060 ca        1 CM3     -0.128300
     12 C12        -0.5330    1.5080    0.5470 c3        1 CM3     -0.014400
     13 C13        -0.6180    2.4650   -0.6310 c3        1 CM3     -0.093100
     14 C14        -0.7340   -0.9700    0.8740 ca        1 CM3     -0.111300
     15 C15        -0.5050   -1.1070    2.2470 ca        1 CM3     -0.081500
     16 C16        -1.1310   -2.1120    2.9800 ca        1 CM3     -0.186500
     17 C17        -2.0010   -2.9960    2.3290 ca        1 CM3      0.125100
     18 O18        -2.6570   -4.0130    2.9830 oh        1 CM3     -0.498100
     19 C19        -2.2410   -2.8770    0.9500 ca        1 CM3     -0.186500
     20 C20        -1.6060   -1.8670    0.2380 ca        1 CM3     -0.081500
     21 C21         1.9560   -1.2670   -0.4800 ca        1 CM3     -0.125300
     22 C22         2.4760   -2.2230    0.3930 ca        1 CM3     -0.075500
     23 C23         2.9580   -3.4400   -0.0890 ca        1 CM3     -0.184000
     24 C24         2.9140   -3.6990   -1.4640 ca        1 CM3      0.138100
     25 C25         2.3940   -2.7390   -2.3560 ca        1 CM3     -0.184000
     26 C26         1.9230   -1.5330   -1.8580 ca        1 CM3     -0.075500
     27 O27         3.3390   -4.8670   -2.0590 os        1 CM3     -0.324900
     28 C28         3.9740   -5.8170   -1.1940 c3        1 CM3      0.127400
     29 C29         4.4250   -6.9680   -2.1060 c3        1 CM3      0.172800
     30 N30         5.7710   -6.7890   -2.6240 n3        1 CM3     -0.736600
     31 C31         6.7940   -7.2420   -1.6920 c3        1 CM3      0.176300
     32 C32         8.2160   -7.0240   -2.2050 c3        1 CM3     -0.077900
     33 C33         8.3970   -7.6380   -3.5760 c3        1 CM3     -0.078400
     34 C34         7.3420   -7.1200   -4.5290 c3        1 CM3     -0.077900
     35 C35         5.9370   -7.3290   -3.9660 c3        1 CM3      0.176300
     36 H1         -0.4430   -0.0030   -1.0000 hc        1 CM3      0.066700
     37 H2          1.7800    0.8650   -0.7100 h1        1 CM3      0.055700
     38 H5          3.4300    1.4980    3.0730 ha        1 CM3      0.157000
     39 H6          2.7200    3.5190    4.4050 ha        1 CM3      0.159000
     40 HO8        -0.3840    5.0920    3.8490 ho        1 CM3      0.428000
     41 H12        -1.5670    1.4170    0.9940 hc        1 CM3      0.079700
     42 H131       -0.9310    3.4770   -0.2770 hc        1 CM3      0.042033
     43 H132        0.3700    2.5570   -1.1430 hc        1 CM3      0.042033
     44 H133       -1.3710    2.0970   -1.3690 hc        1 CM3      0.042033
     45 H15         0.1850   -0.4140    2.7540 ha        1 CM3      0.139000
     46 H16        -0.9440   -2.2090    4.0590 ha        1 CM3      0.142000
     47 H18        -2.4040   -3.9770    3.9170 ho        1 CM3      0.418000
     48 H19        -2.9240   -3.5820    0.4550 ha        1 CM3      0.142000
     49 H20        -1.7940   -1.7760   -0.8430 ha        1 CM3      0.139000
     50 H22         2.5080   -2.0120    1.4740 ha        1 CM3      0.139000
     51 H23         3.3610   -4.1790    0.6160 ha        1 CM3      0.143000
     52 H25         2.3730   -2.9590   -3.4330 ha        1 CM3      0.143000
     53 H26         1.5220   -0.7790   -2.5510 ha        1 CM3      0.139000
     54 H281        3.2190   -6.1970   -0.4550 h1        1 CM3      0.045200
     55 H282        4.8260   -5.3310   -0.6530 h1        1 CM3      0.045200
     56 H291        4.3290   -7.9220   -1.5100 h1        1 CM3      0.047700
     57 H292        3.6980   -7.0250   -2.9660 h1        1 CM3      0.047700
     58 H311        6.6590   -6.6620   -0.7360 h1        1 CM3      0.027950
     59 H312        6.6700   -8.3380   -1.4440 h1        1 CM3      0.027950
     60 H321        8.9290   -7.4870   -1.4760 hc        1 CM3      0.047950
     61 H322        8.4370   -5.9260   -2.2510 hc        1 CM3      0.047950
     62 H331        9.4180   -7.3940   -3.9700 hc        1 CM3      0.040200
     63 H332        8.3230   -8.7550   -3.5020 hc        1 CM3      0.040200
     64 H341        7.5110   -6.0280   -4.7200 hc        1 CM3      0.047950
     65 H342        7.4110   -7.6550   -5.5100 hc        1 CM3      0.047950
     66 H351        5.7020   -8.4340   -3.9970 h1        1 CM3      0.027950
     67 H352        5.1990   -6.8030   -4.6360 h1        1 CM3      0.027950
@<TRIPOS>BOND
     1    1    2 1   
     2    1   12 1   
     3    1   14 1   
     4    1   36 1   
     5    2    3 1   
     6    2   21 1   
     7    2   37 1   
     8    3    4 1   
     9    4    5 ar  
    10    4   11 ar  
    11    5    6 ar  
    12    5   38 1   
    13    6    7 ar  
    14    6   39 1   
    15    7    8 1   
    16    7    9 ar  
    17    8   40 1   
    18    9   10 1   
    19    9   11 ar  
    20   11   12 1   
    21   12   13 1   
    22   12   41 1   
    23   13   42 1   
    24   13   43 1   
    25   13   44 1   
    26   14   15 ar  
    27   14   20 ar  
    28   15   16 ar  
    29   15   45 1   
    30   16   17 ar  
    31   16   46 1   
    32   17   18 1   
    33   17   19 ar  
    34   18   47 1   
    35   19   20 ar  
    36   19   48 1   
    37   20   49 1   
    38   21   22 ar  
    39   21   26 ar  
    40   22   23 ar  
    41   22   50 1   
    42   23   24 ar  
    43   23   51 1   
    44   24   25 ar  
    45   24   27 1   
    46   25   26 ar  
    47   25   52 1   
    48   26   53 1   
    49   27   28 1   
    50   28   29 1   
    51   28   54 1   
    52   28   55 1   
    53   29   30 1   
    54   29   56 1   
    55   29   57 1   
    56   30   31 1   
    57   30   35 1   
    58   31   32 1   
    59   31   58 1   
    60   31   59 1   
    61   32   33 1   
    62   32   60 1   
    63   32   61 1   
    64   33   34 1   
    65   33   62 1   
    66   33   63 1   
    67   34   35 1   
    68   34   64 1   
    69   34   65 1   
    70   35   66 1   
    71   35   67 1   
@<TRIPOS>SUBSTRUCTURE
     1 CM3         1 TEMP              0 ****  ****    0 ROOT
