@<TRIPOS>MOLECULE
CM3
   67    71     1     0     0
SMALL
bcc


@<TRIPOS>ATOM
      1 C1         -0.0930    0.1150    0.0590 c3        1 CM3     -0.030400
      2 C2          1.4400    0.0510   -0.0010 c3        1 CM3      0.202400
      3 O3          2.0570    0.3210    1.2730 os        1 CM3     -0.318900
      4 C4          1.6020    1.4710    1.8920 ca        1 CM3      0.109100
      5 C5          2.4490    1.9860    2.8900 ca        1 CM3     -0.131000
      6 C6          2.0560    3.0960    3.6220 ca        1 CM3     -0.113000
      7 C7          0.8160    3.6960    3.3580 ca        1 CM3      0.069100
      8 O8          0.4780    4.7910    4.1190 oh        1 CM3     -0.491100
      9 C9         -0.0300    3.1800    2.3520 ca        1 CM3      0.064900
     10 F10        -1.2280    3.7820    2.1360 f         1 CM3     -0.143900
     11 C11         0.3620    2.0550    1.5960 ca        1 CM3     -0.128300
     12 C12        -0.5330    1.5090    0.5320 c3        1 CM3     -0.014400
     13 C13        -0.6100    2.4650   -0.6460 c3        1 CM3     -0.093100
     14 C14        -0.7390   -0.9690    0.8600 ca        1 CM3     -0.111300
     15 C15        -0.5200   -1.1040    2.2350 ca        1 CM3     -0.081500
     16 C16        -1.1510   -2.1080    2.9650 ca        1 CM3     -0.186500
     17 C17        -2.0170   -2.9920    2.3080 ca        1 CM3      0.125100
     18 O18        -2.6790   -4.0080    2.9600 oh        1 CM3     -0.498100
     19 C19        -2.2490   -2.8750    0.9280 ca        1 CM3     -0.186500
     20 C20        -1.6080   -1.8650    0.2190 ca        1 CM3     -0.081500
     21 C21         1.9580   -1.2700   -0.4790 ca        1 CM3     -0.125300
     22 C22         2.4740   -2.2250    0.3970 ca        1 CM3     -0.075500
     23 C23         2.9570   -3.4430   -0.0830 ca        1 CM3     -0.184000
     24 C24         2.9180   -3.7030   -1.4570 ca        1 CM3      0.138100
     25 C25         2.4030   -2.7440   -2.3520 ca        1 CM3     -0.184000
     26 C26         1.9300   -1.5380   -1.8570 ca        1 CM3     -0.075500
     27 O27         3.3450   -4.8730   -2.0500 os        1 CM3     -0.324900
     28 C28         3.9790   -5.8200   -1.1810 c3        1 CM3      0.127400
     29 C29         4.4340   -6.9710   -2.0910 c3        1 CM3      0.172800
     30 N30         5.7800   -6.7900   -2.6080 n3        1 CM3     -0.736600
     31 C31         6.8030   -7.2380   -1.6750 c3        1 CM3      0.176300
     32 C32         8.2250   -7.0170   -2.1870 c3        1 CM3     -0.077900
     33 C33         8.4090   -7.6330   -3.5570 c3        1 CM3     -0.078400
     34 C34         7.3530   -7.1200   -4.5110 c3        1 CM3     -0.077900
     35 C35         5.9480   -7.3320   -3.9490 c3        1 CM3      0.176300
     36 H1         -0.4370   -0.0030   -1.0130 hc        1 CM3      0.066700
     37 H2          1.7860    0.8620   -0.7100 h1        1 CM3      0.055700
     38 H5          3.4150    1.4950    3.0810 ha        1 CM3      0.157000
     39 H6          2.7000    3.5170    4.4080 ha        1 CM3      0.159000
     40 HO8        -0.3980    5.0950    3.8330 ho        1 CM3      0.428000
     41 H12        -1.5690    1.4190    0.9730 hc        1 CM3      0.079700
     42 H131       -0.9240    3.4780   -0.2950 hc        1 CM3      0.042033
     43 H132       -1.3590    2.0980   -1.3890 hc        1 CM3      0.042033
     44 H133        0.3810    2.5560   -1.1530 hc        1 CM3      0.042033
     45 H15         0.1680   -0.4110    2.7450 ha        1 CM3      0.139000
     46 H16        -0.9710   -2.2040    4.0440 ha        1 CM3      0.142000
     47 H18        -2.4320   -3.9710    3.8950 ho        1 CM3      0.418000
     48 H19        -2.9290   -3.5790    0.4290 ha        1 CM3      0.142000
     49 H20        -1.7880   -1.7760   -0.8630 ha        1 CM3      0.139000
     50 H22         2.5020   -2.0140    1.4780 ha        1 CM3      0.139000
     51 H23         3.3570   -4.1810    0.6250 ha        1 CM3      0.143000
     52 H25         2.3860   -2.9650   -3.4290 ha        1 CM3      0.143000
     53 H26         1.5320   -0.7830   -2.5520 ha        1 CM3      0.139000
     54 H281        3.2230   -6.2000   -0.4450 h1        1 CM3      0.044700
     55 H282        4.8290   -5.3330   -0.6390 h1        1 CM3      0.044700
     56 H291        4.3400   -7.9250   -1.4930 h1        1 CM3      0.047700
     57 H292        3.7070   -7.0330   -2.9520 h1        1 CM3      0.047700
     58 H311        6.6820   -8.3350   -1.4250 h1        1 CM3      0.027700
     59 H312        6.6660   -6.6570   -0.7200 h1        1 CM3      0.027700
     60 H321        8.4430   -5.9180   -2.2350 hc        1 CM3      0.047950
     61 H322        8.9390   -7.4770   -1.4570 hc        1 CM3      0.047950
     62 H331        8.3380   -8.7500   -3.4810 hc        1 CM3      0.040200
     63 H332        9.4290   -7.3860   -3.9510 hc        1 CM3      0.040200
     64 H341        7.4240   -7.6560   -5.4920 hc        1 CM3      0.047950
     65 H342        7.5190   -6.0280   -4.7050 hc        1 CM3      0.047950
     66 H351        5.2100   -6.8090   -4.6200 h1        1 CM3      0.027700
     67 H352        5.7160   -8.4380   -3.9780 h1        1 CM3      0.027700
@<TRIPOS>BOND
     1    1    2 1   
     2    1   12 1   
     3    1   14 1   
     4    1   36 1   
     5    2    3 1   
     6    2   21 1   
     7    2   37 1   
     8    3    4 1   
     9    4    5 ar  
    10    4   11 ar  
    11    5    6 ar  
    12    5   38 1   
    13    6    7 ar  
    14    6   39 1   
    15    7    8 1   
    16    7    9 ar  
    17    8   40 1   
    18    9   10 1   
    19    9   11 ar  
    20   11   12 1   
    21   12   13 1   
    22   12   41 1   
    23   13   42 1   
    24   13   43 1   
    25   13   44 1   
    26   14   15 ar  
    27   14   20 ar  
    28   15   16 ar  
    29   15   45 1   
    30   16   17 ar  
    31   16   46 1   
    32   17   18 1   
    33   17   19 ar  
    34   18   47 1   
    35   19   20 ar  
    36   19   48 1   
    37   20   49 1   
    38   21   22 ar  
    39   21   26 ar  
    40   22   23 ar  
    41   22   50 1   
    42   23   24 ar  
    43   23   51 1   
    44   24   25 ar  
    45   24   27 1   
    46   25   26 ar  
    47   25   52 1   
    48   26   53 1   
    49   27   28 1   
    50   28   29 1   
    51   28   54 1   
    52   28   55 1   
    53   29   30 1   
    54   29   56 1   
    55   29   57 1   
    56   30   31 1   
    57   30   35 1   
    58   31   32 1   
    59   31   58 1   
    60   31   59 1   
    61   32   33 1   
    62   32   60 1   
    63   32   61 1   
    64   33   34 1   
    65   33   62 1   
    66   33   63 1   
    67   34   35 1   
    68   34   64 1   
    69   34   65 1   
    70   35   66 1   
    71   35   67 1   
@<TRIPOS>SUBSTRUCTURE
     1 CM3         1 TEMP              0 ****  ****    0 ROOT
