@<TRIPOS>MOLECULE
CM4
   64    68     1     0     0
SMALL
bcc


@<TRIPOS>ATOM
      1 C1         -0.0590    0.1400    0.1140 c3        1 CM4     -0.031400
      2 C2          1.4720    0.0530    0.0110 c3        1 CM4      0.202400
      3 O3          2.1200    0.2400    1.2840 os        1 CM4     -0.321900
      4 C4          1.7180    1.3870    1.9480 ca        1 CM4      0.085100
      5 C5          2.6080    1.8630    2.9280 ca        1 CM4     -0.118000
      6 C6          2.2640    2.9720    3.6850 ca        1 CM4     -0.131000
      7 C7          1.0300    3.6060    3.4530 ca        1 CM4      0.098100
      8 O8          0.7520    4.7040    4.2390 oh        1 CM4     -0.498100
      9 C9          0.1480    3.1360    2.4750 ca        1 CM4     -0.184000
     10 C10         0.4870    2.0150    1.7090 ca        1 CM4     -0.097300
     11 C11        -0.4660    1.5120    0.6740 c3        1 CM4     -0.017400
     12 C12        -0.6100    2.5190   -0.4540 c3        1 CM4     -0.090100
     13 C13        -0.6960   -0.9750    0.8790 ca        1 CM4     -0.111300
     14 C14        -1.5670   -1.8530    0.2150 ca        1 CM4     -0.081500
     15 C15        -2.1970   -2.8890    0.8950 ca        1 CM4     -0.186500
     16 C16        -1.9530   -3.0520    2.2680 ca        1 CM4      0.124100
     17 O17        -2.6060   -4.0920    2.8900 oh        1 CM4     -0.499100
     18 C18        -1.0850   -2.1870    2.9480 ca        1 CM4     -0.186500
     19 C19        -0.4650   -1.1560    2.2470 ca        1 CM4     -0.081500
     20 C20         1.9520   -1.2470   -0.5540 ca        1 CM4     -0.121300
     21 C21         2.4910   -2.2510    0.2510 ca        1 CM4     -0.076000
     22 C22         2.9390   -3.4490   -0.3080 ca        1 CM4     -0.183500
     23 C23         2.8410   -3.6380   -1.6900 ca        1 CM4      0.133100
     24 C24         2.3020   -2.6300   -2.5150 ca        1 CM4     -0.183500
     25 C25         1.8670   -1.4450   -1.9410 ca        1 CM4     -0.076000
     26 O26         3.2460   -4.7750   -2.3600 os        1 CM4     -0.338900
     27 C27         3.7640   -5.8330   -1.5430 c3        1 CM4      0.125400
     28 C28         4.0760   -6.9900   -2.5020 c3        1 CM4      0.163800
     29 N29         5.4430   -6.9850   -2.9960 n3        1 CM4     -0.722600
     30 C30         5.7880   -5.8290   -3.8270 c3        1 CM4      0.152800
     31 C31         6.2090   -6.3030   -5.2280 c3        1 CM4     -0.096400
     32 C32         6.2360   -7.8240   -5.1650 c3        1 CM4     -0.096400
     33 C33         5.7850   -8.1990   -3.7440 c3        1 CM4      0.152800
     34 H1         -0.4330    0.0800   -0.9520 hc        1 CM4      0.063700
     35 H2          1.8140    0.8970   -0.6610 h1        1 CM4      0.053700
     36 H5          3.5650    1.3440    3.0850 ha        1 CM4      0.153000
     37 H6          2.9380    3.3650    4.4590 ha        1 CM4      0.153000
     38 HO8        -0.1200    5.0370    3.9840 ho        1 CM4      0.417000
     39 H9         -0.8150    3.6400    2.3080 ha        1 CM4      0.136000
     40 H11        -1.4750    1.3960    1.1680 hc        1 CM4      0.071700
     41 H121        0.3470    2.6200   -1.0200 hc        1 CM4      0.039033
     42 H122       -1.4110    2.1930   -1.1610 hc        1 CM4      0.039033
     43 H123       -0.8840    3.5210   -0.0430 hc        1 CM4      0.039033
     44 H14        -1.7560   -1.7280   -0.8620 ha        1 CM4      0.140000
     45 H15        -2.8780   -3.5790    0.3780 ha        1 CM4      0.141500
     46 H17        -2.3450   -4.0910    3.8230 ho        1 CM4      0.418000
     47 H18        -0.8960   -2.3200    4.0220 ha        1 CM4      0.141500
     48 H19         0.2250   -0.4760    2.7740 ha        1 CM4      0.140000
     49 H21         2.5660   -2.0950    1.3390 ha        1 CM4      0.140500
     50 H22         3.3610   -4.2250    0.3450 ha        1 CM4      0.143500
     51 H24         2.2370   -2.7960   -3.5990 ha        1 CM4      0.143500
     52 H25         1.4500   -0.6520   -2.5810 ha        1 CM4      0.140500
     53 H271        4.6710   -5.4750   -0.9920 h1        1 CM4      0.051200
     54 H272        2.9750   -6.1560   -0.8150 h1        1 CM4      0.051200
     55 H281        3.9350   -7.9450   -1.9210 h1        1 CM4      0.046200
     56 H282        3.3120   -6.9700   -3.3340 h1        1 CM4      0.046200
     57 H301        6.6500   -5.3140   -3.3210 h1        1 CM4      0.050200
     58 H302        4.9400   -5.0940   -3.8960 h1        1 CM4      0.050200
     59 H311        7.2120   -5.8910   -5.4930 hc        1 CM4      0.046450
     60 H312        5.4800   -5.9470   -5.9970 hc        1 CM4      0.046450
     61 H321        7.2620   -8.2170   -5.3630 hc        1 CM4      0.046450
     62 H322        5.5480   -8.2700   -5.9250 hc        1 CM4      0.046450
     63 H331        4.9310   -8.9280   -3.7880 h1        1 CM4      0.050200
     64 H332        6.6280   -8.6930   -3.1880 h1        1 CM4      0.050200
@<TRIPOS>BOND
     1    1    2 1   
     2    1   11 1   
     3    1   13 1   
     4    1   34 1   
     5    2    3 1   
     6    2   20 1   
     7    2   35 1   
     8    3    4 1   
     9    4    5 ar  
    10    4   10 ar  
    11    5    6 ar  
    12    5   36 1   
    13    6    7 ar  
    14    6   37 1   
    15    7    8 1   
    16    7    9 ar  
    17    8   38 1   
    18    9   10 ar  
    19    9   39 1   
    20   10   11 1   
    21   11   12 1   
    22   11   40 1   
    23   12   41 1   
    24   12   42 1   
    25   12   43 1   
    26   13   14 ar  
    27   13   19 ar  
    28   14   15 ar  
    29   14   44 1   
    30   15   16 ar  
    31   15   45 1   
    32   16   17 1   
    33   16   18 ar  
    34   17   46 1   
    35   18   19 ar  
    36   18   47 1   
    37   19   48 1   
    38   20   21 ar  
    39   20   25 ar  
    40   21   22 ar  
    41   21   49 1   
    42   22   23 ar  
    43   22   50 1   
    44   23   24 ar  
    45   23   26 1   
    46   24   25 ar  
    47   24   51 1   
    48   25   52 1   
    49   26   27 1   
    50   27   28 1   
    51   27   53 1   
    52   27   54 1   
    53   28   29 1   
    54   28   55 1   
    55   28   56 1   
    56   29   30 1   
    57   29   33 1   
    58   30   31 1   
    59   30   57 1   
    60   30   58 1   
    61   31   32 1   
    62   31   59 1   
    63   31   60 1   
    64   32   33 1   
    65   32   61 1   
    66   32   62 1   
    67   33   63 1   
    68   33   64 1   
@<TRIPOS>SUBSTRUCTURE
     1 CM4         1 TEMP              0 ****  ****    0 ROOT
