@<TRIPOS>MOLECULE
CM4
   64    62     1     0     0
SMALL
bcc


@<TRIPOS>ATOM
      1 C1         -2.5940    1.9850    0.7880 c3        1 CM4     -0.078000
      2 C2         -1.0890    2.1170    0.7190 c3        1 CM4      0.084000
      3 O3         -0.4160    2.1420    1.9110 os        1 CM4     -0.205000
      4 C4         -1.0960    2.8930    3.1080 c2        1 CM4      0.040000
      5 C5         -0.3140    3.4380    4.1010 c1        1 CM4     -0.114000
      6 C6         -0.8410    4.4440    4.9450 c1        1 CM4     -0.187000
      7 C7         -2.2030    4.9030    4.7670 c1        1 CM4      0.052000
      8 O8         -2.7050    5.9490    5.5730 o         1 CM4     -0.253000
      9 C9         -3.0140    4.3450    3.7460 c2        1 CM4     -0.128000
     10 C10        -2.5080    3.3680    2.9230 c2        1 CM4     -0.093000
     11 C11        -3.2710    2.9080    1.6100 c3        1 CM4     -0.064000
     12 C12        -3.5810    4.2010    0.7460 c3        1 CM4     -0.209000
     13 C13        -2.9400    0.4930    1.3260 c2        1 CM4     -0.104000
     14 C14        -2.5010    0.0920    2.5760 c2        1 CM4     -0.081000
     15 C15        -2.9290   -1.1100    3.1060 c1        1 CM4     -0.158000
     16 C16        -3.7990   -1.9140    2.3870 c1        1 CM4      0.079000
     17 O17        -4.1590   -3.1830    2.8850 oh        1 CM4     -0.252000
     18 C18        -4.2370   -1.5140    1.1390 c1        1 CM4     -0.215000
     19 C19        -3.8100   -0.3120    0.6080 c1        1 CM4     -0.082000
     20 C20        -0.5230    0.8820   -0.1410 c2        1 CM4     -0.113000
     21 C21        -0.6870    0.8700   -1.5220 c2        1 CM4     -0.096000
     22 C22        -0.0430   -0.0960   -2.2930 c1        1 CM4     -0.161000
     23 C23         0.7640   -1.0490   -1.6830 c1        1 CM4      0.089000
     24 C24         0.9290   -1.0380   -0.3030 c1        1 CM4     -0.206000
     25 C25         0.2850   -0.0720    0.4690 c1        1 CM4     -0.057000
     26 O26         1.5140   -1.9720   -2.4860 os        1 CM4     -0.219000
     27 C27         2.9150   -1.9730   -2.2120 c3        1 CM4     -0.023000
     28 C28         3.6960   -2.1890   -3.5260 c3        1 CM4     -0.074000
     29 N29         3.9370   -3.6060   -3.7180 n3        1 CM4     -0.251000
     30 C30         4.3500   -3.8640   -5.1910 c3        1 CM4     -0.078500
     31 C31         5.6540   -4.1090   -5.1490 c3        1 CM4     -0.172500
     32 C32         5.9480   -4.7010   -3.7030 c3        1 CM4     -0.172500
     33 C33         5.1550   -4.0450   -2.8650 c3        1 CM4     -0.078500
     34 H1         -2.9460    2.0720   -0.1160 hc        1 CM4      0.103000
     35 H2         -0.8810    2.9440    0.2380 h1        1 CM4      0.093000
     36 H5          0.6060    3.1290    4.2230 ha        1 CM4      0.151000
     37 H6         -0.2770    4.8460    5.6340 ha        1 CM4      0.136000
     38 HO8        -2.6960    5.6970    6.4270 ho        1 CM4      0.217000
     39 H9         -3.9330    4.6560    3.6270 ha        1 CM4      0.152000
     40 H11        -4.1230    2.5080    1.8780 hc        1 CM4      0.114000
     41 H121       -4.2410    4.7640    1.2190 hc        1 CM4      0.079000
     42 H122       -3.9420    3.9340   -0.1220 hc        1 CM4      0.079000
     43 H123       -2.7560    4.7090    0.6120 hc        1 CM4      0.079000
     44 H14        -1.8870    0.6600    3.0840 ha        1 CM4      0.148000
     45 H15        -2.6190   -1.3940    3.9900 ha        1 CM4      0.150000
     46 H17        -4.9410   -3.1260    3.3040 ho        1 CM4      0.217000
     47 H18        -4.8520   -2.0820    0.6310 ha        1 CM4      0.133000
     48 H19        -4.1200   -0.0300   -0.2740 ha        1 CM4      0.131000
     49 H21        -1.2530    1.5380   -1.9510 ha        1 CM4      0.130000
     50 H22        -0.1590   -0.1040   -3.2620 ha        1 CM4      0.148000
     51 H24         1.4990   -1.7100    0.1280 ha        1 CM4      0.141000
     52 H25         0.4020   -0.0650    1.4410 ha        1 CM4      0.152000
     53 H271        3.1240   -2.6970   -1.5850 h1        1 CM4      0.087000
     54 H272        3.1710   -1.1130   -1.8160 h1        1 CM4      0.087000
     55 H281        3.1750   -1.8430   -4.2760 h1        1 CM4      0.086500
     56 H282        4.5550   -1.7140   -3.4770 h1        1 CM4      0.086500
     57 H301        3.8700   -4.6420   -5.5480 h1        1 CM4      0.083750
     58 H302        4.1700   -3.0700   -5.7400 h1        1 CM4      0.083750
     59 H311        5.8970   -4.7660   -5.8400 hc        1 CM4      0.087250
     60 H312        6.1590   -3.2750   -5.2820 hc        1 CM4      0.087250
     61 H321        6.8870   -4.5530   -3.4630 hc        1 CM4      0.087250
     62 H322        5.7420   -5.6580   -3.6830 hc        1 CM4      0.087250
     63 H331        4.8660   -4.6350   -2.1400 h1        1 CM4      0.083750
     64 H332        5.6170   -3.2620   -2.5030 h1        1 CM4      0.083750
@<TRIPOS>BOND
     1    1    2 1   
     2    1   11 1   
     3    1   13 1   
     4    1   34 1   
     5    2    3 1   
     6    2   20 1   
     7    2   35 1   
     8    3    4 1   
     9    4    5 1   
    10    4   10 1   
    11    5   36 1   
    12    6    7 1   
    13    6   37 1   
    14    7    9 1   
    15    8   38 1   
    16    9   10 1   
    17    9   39 1   
    18   10   11 1   
    19   11   12 1   
    20   11   40 1   
    21   12   41 1   
    22   12   42 1   
    23   12   43 1   
    24   13   14 1   
    25   13   19 1   
    26   14   15 1   
    27   14   44 1   
    28   15   45 1   
    29   16   17 1   
    30   16   18 1   
    31   17   46 1   
    32   18   47 1   
    33   19   48 1   
    34   20   21 1   
    35   20   25 1   
    36   21   22 1   
    37   21   49 1   
    38   22   50 1   
    39   23   24 1   
    40   23   26 1   
    41   24   51 1   
    42   25   52 1   
    43   26   27 1   
    44   27   28 1   
    45   27   53 1   
    46   27   54 1   
    47   28   29 1   
    48   28   55 1   
    49   28   56 1   
    50   29   30 1   
    51   29   33 1   
    52   30   31 1   
    53   30   57 1   
    54   30   58 1   
    55   31   32 1   
    56   31   59 1   
    57   31   60 1   
    58   32   33 1   
    59   32   61 1   
    60   32   62 1   
    61   33   63 1   
    62   33   64 1   
@<TRIPOS>SUBSTRUCTURE
     1 CM4         1 TEMP              0 ****  ****    0 ROOT
