@<TRIPOS>MOLECULE
CM4
   64    68     1     0     0
SMALL
bcc


@<TRIPOS>ATOM
      1 C1         -0.0510    0.1070    0.1460 c3        1 CM4     -0.031400
      2 C2          1.4780    0.0400    0.0110 c3        1 CM4      0.202400
      3 O3          2.1510    0.2440    1.2680 os        1 CM4     -0.321900
      4 C4          1.7480    1.3900    1.9330 ca        1 CM4      0.085100
      5 C5          2.6520    1.8840    2.8910 ca        1 CM4     -0.118000
      6 C6          2.3110    2.9940    3.6480 ca        1 CM4     -0.131000
      7 C7          1.0640    3.6100    3.4390 ca        1 CM4      0.098100
      8 O8          0.7880    4.7090    4.2240 oh        1 CM4     -0.498100
      9 C9          0.1670    3.1220    2.4840 ca        1 CM4     -0.184000
     10 C10         0.5040    2.0000    1.7170 ca        1 CM4     -0.097300
     11 C11        -0.4640    1.4780    0.7070 c3        1 CM4     -0.017400
     12 C12        -0.6460    2.4760   -0.4240 c3        1 CM4     -0.090100
     13 C13        -0.6580   -1.0110    0.9320 ca        1 CM4     -0.111300
     14 C14        -1.5330   -1.9020    0.2930 ca        1 CM4     -0.081500
     15 C15        -2.1350   -2.9420    0.9920 ca        1 CM4     -0.186500
     16 C16        -1.8580   -3.0940    2.3600 ca        1 CM4      0.124100
     17 O17        -2.4840   -4.1380    3.0020 oh        1 CM4     -0.499100
     18 C18        -0.9860   -2.2150    3.0150 ca        1 CM4     -0.186500
     19 C19        -0.3930   -1.1810    2.2950 ca        1 CM4     -0.081500
     20 C20         1.9630   -1.2580   -0.5560 ca        1 CM4     -0.121300
     21 C21         2.5340   -2.2490    0.2440 ca        1 CM4     -0.076000
     22 C22         2.9850   -3.4440   -0.3170 ca        1 CM4     -0.183500
     23 C23         2.8590   -3.6440   -1.6960 ca        1 CM4      0.133100
     24 C24         2.2880   -2.6500   -2.5150 ca        1 CM4     -0.183500
     25 C25         1.8500   -1.4660   -1.9390 ca        1 CM4     -0.076000
     26 O26         3.2650   -4.7800   -2.3660 os        1 CM4     -0.338900
     27 C27         3.8160   -5.8260   -1.5540 c3        1 CM4      0.125400
     28 C28         4.1230   -6.9840   -2.5120 c3        1 CM4      0.163800
     29 N29         5.4780   -6.9630   -3.0370 n3        1 CM4     -0.722600
     30 C30         5.7860   -5.8090   -3.8850 c3        1 CM4      0.152800
     31 C31         6.1820   -6.2880   -5.2910 c3        1 CM4     -0.096400
     32 C32         6.2330   -7.8080   -5.2180 c3        1 CM4     -0.096400
     33 C33         5.8210   -8.1780   -3.7830 c3        1 CM4      0.152800
     34 H1         -0.4470    0.0360   -0.9110 hc        1 CM4      0.063700
     35 H2          1.7940    0.8830   -0.6740 h1        1 CM4      0.053700
     36 H5          3.6190    1.3790    3.0300 ha        1 CM4      0.153000
     37 H6          2.9960    3.4000    4.4050 ha        1 CM4      0.153000
     38 HO8        -0.0940    5.0290    3.9860 ho        1 CM4      0.417000
     39 H9         -0.8060    3.6120    2.3340 ha        1 CM4      0.136000
     40 H11        -1.4610    1.3520    1.2220 hc        1 CM4      0.071700
     41 H121        0.2970    2.5860   -1.0120 hc        1 CM4      0.039033
     42 H122       -0.9240    3.4760   -0.0140 hc        1 CM4      0.039033
     43 H123       -1.4570    2.1350   -1.1120 hc        1 CM4      0.039033
     44 H14        -1.7480   -1.7850   -0.7810 ha        1 CM4      0.140000
     45 H15        -2.8200   -3.6420    0.4940 ha        1 CM4      0.141500
     46 H17        -2.2010   -4.1290    3.9280 ho        1 CM4      0.418000
     47 H18        -0.7700   -2.3400    4.0850 ha        1 CM4      0.141500
     48 H19         0.3000   -0.4900    2.8030 ha        1 CM4      0.140000
     49 H21         2.6300   -2.0830    1.3290 ha        1 CM4      0.140500
     50 H22         3.4320   -4.2100    0.3320 ha        1 CM4      0.143500
     51 H24         2.2010   -2.8250   -3.5960 ha        1 CM4      0.143500
     52 H25         1.4080   -0.6840   -2.5750 ha        1 CM4      0.140500
     53 H271        3.0480   -6.1540   -0.8060 h1        1 CM4      0.051200
     54 H272        4.7300   -5.4510   -1.0260 h1        1 CM4      0.051200
     55 H281        3.3410   -6.9820   -3.3260 h1        1 CM4      0.046200
     56 H282        4.0100   -7.9370   -1.9210 h1        1 CM4      0.046200
     57 H301        4.9260   -5.0870   -3.9400 h1        1 CM4      0.050200
     58 H302        6.6530   -5.2770   -3.4030 h1        1 CM4      0.050200
     59 H311        7.1730   -5.8630   -5.5830 hc        1 CM4      0.046450
     60 H312        5.4310   -5.9480   -6.0460 hc        1 CM4      0.046450
     61 H321        5.5350   -8.2700   -5.9570 hc        1 CM4      0.046450
     62 H322        7.2600   -8.1880   -5.4360 hc        1 CM4      0.046450
     63 H331        4.9780   -8.9200   -3.8010 h1        1 CM4      0.050200
     64 H332        6.6850   -8.6540   -3.2440 h1        1 CM4      0.050200
@<TRIPOS>BOND
     1    1    2 1   
     2    1   11 1   
     3    1   13 1   
     4    1   34 1   
     5    2    3 1   
     6    2   20 1   
     7    2   35 1   
     8    3    4 1   
     9    4    5 ar  
    10    4   10 ar  
    11    5    6 ar  
    12    5   36 1   
    13    6    7 ar  
    14    6   37 1   
    15    7    8 1   
    16    7    9 ar  
    17    8   38 1   
    18    9   10 ar  
    19    9   39 1   
    20   10   11 1   
    21   11   12 1   
    22   11   40 1   
    23   12   41 1   
    24   12   42 1   
    25   12   43 1   
    26   13   14 ar  
    27   13   19 ar  
    28   14   15 ar  
    29   14   44 1   
    30   15   16 ar  
    31   15   45 1   
    32   16   17 1   
    33   16   18 ar  
    34   17   46 1   
    35   18   19 ar  
    36   18   47 1   
    37   19   48 1   
    38   20   21 ar  
    39   20   25 ar  
    40   21   22 ar  
    41   21   49 1   
    42   22   23 ar  
    43   22   50 1   
    44   23   24 ar  
    45   23   26 1   
    46   24   25 ar  
    47   24   51 1   
    48   25   52 1   
    49   26   27 1   
    50   27   28 1   
    51   27   53 1   
    52   27   54 1   
    53   28   29 1   
    54   28   55 1   
    55   28   56 1   
    56   29   30 1   
    57   29   33 1   
    58   30   31 1   
    59   30   57 1   
    60   30   58 1   
    61   31   32 1   
    62   31   59 1   
    63   31   60 1   
    64   32   33 1   
    65   32   61 1   
    66   32   62 1   
    67   33   63 1   
    68   33   64 1   
@<TRIPOS>SUBSTRUCTURE
     1 CM4         1 TEMP              0 ****  ****    0 ROOT
