@<TRIPOS>MOLECULE
CM4
   64    68     1     0     0
SMALL
bcc


@<TRIPOS>ATOM
      1 C1         -0.0590    0.1380    0.1170 c3        1 CM4     -0.031400
      2 C2          1.4720    0.0500    0.0180 c3        1 CM4      0.202400
      3 O3          2.1170    0.2340    1.2930 os        1 CM4     -0.321900
      4 C4          1.7150    1.3800    1.9580 ca        1 CM4      0.085100
      5 C5          2.6030    1.8520    2.9410 ca        1 CM4     -0.118000
      6 C6          2.2590    2.9610    3.7000 ca        1 CM4     -0.131000
      7 C7          1.0260    3.5970    3.4660 ca        1 CM4      0.098100
      8 O8          0.7470    4.6930    4.2530 oh        1 CM4     -0.498100
      9 C9          0.1460    3.1300    2.4850 ca        1 CM4     -0.184000
     10 C10         0.4860    2.0100    1.7170 ca        1 CM4     -0.097300
     11 C11        -0.4660    1.5100    0.6790 c3        1 CM4     -0.017400
     12 C12        -0.6050    2.5200   -0.4470 c3        1 CM4     -0.090100
     13 C13        -0.7000   -0.9770    0.8780 ca        1 CM4     -0.111300
     14 C14        -1.5700   -1.8520    0.2100 ca        1 CM4     -0.081500
     15 C15        -2.2040   -2.8880    0.8850 ca        1 CM4     -0.186500
     16 C16        -1.9630   -3.0550    2.2590 ca        1 CM4      0.124100
     17 O17        -2.6190   -4.0950    2.8770 oh        1 CM4     -0.499100
     18 C18        -1.0960   -2.1920    2.9430 ca        1 CM4     -0.186500
     19 C19        -0.4720   -1.1610    2.2460 ca        1 CM4     -0.081500
     20 C20         1.9520   -1.2500   -0.5490 ca        1 CM4     -0.121300
     21 C21         2.4920   -2.2550    0.2550 ca        1 CM4     -0.076000
     22 C22         2.9400   -3.4510   -0.3050 ca        1 CM4     -0.183500
     23 C23         2.8420   -3.6390   -1.6880 ca        1 CM4      0.133100
     24 C24         2.3020   -2.6310   -2.5110 ca        1 CM4     -0.183500
     25 C25         1.8670   -1.4460   -1.9350 ca        1 CM4     -0.076000
     26 O26         3.2470   -4.7750   -2.3590 os        1 CM4     -0.338900
     27 C27         3.7690   -5.8330   -1.5440 c3        1 CM4      0.125400
     28 C28         4.0820   -6.9880   -2.5040 c3        1 CM4      0.163800
     29 N29         5.4470   -6.9780   -3.0020 n3        1 CM4     -0.722600
     30 C30         5.7850   -5.8210   -3.8360 c3        1 CM4      0.152800
     31 C31         6.2030   -6.2960   -5.2370 c3        1 CM4     -0.096400
     32 C32         6.2370   -7.8160   -5.1720 c3        1 CM4     -0.096400
     33 C33         5.7930   -8.1920   -3.7490 c3        1 CM4      0.152800
     34 H1         -0.4300    0.0810   -0.9500 hc        1 CM4      0.063700
     35 H2          1.8170    0.8950   -0.6520 h1        1 CM4      0.053700
     36 H5          3.5590    1.3320    3.0990 ha        1 CM4      0.153000
     37 H6          2.9320    3.3510    4.4770 ha        1 CM4      0.153000
     38 HO8        -0.1240    5.0290    3.9970 ho        1 CM4      0.417000
     39 H9         -0.8160    3.6350    2.3160 ha        1 CM4      0.136000
     40 H11        -1.4760    1.3940    1.1690 hc        1 CM4      0.071700
     41 H121       -0.8790    3.5210   -0.0350 hc        1 CM4      0.039033
     42 H122       -1.4050    2.1970   -1.1570 hc        1 CM4      0.039033
     43 H123        0.3530    2.6210   -1.0110 hc        1 CM4      0.039033
     44 H14        -1.7560   -1.7240   -0.8680 ha        1 CM4      0.140000
     45 H15        -2.8850   -3.5760    0.3650 ha        1 CM4      0.141500
     46 H17        -2.3600   -4.0970    3.8100 ho        1 CM4      0.418000
     47 H18        -0.9100   -2.3290    4.0170 ha        1 CM4      0.141500
     48 H19         0.2170   -0.4840    2.7760 ha        1 CM4      0.140000
     49 H21         2.5670   -2.0990    1.3440 ha        1 CM4      0.140500
     50 H22         3.3620   -4.2280    0.3470 ha        1 CM4      0.143500
     51 H24         2.2360   -2.7960   -3.5950 ha        1 CM4      0.143500
     52 H25         1.4490   -0.6530   -2.5750 ha        1 CM4      0.140500
     53 H271        4.6760   -5.4730   -0.9930 h1        1 CM4      0.051200
     54 H272        2.9810   -6.1580   -0.8140 h1        1 CM4      0.051200
     55 H281        3.3160   -6.9710   -3.3330 h1        1 CM4      0.046200
     56 H282        3.9470   -7.9440   -1.9220 h1        1 CM4      0.046200
     57 H301        6.6470   -5.3020   -3.3330 h1        1 CM4      0.050450
     58 H302        4.9330   -5.0900   -3.9030 h1        1 CM4      0.050450
     59 H311        7.2040   -5.8800   -5.5060 hc        1 CM4      0.046450
     60 H312        5.4710   -5.9440   -6.0040 hc        1 CM4      0.046450
     61 H321        5.5500   -8.2670   -5.9290 hc        1 CM4      0.046450
     62 H322        7.2650   -8.2060   -5.3720 hc        1 CM4      0.046450
     63 H331        4.9420   -8.9250   -3.7890 h1        1 CM4      0.050450
     64 H332        6.6410   -8.6810   -3.1950 h1        1 CM4      0.050450
@<TRIPOS>BOND
     1    1    2 1   
     2    1   11 1   
     3    1   13 1   
     4    1   34 1   
     5    2    3 1   
     6    2   20 1   
     7    2   35 1   
     8    3    4 1   
     9    4    5 ar  
    10    4   10 ar  
    11    5    6 ar  
    12    5   36 1   
    13    6    7 ar  
    14    6   37 1   
    15    7    8 1   
    16    7    9 ar  
    17    8   38 1   
    18    9   10 ar  
    19    9   39 1   
    20   10   11 1   
    21   11   12 1   
    22   11   40 1   
    23   12   41 1   
    24   12   42 1   
    25   12   43 1   
    26   13   14 ar  
    27   13   19 ar  
    28   14   15 ar  
    29   14   44 1   
    30   15   16 ar  
    31   15   45 1   
    32   16   17 1   
    33   16   18 ar  
    34   17   46 1   
    35   18   19 ar  
    36   18   47 1   
    37   19   48 1   
    38   20   21 ar  
    39   20   25 ar  
    40   21   22 ar  
    41   21   49 1   
    42   22   23 ar  
    43   22   50 1   
    44   23   24 ar  
    45   23   26 1   
    46   24   25 ar  
    47   24   51 1   
    48   25   52 1   
    49   26   27 1   
    50   27   28 1   
    51   27   53 1   
    52   27   54 1   
    53   28   29 1   
    54   28   55 1   
    55   28   56 1   
    56   29   30 1   
    57   29   33 1   
    58   30   31 1   
    59   30   57 1   
    60   30   58 1   
    61   31   32 1   
    62   31   59 1   
    63   31   60 1   
    64   32   33 1   
    65   32   61 1   
    66   32   62 1   
    67   33   63 1   
    68   33   64 1   
@<TRIPOS>SUBSTRUCTURE
     1 CM4         1 TEMP              0 ****  ****    0 ROOT
