@<TRIPOS>MOLECULE
CM4
   64    68     1     0     0
SMALL
bcc


@<TRIPOS>ATOM
      1 C1          0.2090    1.4380    2.2730 c3        1 CM4     -0.031400
      2 C2          1.1320    0.4820    1.5000 c3        1 CM4      0.202400
      3 O3          1.1410   -0.8450    2.0580 os        1 CM4     -0.321900
      4 C4          1.4010   -0.8750    3.4170 ca        1 CM4      0.085100
      5 C5          1.8710   -2.1030    3.9170 ca        1 CM4     -0.118000
      6 C6          2.1030   -2.2460    5.2770 ca        1 CM4     -0.131000
      7 C7          1.8690   -1.1530    6.1310 ca        1 CM4      0.098100
      8 O8          2.1210   -1.3630    7.4700 oh        1 CM4     -0.498100
      9 C9          1.4060    0.0680    5.6340 ca        1 CM4     -0.184000
     10 C10         1.1670    0.2190    4.2630 ca        1 CM4     -0.097300
     11 C11         0.6610    1.5240    3.7400 c3        1 CM4     -0.017400
     12 C12         1.7120    2.6080    3.9050 c3        1 CM4     -0.090100
     13 C13        -1.2470    1.1190    2.1660 ca        1 CM4     -0.111300
     14 C14        -2.1060    2.0390    1.5460 ca        1 CM4     -0.081500
     15 C15        -3.4700    1.7920    1.4460 ca        1 CM4     -0.186500
     16 C16        -3.9890    0.6000    1.9770 ca        1 CM4      0.124100
     17 O17        -5.3460    0.4090    1.8520 oh        1 CM4     -0.499100
     18 C18        -3.1460   -0.3310    2.5990 ca        1 CM4     -0.186500
     19 C19        -1.7830   -0.0630    2.6880 ca        1 CM4     -0.081500
     20 C20         0.7770    0.3630    0.0510 ca        1 CM4     -0.121300
     21 C21         0.1020   -0.7480   -0.4570 ca        1 CM4     -0.076000
     22 C22        -0.2060   -0.8330   -1.8150 ca        1 CM4     -0.183500
     23 C23         0.1660    0.2100   -2.6690 ca        1 CM4      0.133100
     24 C24         0.8510    1.3360   -2.1690 ca        1 CM4     -0.183500
     25 C25         1.1530    1.4000   -0.8160 ca        1 CM4     -0.076000
     26 O26        -0.0830    0.2430   -4.0260 os        1 CM4     -0.338900
     27 C27        -0.8110   -0.8710   -4.5590 c3        1 CM4      0.125400
     28 C28        -1.0120   -0.5690   -6.0490 c3        1 CM4      0.163800
     29 N29         0.0320   -1.1120   -6.9010 n3        1 CM4     -0.722600
     30 C30         1.3620   -0.5410   -6.6760 c3        1 CM4      0.152800
     31 C31         1.8670    0.1250   -7.9660 c3        1 CM4     -0.096400
     32 C32         0.8290   -0.1910   -9.0350 c3        1 CM4     -0.096400
     33 C33        -0.2760   -0.9940   -8.3300 c3        1 CM4      0.152800
     34 H1          0.3720    2.4540    1.8040 hc        1 CM4      0.063700
     35 H2          2.1870    0.8850    1.5900 h1        1 CM4      0.053700
     36 H5          2.0440   -2.9370    3.2220 ha        1 CM4      0.153000
     37 H6          2.4690   -3.1940    5.6960 ha        1 CM4      0.153000
     38 HO8         1.9150   -0.5430    7.9420 ho        1 CM4      0.417000
     39 H9          1.2230    0.9120    6.3150 ha        1 CM4      0.136000
     40 H11        -0.2380    1.8150    4.3600 hc        1 CM4      0.071700
     41 H121        2.0550    2.6550    4.9660 hc        1 CM4      0.039033
     42 H122        2.5980    2.4030    3.2570 hc        1 CM4      0.039033
     43 H123        1.2870    3.6020    3.6240 hc        1 CM4      0.039033
     44 H14        -1.7000    2.9720    1.1260 ha        1 CM4      0.140000
     45 H15        -4.1460    2.5090    0.9590 ha        1 CM4      0.141500
     46 H17        -5.5640   -0.4460    2.2520 ho        1 CM4      0.418000
     47 H18        -3.5560   -1.2630    3.0110 ha        1 CM4      0.141500
     48 H19        -1.1130   -0.7950    3.1690 ha        1 CM4      0.140000
     49 H21        -0.1870   -1.5660    0.2220 ha        1 CM4      0.140500
     50 H22        -0.7370   -1.7180   -2.1930 ha        1 CM4      0.143500
     51 H24         1.1370    2.1430   -2.8560 ha        1 CM4      0.143500
     52 H25         1.6920    2.2750   -0.4220 ha        1 CM4      0.140500
     53 H271       -0.2340   -1.8160   -4.3850 h1        1 CM4      0.051200
     54 H272       -1.8100   -0.9340   -4.0520 h1        1 CM4      0.051200
     55 H281       -1.9810   -1.0580   -6.3550 h1        1 CM4      0.046200
     56 H282       -1.1330    0.5480   -6.1660 h1        1 CM4      0.046200
     57 H301        1.3650    0.1930   -5.8240 h1        1 CM4      0.050200
     58 H302        2.0370   -1.3970   -6.3970 h1        1 CM4      0.050200
     59 H311        2.8700   -0.2770   -8.2450 hc        1 CM4      0.046450
     60 H312        1.9700    1.2280   -7.8220 hc        1 CM4      0.046450
     61 H321        1.2750   -0.7920   -9.8640 hc        1 CM4      0.046450
     62 H322        0.4110    0.7450   -9.4790 hc        1 CM4      0.046450
     63 H331       -0.3150   -2.0410   -8.7390 h1        1 CM4      0.050200
     64 H332       -1.2780   -0.5180   -8.5120 h1        1 CM4      0.050200
@<TRIPOS>BOND
     1    1    2 1   
     2    1   11 1   
     3    1   13 1   
     4    1   34 1   
     5    2    3 1   
     6    2   20 1   
     7    2   35 1   
     8    3    4 1   
     9    4    5 ar  
    10    4   10 ar  
    11    5    6 ar  
    12    5   36 1   
    13    6    7 ar  
    14    6   37 1   
    15    7    8 1   
    16    7    9 ar  
    17    8   38 1   
    18    9   10 ar  
    19    9   39 1   
    20   10   11 1   
    21   11   12 1   
    22   11   40 1   
    23   12   41 1   
    24   12   42 1   
    25   12   43 1   
    26   13   14 ar  
    27   13   19 ar  
    28   14   15 ar  
    29   14   44 1   
    30   15   16 ar  
    31   15   45 1   
    32   16   17 1   
    33   16   18 ar  
    34   17   46 1   
    35   18   19 ar  
    36   18   47 1   
    37   19   48 1   
    38   20   21 ar  
    39   20   25 ar  
    40   21   22 ar  
    41   21   49 1   
    42   22   23 ar  
    43   22   50 1   
    44   23   24 ar  
    45   23   26 1   
    46   24   25 ar  
    47   24   51 1   
    48   25   52 1   
    49   26   27 1   
    50   27   28 1   
    51   27   53 1   
    52   27   54 1   
    53   28   29 1   
    54   28   55 1   
    55   28   56 1   
    56   29   30 1   
    57   29   33 1   
    58   30   31 1   
    59   30   57 1   
    60   30   58 1   
    61   31   32 1   
    62   31   59 1   
    63   31   60 1   
    64   32   33 1   
    65   32   61 1   
    66   32   62 1   
    67   33   63 1   
    68   33   64 1   
@<TRIPOS>SUBSTRUCTURE
     1 CM4         1 TEMP              0 ****  ****    0 ROOT
