@<TRIPOS>MOLECULE
CM5
   76    78     1     0     0
SMALL
bcc


@<TRIPOS>ATOM
      1 C7          0.2670   -0.4470   -0.2030 c3        1 CM5     -0.073400
      2 C8          1.7750   -0.4220   -0.0570 c3        1 CM5     -0.076400
      3 C9          2.1880   -0.0090    1.3400 c3        1 CM5     -0.076400
      4 C10         1.5440   -0.8960    2.3850 c3        1 CM5     -0.076400
      5 C11         0.0360   -0.9160    2.2380 c3        1 CM5     -0.073400
      6 C6         -0.3770   -1.3530    0.8390 c3        1 CM5     -0.063700
      7 C5         -1.8900   -1.3360    0.6780 c3        1 CM5     -0.076400
      8 C4         -2.5550   -2.5010    1.3790 c3        1 CM5     -0.078400
      9 C3         -4.0540   -2.4800    1.1680 c3        1 CM5     -0.078400
     10 C2         -4.7180   -3.6420    1.8730 c3        1 CM5     -0.084400
     11 C1         -6.2190   -3.6050    1.6490 c3        1 CM5      0.136400
     12 O12        -6.7570   -4.7340    2.3500 os        1 CM5     -0.423600
     13 C13        -8.1540   -4.8600    2.2280 c3        1 CM5      0.307900
     14 C18        -8.5490   -6.1820    2.9090 c3        1 CM5      0.086100
     15 O22        -8.1880   -7.2860    2.0980 oh        1 CM5     -0.604800
     16 C17       -10.0760   -6.2530    3.0850 c3        1 CM5      0.121100
     17 O21       -10.3930   -7.3590    3.9140 oh        1 CM5     -0.605800
     18 O14        -8.6460   -3.7490    2.9680 os        1 CM5     -0.446600
     19 C15       -10.0710   -3.7320    3.0480 c3        1 CM5      0.107100
     20 C19       -10.4240   -2.4450    3.8010 c3        1 CM5      0.140400
     21 O20        -9.8820   -1.3160    3.1540 oh        1 CM5     -0.594800
     22 C16       -10.5930   -4.9820    3.7840 c3        1 CM5      0.126100
     23 O23       -12.0160   -4.8950    3.6830 os        1 CM5     -0.431600
     24 C24       -12.7310   -5.7180    4.5860 c3        1 CM5      0.336900
     25 O25       -12.6410   -5.1070    5.8580 os        1 CM5     -0.449600
     26 C26       -13.2430   -3.8140    5.9780 c3        1 CM5      0.102100
     27 C30       -13.0900   -3.4260    7.4520 c3        1 CM5      0.140400
     28 O31       -11.7310   -3.2930    7.8060 oh        1 CM5     -0.595800
     29 C27       -14.7230   -3.8530    5.5710 c3        1 CM5      0.126100
     30 O32       -15.2100   -2.5250    5.6320 oh        1 CM5     -0.592800
     31 C28       -14.8330   -4.4090    4.1410 c3        1 CM5      0.066100
     32 O33       -16.2160   -4.4870    3.8320 oh        1 CM5     -0.607800
     33 C29       -14.1940   -5.8030    4.1060 c3        1 CM5      0.098100
     34 O34       -14.1950   -6.3310    2.7940 oh        1 CM5     -0.576800
     35 H71        -0.1390    0.5930   -0.0910 hc        1 CM5      0.039450
     36 H72        -0.0030   -0.8070   -1.2300 hc        1 CM5      0.039450
     37 H81         2.1880   -1.4410   -0.2820 hc        1 CM5      0.038700
     38 H82         2.2110    0.2900   -0.8040 hc        1 CM5      0.038700
     39 H91         1.8880    1.0570    1.5190 hc        1 CM5      0.038700
     40 H92         3.3040   -0.0660    1.4350 hc        1 CM5      0.038700
     41 H101        1.9430   -1.9400    2.2870 hc        1 CM5      0.038700
     42 H102        1.8140   -0.5280    3.4090 hc        1 CM5      0.038700
     43 H111       -0.3740    0.1060    2.4460 hc        1 CM5      0.039450
     44 H112       -0.4030   -1.6170    2.9950 hc        1 CM5      0.039450
     45 H6         -0.0070   -2.4030    0.6710 hc        1 CM5      0.047700
     46 H51        -2.2990   -0.3710    1.0780 hc        1 CM5      0.040700
     47 H52        -2.1430   -1.3750   -0.4150 hc        1 CM5      0.040700
     48 H41        -2.1350   -3.4660    0.9910 hc        1 CM5      0.042200
     49 H42        -2.3320   -2.4620    2.4780 hc        1 CM5      0.042200
     50 H31A       -4.2800   -2.5250    0.0700 hc        1 CM5      0.041200
     51 H32A       -4.4750   -1.5140    1.5540 hc        1 CM5      0.041200
     52 H21A       -4.5070   -3.6000    2.9730 hc        1 CM5      0.055200
     53 H22A       -4.3070   -4.6120    1.4920 hc        1 CM5      0.055200
     54 H11        -6.4710   -3.6930    0.5590 h1        1 CM5      0.038200
     55 H12        -6.6700   -2.6640    2.0600 h1        1 CM5      0.038200
     56 H13        -8.4970   -4.8130    1.1580 h2        1 CM5      0.055700
     57 H18        -8.0420   -6.2540    3.9120 h1        1 CM5      0.078700
     58 H22        -7.2270   -7.2520    2.0020 ho        1 CM5      0.424000
     59 H17       -10.5760   -6.3720    2.0840 h1        1 CM5      0.070700
     60 H21       -10.0430   -8.1430    3.4700 ho        1 CM5      0.425000
     61 H15       -10.5030   -3.7000    2.0090 h1        1 CM5      0.066700
     62 H191      -10.0630   -2.5060    4.8620 h1        1 CM5      0.063700
     63 H192      -11.5370   -2.2980    3.7740 h1        1 CM5      0.063700
     64 H20        -8.9220   -1.4260    3.1470 ho        1 CM5      0.412000
     65 H16       -10.2800   -4.9820    4.8620 h1        1 CM5      0.082700
     66 H24       -12.2720   -6.7380    4.7140 h2        1 CM5      0.126700
     67 H26       -12.6850   -3.0900    5.3230 h1        1 CM5      0.076700
     68 H301      -13.5450   -2.4120    7.6110 h1        1 CM5      0.062200
     69 H302      -13.5930   -4.1880    8.1040 h1        1 CM5      0.062200
     70 H31       -11.3120   -4.1480    7.6420 ho        1 CM5      0.410000
     71 H27       -15.3110   -4.5060    6.2750 h1        1 CM5      0.057700
     72 H32       -16.1080   -2.5490    5.2750 ho        1 CM5      0.422000
     73 H28       -14.3020   -3.7280    3.4200 h1        1 CM5      0.081700
     74 H33       -16.2840   -4.5140    2.8700 ho        1 CM5      0.411000
     75 H29       -14.7470   -6.4910    4.8060 h1        1 CM5      0.062700
     76 H34       -15.1130   -6.5650    2.6010 ho        1 CM5      0.404000
@<TRIPOS>BOND
     1    1    2 1   
     2    1    6 1   
     3    1   35 1   
     4    1   36 1   
     5    2    3 1   
     6    2   37 1   
     7    2   38 1   
     8    3    4 1   
     9    3   39 1   
    10    3   40 1   
    11    4    5 1   
    12    4   41 1   
    13    4   42 1   
    14    5    6 1   
    15    5   43 1   
    16    5   44 1   
    17    6    7 1   
    18    6   45 1   
    19    7    8 1   
    20    7   46 1   
    21    7   47 1   
    22    8    9 1   
    23    8   48 1   
    24    8   49 1   
    25    9   10 1   
    26    9   50 1   
    27    9   51 1   
    28   10   11 1   
    29   10   52 1   
    30   10   53 1   
    31   11   12 1   
    32   11   54 1   
    33   11   55 1   
    34   12   13 1   
    35   13   14 1   
    36   13   18 1   
    37   13   56 1   
    38   14   15 1   
    39   14   16 1   
    40   14   57 1   
    41   15   58 1   
    42   16   17 1   
    43   16   22 1   
    44   16   59 1   
    45   17   60 1   
    46   18   19 1   
    47   19   20 1   
    48   19   22 1   
    49   19   61 1   
    50   20   21 1   
    51   20   62 1   
    52   20   63 1   
    53   21   64 1   
    54   22   23 1   
    55   22   65 1   
    56   23   24 1   
    57   24   25 1   
    58   24   33 1   
    59   24   66 1   
    60   25   26 1   
    61   26   27 1   
    62   26   29 1   
    63   26   67 1   
    64   27   28 1   
    65   27   68 1   
    66   27   69 1   
    67   28   70 1   
    68   29   30 1   
    69   29   31 1   
    70   29   71 1   
    71   30   72 1   
    72   31   32 1   
    73   31   33 1   
    74   31   73 1   
    75   32   74 1   
    76   33   34 1   
    77   33   75 1   
    78   34   76 1   
@<TRIPOS>SUBSTRUCTURE
     1 CM5         1 TEMP              0 ****  ****    0 ROOT
