@<TRIPOS>MOLECULE
CM5
   76    78     1     0     0
SMALL
bcc


@<TRIPOS>ATOM
      1 C7          9.6970    0.5050   -1.2330 c3        1 CM5     -0.073400
      2 C8         11.0680    0.4300   -0.5940 c3        1 CM5     -0.076400
      3 C9         11.1680    1.3470    0.6080 c3        1 CM5     -0.076400
      4 C10        10.0720    1.0540    1.6110 c3        1 CM5     -0.076400
      5 C11         8.7020    1.1320    0.9690 c3        1 CM5     -0.073400
      6 C6          8.5970    0.1940   -0.2260 c3        1 CM5     -0.063700
      7 C5          7.2350    0.2990   -0.8950 c3        1 CM5     -0.076400
      8 C4          6.1470   -0.3860   -0.0960 c3        1 CM5     -0.078400
      9 C3          4.8130   -0.2990   -0.8060 c3        1 CM5     -0.078400
     10 C2          3.7260   -0.9810   -0.0040 c3        1 CM5     -0.084400
     11 C1          2.3970   -0.8840   -0.7320 c3        1 CM5      0.136400
     12 O12         1.4370   -1.5520    0.0990 os        1 CM5     -0.423600
     13 C13         0.1380   -1.5730   -0.4460 c3        1 CM5      0.307900
     14 C18        -0.7290   -2.4320    0.4910 c3        1 CM5      0.086100
     15 O22        -0.4360   -3.8070    0.3160 oh        1 CM5     -0.604800
     16 C17        -2.2150   -2.2550    0.1390 c3        1 CM5      0.121100
     17 O21        -3.0170   -2.8820    1.1240 oh        1 CM5     -0.603800
     18 O14        -0.2570   -0.2070   -0.3940 os        1 CM5     -0.444600
     19 C15        -1.6080   -0.0090   -0.8130 c3        1 CM5      0.108100
     20 C19        -1.8340    1.5070   -0.7770 c3        1 CM5      0.137400
     21 O20        -0.8180    2.1860   -1.4820 oh        1 CM5     -0.595800
     22 C16        -2.5710   -0.7560    0.1290 c3        1 CM5      0.125100
     23 O23        -3.8790   -0.5640   -0.4110 os        1 CM5     -0.458600
     24 C24        -4.9310   -0.7130    0.5340 c3        1 CM5      0.298900
     25 O25        -4.8530    0.3790    1.4200 os        1 CM5     -0.424600
     26 C26        -5.1070    1.6610    0.8370 c3        1 CM5      0.136100
     27 C30        -4.9420    2.6810    1.9640 c3        1 CM5      0.136400
     28 O31        -3.5600    3.0000    2.0180 oh        1 CM5     -0.603800
     29 C27        -6.5270    1.6830    0.2500 c3        1 CM5      0.125100
     30 O32        -6.7490    2.9720   -0.2920 oh        1 CM5     -0.595800
     31 C28        -6.6090    0.6060   -0.8440 c3        1 CM5      0.074100
     32 O33        -7.9420    0.6190   -1.3300 oh        1 CM5     -0.607800
     33 C29        -6.2490   -0.7680   -0.2620 c3        1 CM5      0.094100
     34 O34        -6.2010   -1.7350   -1.2890 oh        1 CM5     -0.592800
     35 H71         9.6420   -0.2230   -2.0840 hc        1 CM5      0.039450
     36 H72         9.5340    1.5310   -1.6550 hc        1 CM5      0.039450
     37 H81        11.2750   -0.6250   -0.2750 hc        1 CM5      0.038700
     38 H82        11.8480    0.7130   -1.3480 hc        1 CM5      0.038700
     39 H91        12.1690    1.2200    1.0970 hc        1 CM5      0.038700
     40 H92        11.0910    2.4140    0.2710 hc        1 CM5      0.038700
     41 H101       10.2240    0.0310    2.0430 hc        1 CM5      0.038700
     42 H102       10.1300    1.7890    2.4560 hc        1 CM5      0.038700
     43 H111        8.5040    2.1840    0.6340 hc        1 CM5      0.039450
     44 H112        7.9190    0.8650    1.7250 hc        1 CM5      0.039450
     45 H6          8.7410   -0.8620    0.1390 hc        1 CM5      0.047700
     46 H51         7.2900   -0.1690   -1.9140 hc        1 CM5      0.040700
     47 H52         6.9720    1.3800   -1.0410 hc        1 CM5      0.040700
     48 H41         6.0630    0.0880    0.9170 hc        1 CM5      0.042200
     49 H42         6.4180   -1.4630    0.0640 hc        1 CM5      0.042200
     50 H31A        4.8930   -0.7770   -1.8180 hc        1 CM5      0.042200
     51 H32A        4.5430    0.7780   -0.9690 hc        1 CM5      0.042200
     52 H21A        3.6310   -0.5030    1.0060 hc        1 CM5      0.054700
     53 H22A        3.9840   -2.0590    0.1610 hc        1 CM5      0.054700
     54 H11         2.4400   -1.3960   -1.7300 h1        1 CM5      0.039200
     55 H12         2.0860    0.1830   -0.8740 h1        1 CM5      0.039200
     56 H13         0.1250   -1.9520   -1.5050 h2        1 CM5      0.053700
     57 H18        -0.5460   -2.1290    1.5590 h1        1 CM5      0.079700
     58 H22         0.4930   -3.9220    0.5550 ho        1 CM5      0.425000
     59 H17        -2.4280   -2.7110   -0.8680 h1        1 CM5      0.060700
     60 H21        -2.7350   -3.8070    1.1610 ho        1 CM5      0.425000
     61 H15        -1.7310   -0.3920   -1.8640 h1        1 CM5      0.058700
     62 H191       -2.7840    1.7470   -1.3270 h1        1 CM5      0.069700
     63 H192       -1.8990    1.8700    0.2840 h1        1 CM5      0.069700
     64 H20         0.0160    1.9960   -1.0330 ho        1 CM5      0.411000
     65 H16        -2.5160   -0.3390    1.1710 h1        1 CM5      0.097700
     66 H24        -4.7930   -1.6270    1.1800 h2        1 CM5      0.124700
     67 H26        -4.3530    1.8610    0.0260 h1        1 CM5      0.081700
     68 H301       -5.2800    2.2450    2.9410 h1        1 CM5      0.048700
     69 H302       -5.5410    3.5990    1.7180 h1        1 CM5      0.048700
     70 H31        -3.4490    3.6120    2.7540 ho        1 CM5      0.404000
     71 H27        -7.2910    1.4710    1.0490 h1        1 CM5      0.058700
     72 H32        -7.5740    2.9190   -0.7930 ho        1 CM5      0.426000
     73 H28        -5.9040    0.8600   -1.6850 h1        1 CM5      0.062700
     74 H33        -8.0430   -0.1690   -1.8810 ho        1 CM5      0.424000
     75 H29        -7.0710   -1.1190    0.4260 h1        1 CM5      0.100700
     76 H34        -5.3940   -1.5800   -1.7990 ho        1 CM5      0.420000
@<TRIPOS>BOND
     1    1    2 1   
     2    1    6 1   
     3    1   35 1   
     4    1   36 1   
     5    2    3 1   
     6    2   37 1   
     7    2   38 1   
     8    3    4 1   
     9    3   39 1   
    10    3   40 1   
    11    4    5 1   
    12    4   41 1   
    13    4   42 1   
    14    5    6 1   
    15    5   43 1   
    16    5   44 1   
    17    6    7 1   
    18    6   45 1   
    19    7    8 1   
    20    7   46 1   
    21    7   47 1   
    22    8    9 1   
    23    8   48 1   
    24    8   49 1   
    25    9   10 1   
    26    9   50 1   
    27    9   51 1   
    28   10   11 1   
    29   10   52 1   
    30   10   53 1   
    31   11   12 1   
    32   11   54 1   
    33   11   55 1   
    34   12   13 1   
    35   13   14 1   
    36   13   18 1   
    37   13   56 1   
    38   14   15 1   
    39   14   16 1   
    40   14   57 1   
    41   15   58 1   
    42   16   17 1   
    43   16   22 1   
    44   16   59 1   
    45   17   60 1   
    46   18   19 1   
    47   19   20 1   
    48   19   22 1   
    49   19   61 1   
    50   20   21 1   
    51   20   62 1   
    52   20   63 1   
    53   21   64 1   
    54   22   23 1   
    55   22   65 1   
    56   23   24 1   
    57   24   25 1   
    58   24   33 1   
    59   24   66 1   
    60   25   26 1   
    61   26   27 1   
    62   26   29 1   
    63   26   67 1   
    64   27   28 1   
    65   27   68 1   
    66   27   69 1   
    67   28   70 1   
    68   29   30 1   
    69   29   31 1   
    70   29   71 1   
    71   30   72 1   
    72   31   32 1   
    73   31   33 1   
    74   31   73 1   
    75   32   74 1   
    76   33   34 1   
    77   33   75 1   
    78   34   76 1   
@<TRIPOS>SUBSTRUCTURE
     1 CM5         1 TEMP              0 ****  ****    0 ROOT
