@<TRIPOS>MOLECULE
CM5
   76    78     1     0     0
SMALL
bcc


@<TRIPOS>ATOM
      1 C7          0.2510   -0.4400   -0.0730 c3        1 CM5     -0.073400
      2 C8          1.7560   -0.4240    0.0980 c3        1 CM5     -0.076400
      3 C9          2.1480   -0.0530    1.5130 c3        1 CM5     -0.076400
      4 C10         1.4850   -0.9680    2.5210 c3        1 CM5     -0.076400
      5 C11        -0.0200   -0.9800    2.3490 c3        1 CM5     -0.073400
      6 C6         -0.4120   -1.3740    0.9310 c3        1 CM5     -0.063700
      7 C5         -1.9220   -1.3490    0.7470 c3        1 CM5     -0.076400
      8 C4         -2.6010   -2.5310    1.4040 c3        1 CM5     -0.078400
      9 C3         -4.0960   -2.5010    1.1670 c3        1 CM5     -0.078400
     10 C2         -4.7750   -3.6800    1.8280 c3        1 CM5     -0.084400
     11 C1         -6.2710   -3.6350    1.5770 c3        1 CM5      0.136400
     12 O12        -6.8230   -4.7810    2.2390 os        1 CM5     -0.423600
     13 C13        -8.2170   -4.9060    2.0810 c3        1 CM5      0.307900
     14 C18        -8.6250   -6.2420    2.7290 c3        1 CM5      0.086100
     15 O22        -8.2510   -7.3290    1.9010 oh        1 CM5     -0.604800
     16 C17       -10.1550   -6.3080    2.8710 c3        1 CM5      0.121100
     17 O21       -10.5130   -7.4400    3.6450 oh        1 CM5     -0.603800
     18 O14        -8.7270   -3.8050    2.8240 os        1 CM5     -0.444600
     19 C15       -10.1540   -3.7950    2.8840 c3        1 CM5      0.108100
     20 C19       -10.5270   -2.5120    3.6370 c3        1 CM5      0.137400
     21 O20        -9.8830   -1.3910    3.0750 oh        1 CM5     -0.595800
     22 C16       -10.6630   -5.0550    3.6080 c3        1 CM5      0.125100
     23 O23       -12.0890   -4.9940    3.5500 os        1 CM5     -0.458600
     24 C24       -12.7500   -5.7440    4.5610 c3        1 CM5      0.298900
     25 O25       -12.5120   -5.0920    5.7860 os        1 CM5     -0.424600
     26 C26       -13.0880   -3.7870    5.9090 c3        1 CM5      0.136100
     27 C30       -12.6820   -3.2700    7.2880 c3        1 CM5      0.136400
     28 O31       -11.4050   -2.6710    7.1330 oh        1 CM5     -0.603800
     29 C27       -14.6150   -3.8880    5.7620 c3        1 CM5      0.125100
     30 O32       -15.1480   -2.5850    5.9140 oh        1 CM5     -0.595800
     31 C28       -14.9260   -4.4480    4.3640 c3        1 CM5      0.074100
     32 O33       -16.3360   -4.5740    4.2810 oh        1 CM5     -0.607800
     33 C29       -14.2400   -5.8090    4.1760 c3        1 CM5      0.094100
     34 O34       -14.4200   -6.2650    2.8530 oh        1 CM5     -0.592800
     35 H71        -0.1540    0.5970    0.0620 hc        1 CM5      0.039450
     36 H72        -0.0030   -0.7690   -1.1140 hc        1 CM5      0.039450
     37 H81         2.2060    0.3090   -0.6210 hc        1 CM5      0.038700
     38 H82         2.1700   -1.4370   -0.1510 hc        1 CM5      0.038700
     39 H91         3.2620   -0.1150    1.6230 hc        1 CM5      0.038700
     40 H92         1.8470    1.0080    1.7180 hc        1 CM5      0.038700
     41 H101        1.7390   -0.6310    3.5590 hc        1 CM5      0.038700
     42 H102        1.8830   -2.0100    2.3980 hc        1 CM5      0.038700
     43 H111       -0.4730   -1.7010    3.0780 hc        1 CM5      0.039450
     44 H112       -0.4320    0.0370    2.5800 hc        1 CM5      0.039450
     45 H6         -0.0410   -2.4200    0.7390 hc        1 CM5      0.047700
     46 H51        -2.1570   -1.3560   -0.3510 hc        1 CM5      0.040700
     47 H52        -2.3350   -0.3940    1.1670 hc        1 CM5      0.040700
     48 H41        -2.3980   -2.5230    2.5070 hc        1 CM5      0.042200
     49 H42        -2.1760   -3.4860    0.9960 hc        1 CM5      0.042200
     50 H31A       -4.3030   -2.5150    0.0640 hc        1 CM5      0.042200
     51 H32A       -4.5220   -1.5440    1.5710 hc        1 CM5      0.042200
     52 H21A       -4.3580   -4.6410    1.4300 hc        1 CM5      0.054700
     53 H22A       -4.5850   -3.6680    2.9330 hc        1 CM5      0.054700
     54 H11        -6.5020   -3.6950    0.4800 h1        1 CM5      0.039200
     55 H12        -6.7290   -2.7040    2.0030 h1        1 CM5      0.039200
     56 H13        -8.5340   -4.8420    1.0040 h2        1 CM5      0.053700
     57 H18        -8.1390   -6.3360    3.7390 h1        1 CM5      0.079700
     58 H22        -7.2880   -7.2970    1.8270 ho        1 CM5      0.425000
     59 H17       -10.6330   -6.3810    1.8540 h1        1 CM5      0.060700
     60 H21       -10.1300   -8.2090    3.2020 ho        1 CM5      0.425000
     61 H15       -10.5700   -3.7630    1.8390 h1        1 CM5      0.058700
     62 H191      -10.2830   -2.6110    4.7280 h1        1 CM5      0.069700
     63 H192      -11.6260   -2.3180    3.5020 h1        1 CM5      0.069700
     64 H20        -8.9310   -1.5300    3.1720 ho        1 CM5      0.411000
     65 H16       -10.3190   -5.0700    4.6780 h1        1 CM5      0.097700
     66 H24       -12.3040   -6.7730    4.6850 h2        1 CM5      0.124700
     67 H26       -12.6690   -3.1150    5.1090 h1        1 CM5      0.081700
     68 H301      -12.6300   -4.1140    8.0250 h1        1 CM5      0.048700
     69 H302      -13.4300   -2.5030    7.6270 h1        1 CM5      0.048700
     70 H31       -11.1300   -2.3800    8.0100 ho        1 CM5      0.404000
     71 H27       -15.0460   -4.5670    6.5480 h1        1 CM5      0.058700
     72 H32       -16.0800   -2.6400    5.6620 ho        1 CM5      0.426000
     73 H28       -14.5690   -3.7290    3.5750 h1        1 CM5      0.062700
     74 H33       -16.5210   -5.0900    3.4840 ho        1 CM5      0.424000
     75 H29       -14.7460   -6.5840    4.8200 h1        1 CM5      0.100700
     76 H34       -13.8470   -5.7360    2.2810 ho        1 CM5      0.420000
@<TRIPOS>BOND
     1    1    2 1   
     2    1    6 1   
     3    1   35 1   
     4    1   36 1   
     5    2    3 1   
     6    2   37 1   
     7    2   38 1   
     8    3    4 1   
     9    3   39 1   
    10    3   40 1   
    11    4    5 1   
    12    4   41 1   
    13    4   42 1   
    14    5    6 1   
    15    5   43 1   
    16    5   44 1   
    17    6    7 1   
    18    6   45 1   
    19    7    8 1   
    20    7   46 1   
    21    7   47 1   
    22    8    9 1   
    23    8   48 1   
    24    8   49 1   
    25    9   10 1   
    26    9   50 1   
    27    9   51 1   
    28   10   11 1   
    29   10   52 1   
    30   10   53 1   
    31   11   12 1   
    32   11   54 1   
    33   11   55 1   
    34   12   13 1   
    35   13   14 1   
    36   13   18 1   
    37   13   56 1   
    38   14   15 1   
    39   14   16 1   
    40   14   57 1   
    41   15   58 1   
    42   16   17 1   
    43   16   22 1   
    44   16   59 1   
    45   17   60 1   
    46   18   19 1   
    47   19   20 1   
    48   19   22 1   
    49   19   61 1   
    50   20   21 1   
    51   20   62 1   
    52   20   63 1   
    53   21   64 1   
    54   22   23 1   
    55   22   65 1   
    56   23   24 1   
    57   24   25 1   
    58   24   33 1   
    59   24   66 1   
    60   25   26 1   
    61   26   27 1   
    62   26   29 1   
    63   26   67 1   
    64   27   28 1   
    65   27   68 1   
    66   27   69 1   
    67   28   70 1   
    68   29   30 1   
    69   29   31 1   
    70   29   71 1   
    71   30   72 1   
    72   31   32 1   
    73   31   33 1   
    74   31   73 1   
    75   32   74 1   
    76   33   34 1   
    77   33   75 1   
    78   34   76 1   
@<TRIPOS>SUBSTRUCTURE
     1 CM5         1 TEMP              0 ****  ****    0 ROOT
