@<TRIPOS>MOLECULE
CM5
   76    78     1     0     0
SMALL
bcc


@<TRIPOS>ATOM
      1 C7          3.9110   -4.4580   -4.2960 c3        1 CM5     -0.072400
      2 C8          4.2520   -5.9300   -4.2270 c3        1 CM5     -0.074900
      3 C9          5.5780   -6.1260   -4.1170 c3        1 CM5     -0.075400
      4 C10         6.5230   -5.4140   -4.7570 c3        1 CM5     -0.074900
      5 C11         6.1640   -3.9480   -4.8230 c3        1 CM5     -0.072400
      6 C6          5.0710   -3.5260   -3.7530 c3        1 CM5     -0.061700
      7 C5          4.7450   -2.1950   -3.8460 c3        1 CM5     -0.075400
      8 C4          4.7080   -1.5690   -2.4120 c3        1 CM5     -0.079400
      9 C3          3.9950   -0.2000   -2.4600 c3        1 CM5     -0.076400
     10 C2          3.6310    0.2360   -1.0280 c3        1 CM5     -0.115400
     11 C1          2.2980    1.0080   -1.0490 c3        1 CM5      0.132400
     12 O12         1.7700    1.0960    0.3000 os        1 CM5     -0.418600
     13 C13         0.4000    1.3470    0.3610 c3        1 CM5      0.302900
     14 C18        -0.2510    0.3030    1.2450 c3        1 CM5      0.089100
     15 O22        -0.1540   -0.9740    0.5980 oh        1 CM5     -0.602800
     16 C17        -1.6850    0.5990    1.5090 c3        1 CM5      0.120100
     17 O21        -2.1870   -0.3400    2.5060 oh        1 CM5     -0.607800
     18 O14         0.1860    2.7200    0.8560 os        1 CM5     -0.448600
     19 C15        -1.2250    3.0190    1.1140 c3        1 CM5      0.108100
     20 C19        -1.3230    4.3690    1.7780 c3        1 CM5      0.141400
     21 O20        -0.6180    5.3500    0.9780 oh        1 CM5     -0.595800
     22 C16        -1.8900    1.9760    2.0060 c3        1 CM5      0.128100
     23 O23        -3.3250    2.2460    2.0620 os        1 CM5     -0.432600
     24 C24        -3.9040    1.4760    3.0580 c3        1 CM5      0.329900
     25 O25        -4.1210    2.3170    4.2430 os        1 CM5     -0.444600
     26 C26        -5.1560    3.3250    4.0400 c3        1 CM5      0.072100
     27 C30        -5.4320    4.0170    5.3510 c3        1 CM5      0.130400
     28 O31        -5.6270    3.0540    6.3600 oh        1 CM5     -0.603800
     29 C27        -6.4660    2.7270    3.5080 c3        1 CM5      0.085100
     30 O32        -7.3490    3.7840    3.1710 oh        1 CM5     -0.601800
     31 C28        -6.2520    1.8810    2.3090 c3        1 CM5      0.108100
     32 O33        -7.5140    1.2010    1.9720 oh        1 CM5     -0.610800
     33 C29        -5.2080    0.8670    2.5220 c3        1 CM5      0.133100
     34 O34        -4.9370    0.2060    1.2710 oh        1 CM5     -0.585800
     35 H71         3.7210   -4.2160   -5.2450 hc        1 CM5      0.038700
     36 H72         3.1170   -4.3000   -3.7700 hc        1 CM5      0.038700
     37 H81         3.8040   -6.3260   -3.4530 hc        1 CM5      0.037700
     38 H82         3.9310   -6.3710   -5.0440 hc        1 CM5      0.037700
     39 H91         5.7310   -7.0490   -4.3600 hc        1 CM5      0.038700
     40 H92         5.7850   -6.0470   -3.1550 hc        1 CM5      0.038700
     41 H101        6.6230   -5.7680   -5.6840 hc        1 CM5      0.037700
     42 H102        7.3860   -5.5150   -4.2750 hc        1 CM5      0.037700
     43 H111        5.8230   -3.7510   -5.7130 hc        1 CM5      0.038700
     44 H112        6.9680   -3.4230   -4.6720 hc        1 CM5      0.038700
     45 H6          5.3420   -3.7780   -2.8360 hc        1 CM5      0.047700
     46 H51         3.8690   -2.1030   -4.2640 hc        1 CM5      0.040700
     47 H52         5.4210   -1.7280   -4.3930 hc        1 CM5      0.040700
     48 H41         4.2210   -2.1700   -1.8060 hc        1 CM5      0.042200
     49 H42         5.6260   -1.4480   -2.0840 hc        1 CM5      0.042200
     50 H31A        4.5910    0.4660   -2.8640 hc        1 CM5      0.041700
     51 H32A        3.1900   -0.2750   -2.9890 hc        1 CM5      0.041700
     52 H21A        3.5400   -0.5520   -0.4620 hc        1 CM5      0.048700
     53 H22A        4.3280    0.8060   -0.6780 hc        1 CM5      0.048700
     54 H11         1.6610    0.5400   -1.6180 h1        1 CM5      0.059200
     55 H12         2.4500    1.9200   -1.4050 h1        1 CM5      0.059200
     56 H13         0.0260    1.2750   -0.5400 h2        1 CM5      0.057700
     57 H18         0.2270    0.2650    2.0960 h1        1 CM5      0.077700
     58 H22         0.1570   -1.5710    1.1690 ho        1 CM5      0.423000
     59 H17        -2.1780    0.4850    0.6970 h1        1 CM5      0.079700
     60 H21        -1.8690   -1.1620    2.3330 ho        1 CM5      0.426000
     61 H15        -1.6950    3.0520    0.2720 h1        1 CM5      0.071700
     62 H191       -0.9180    4.3250    2.6780 h1        1 CM5      0.059200
     63 H192       -2.2660    4.6280    1.8550 h1        1 CM5      0.059200
     64 H20        -0.7470    6.1710    1.3260 ho        1 CM5      0.412000
     65 H16        -1.5170    2.0460    2.9110 h1        1 CM5      0.078700
     66 H24        -3.2990    0.7620    3.2900 h2        1 CM5      0.127700
     67 H26        -4.8310    3.9810    3.4030 h1        1 CM5      0.073700
     68 H301       -4.6650    4.5900    5.5880 h1        1 CM5      0.058700
     69 H302       -6.2420    4.5700    5.2660 h1        1 CM5      0.058700
     70 H31        -5.7930    3.4660    7.1390 ho        1 CM5      0.416000
     71 H27        -6.8850    2.1690    4.2300 h1        1 CM5      0.068700
     72 H32        -8.1450    3.6080    3.4810 ho        1 CM5      0.417000
     73 H28        -5.9910    2.4550    1.5590 h1        1 CM5      0.076700
     74 H33        -7.9790    1.7030    1.4000 ho        1 CM5      0.428000
     75 H29        -5.5360    0.2050    3.1670 h1        1 CM5      0.060700
     76 H34        -5.5890   -0.3740    1.0960 ho        1 CM5      0.425000
@<TRIPOS>BOND
     1    1    2 1   
     2    1    6 1   
     3    1   35 1   
     4    1   36 1   
     5    2    3 1   
     6    2   37 1   
     7    2   38 1   
     8    3    4 1   
     9    3   39 1   
    10    3   40 1   
    11    4    5 1   
    12    4   41 1   
    13    4   42 1   
    14    5    6 1   
    15    5   43 1   
    16    5   44 1   
    17    6    7 1   
    18    6   45 1   
    19    7    8 1   
    20    7   46 1   
    21    7   47 1   
    22    8    9 1   
    23    8   48 1   
    24    8   49 1   
    25    9   10 1   
    26    9   50 1   
    27    9   51 1   
    28   10   11 1   
    29   10   52 1   
    30   10   53 1   
    31   11   12 1   
    32   11   54 1   
    33   11   55 1   
    34   12   13 1   
    35   13   14 1   
    36   13   18 1   
    37   13   56 1   
    38   14   15 1   
    39   14   16 1   
    40   14   57 1   
    41   15   58 1   
    42   16   17 1   
    43   16   22 1   
    44   16   59 1   
    45   17   60 1   
    46   18   19 1   
    47   19   20 1   
    48   19   22 1   
    49   19   61 1   
    50   20   21 1   
    51   20   62 1   
    52   20   63 1   
    53   21   64 1   
    54   22   23 1   
    55   22   65 1   
    56   23   24 1   
    57   24   25 1   
    58   24   33 1   
    59   24   66 1   
    60   25   26 1   
    61   26   27 1   
    62   26   29 1   
    63   26   67 1   
    64   27   28 1   
    65   27   68 1   
    66   27   69 1   
    67   28   70 1   
    68   29   30 1   
    69   29   31 1   
    70   29   71 1   
    71   30   72 1   
    72   31   32 1   
    73   31   33 1   
    74   31   73 1   
    75   32   74 1   
    76   33   34 1   
    77   33   75 1   
    78   34   76 1   
@<TRIPOS>SUBSTRUCTURE
     1 CM5         1 TEMP              0 ****  ****    0 ROOT
