@<TRIPOS>MOLECULE
CM6
   44    38     1     0     0
SMALL
bcc


@<TRIPOS>ATOM
      1 O1         -0.0800   -1.0100   -1.6670 o         1 CM6     -0.361000
      2 C1          0.5790   -0.0390   -1.3520 c1        1 CM6      0.295000
      3 N1          0.6330    1.0900   -2.2100 n2        1 CM6     -0.313000
      4 C2         -0.0810    1.0840   -3.4350 c2        1 CM6      0.110000
      5 C3         -1.4450    1.0180   -3.4290 c2        1 CM6     -0.209000
      6 C4         -2.1480    1.1000   -4.6210 c1        1 CM6     -0.051000
      7 N2         -1.4780    1.2480   -5.7980 n1        1 CM6     -0.154000
      8 C5         -0.1180    1.3150   -5.8050 c1        1 CM6     -0.048000
      9 C6          0.5880    1.2320   -4.6150 c1        1 CM6     -0.235000
     10 C7          1.3290   -0.0280   -0.0400 c3        1 CM6      0.074000
     11 N3          0.4050   -0.1170    1.0340 n3        1 CM6     -0.874000
     12 S1         -0.3200    1.2400    1.6100 s4        1 CM6      2.078800
     13 O2         -0.7370    2.1020    0.5400 o         1 CM6     -0.522400
     14 O3          0.6200    2.0820    2.2960 o         1 CM6     -0.522400
     15 C8         -1.6820    0.8110    2.6570 c1        1 CM6     -0.768000
     16 C9         -2.7840    0.0880    2.1440 c2        1 CM6      0.032000
     17 C10        -3.9300   -0.1760    2.9820 c1        1 CM6     -0.162000
     18 C11        -3.9550    0.2870    4.3180 c1        1 CM6     -0.019000
     19 C12        -2.8840    0.9920    4.8230 c1        1 CM6     -0.093000
     20 N4         -2.6600    1.5900    6.0820 n1        1 CM6     -0.310000
     21 S2         -1.3440    2.2480    6.0430 ss        1 CM6      0.648000
     22 N5         -0.7740    2.0250    4.7040 n2        1 CM6     -0.323000
     23 C13        -1.7010    1.2650    3.9580 c1        1 CM6     -0.024000
     24 C14         2.2760   -1.2070    0.0100 c2        1 CM6     -0.125000
     25 C15         3.6470   -0.9960   -0.0060 c2        1 CM6     -0.113000
     26 C16         4.5140   -2.0770   -0.0120 c1        1 CM6     -0.129000
     27 C17         4.0120   -3.3690   -0.0010 c1        1 CM6     -0.119500
     28 C18         2.6420   -3.5800    0.0150 c1        1 CM6     -0.119500
     29 C19         1.7740   -2.4980    0.0210 c1        1 CM6     -0.110000
     30 H1          1.1380    1.8140   -1.9790 hn        1 CM6      0.241000
     31 H3         -1.9240    0.9120   -2.5860 ha        1 CM6      0.177000
     32 H4         -3.1220    1.0530   -4.6160 ha        1 CM6      0.162000
     33 H5          0.3600    1.4200   -6.6480 ha        1 CM6      0.161000
     34 H6          1.5620    1.2800   -4.6200 ha        1 CM6      0.142000
     35 H7          1.8380    0.8030    0.0380 h1        1 CM6      0.146000
     36 HA          0.2340   -0.9250    1.4230 hn        1 CM6      0.250000
     37 H9         -2.7700   -0.2320    1.2230 ha        1 CM6      0.173000
     38 H10        -4.6880   -0.6740    2.6260 ha        1 CM6      0.151000
     39 H11        -4.7300    0.1080    4.8820 ha        1 CM6      0.160000
     40 H15         4.0000   -0.0870   -0.0130 ha        1 CM6      0.144000
     41 H16         5.4800   -1.9280   -0.0230 ha        1 CM6      0.140000
     42 H17         4.6230   -4.1300   -0.0060 ha        1 CM6      0.139000
     43 H18         2.2890   -4.4890    0.0220 ha        1 CM6      0.139000
     44 H19         0.8100   -2.6470    0.0320 ha        1 CM6      0.141000
@<TRIPOS>BOND
     1    1    2 1   
     2    2   10 1   
     3    3    4 1   
     4    3   30 1   
     5    4    5 1   
     6    4    9 1   
     7    5    6 1   
     8    5   31 1   
     9    6   32 1   
    10    7    8 1   
    11    8   33 1   
    12    9   34 1   
    13   10   11 1   
    14   10   24 1   
    15   10   35 1   
    16   11   12 1   
    17   11   36 1   
    18   12   13 1   
    19   12   14 1   
    20   15   16 1   
    21   15   23 1   
    22   16   17 1   
    23   16   37 1   
    24   17   38 1   
    25   18   19 1   
    26   18   39 1   
    27   20   21 1   
    28   21   22 1   
    29   22   23 1   
    30   24   25 1   
    31   24   29 1   
    32   25   26 1   
    33   25   40 1   
    34   26   41 1   
    35   27   28 1   
    36   27   42 1   
    37   28   43 1   
    38   29   44 1   
@<TRIPOS>SUBSTRUCTURE
     1 CM6         1 TEMP              0 ****  ****    0 ROOT
