@<TRIPOS>MOLECULE
CM6
   46    48     1     0     0
SMALL
bcc


@<TRIPOS>ATOM
      1 O1         -0.1970   -2.3170    0.2370 o         1 CM6     -0.405100
      2 C1          0.8600   -1.8110   -0.1050 c         1 CM6      0.511100
      3 N1          1.1920   -1.8490   -1.5750 n4        1 CM6     -0.539200
      4 C2          0.6810   -0.6670   -2.2840 ca        1 CM6     -0.022400
      5 C3          1.5740    0.2310   -2.8910 ca        1 CM6     -0.230800
      6 C4          1.0190    1.3240   -3.5890 ca        1 CM6      0.443700
      7 N2         -0.3030    1.5460   -3.6990 nb        1 CM6     -0.590000
      8 C5         -1.1400    0.6700   -3.1120 ca        1 CM6      0.443700
      9 C6         -0.7050   -0.4600   -2.3890 ca        1 CM6     -0.230800
     10 C7          1.8990   -1.1360    0.8110 c3        1 CM6      0.179800
     11 N3          1.5400   -1.2130    2.2210 n3        1 CM6     -0.979800
     12 S1          2.1720    0.8960    3.5100 s4        1 CM6      1.686300
     13 O2          0.8610    1.2110    3.4130 o         1 CM6     -0.428400
     14 O3          3.0230    1.2280    2.4990 o         1 CM6     -0.428400
     15 C8          2.8070    0.3760    4.8170 ca        1 CM6     -0.612500
     16 C9          4.1980    0.4720    5.0740 ca        1 CM6      0.117000
     17 C10         4.7820    0.1400    6.2910 ca        1 CM6     -0.202000
     18 C11         4.0330   -0.3340    7.3620 ca        1 CM6      0.150000
     19 C12         2.6400   -0.5150    7.1860 ca        1 CM6     -0.138000
     20 N4          1.7230   -0.9930    8.0620 nc        1 CM6     -0.258500
     21 S2          0.3010   -1.0220    7.3380 ss        1 CM6      0.851000
     22 N5          0.7030   -0.4500    5.8640 nc        1 CM6     -0.389500
     23 C13         2.0150   -0.1770    5.8810 ca        1 CM6      0.020000
     24 C14         3.2530   -1.7190    0.5140 ca        1 CM6     -0.215300
     25 C15         4.3400   -0.8630    0.3080 ca        1 CM6     -0.123500
     26 C16         5.6010   -1.3980    0.0410 ca        1 CM6     -0.112500
     27 C17         5.7810   -2.7810   -0.0060 ca        1 CM6     -0.074000
     28 C18         4.6970   -3.6360    0.2190 ca        1 CM6     -0.112500
     29 C19         3.4360   -3.1090    0.4830 ca        1 CM6     -0.123500
     30 H1          0.7580   -2.6850   -1.9980 hn        1 CM6      0.479800
     31 H3          2.6660    0.1060   -2.8560 ha        1 CM6      0.175000
     32 H4          1.6790    2.0600   -4.0950 h4        1 CM6      0.073600
     33 H5         -2.2240    0.8780   -3.2300 h4        1 CM6      0.073600
     34 H6         -1.4440   -1.1420   -1.9380 ha        1 CM6      0.175000
     35 H7          1.8890   -0.0310    0.5320 h1        1 CM6      0.128700
     36 HA          0.5370   -1.1870    2.3400 hn        1 CM6      0.412800
     37 H9          4.8530    0.8570    4.2630 ha        1 CM6      0.177000
     38 H10         5.8740    0.2670    6.4150 ha        1 CM6      0.196000
     39 H11         4.5030   -0.5740    8.3370 ha        1 CM6      0.207000
     40 H15         4.2070    0.2310    0.3770 ha        1 CM6      0.150000
     41 H16         6.4570   -0.7230   -0.1270 ha        1 CM6      0.172500
     42 H17         6.7790   -3.2020   -0.2160 ha        1 CM6      0.177000
     43 H18         4.8440   -4.7290    0.1940 ha        1 CM6      0.172500
     44 H19         2.5910   -3.7870    0.6810 ha        1 CM6      0.150000
     45 H12         2.2160   -1.9060   -1.6870 hn        1 CM6      0.479800
     46 H32         1.8990   -2.0580    2.6330 hn        1 CM6      0.412800
@<TRIPOS>BOND
     1    1    2 2   
     2    2    3 1   
     3    2   10 1   
     4    3    4 1   
     5    3   30 1   
     6    3   45 1   
     7    4    5 ar  
     8    4    9 ar  
     9    5    6 ar  
    10    5   31 1   
    11    6    7 ar  
    12    6   32 1   
    13    7    8 ar  
    14    8    9 ar  
    15    8   33 1   
    16    9   34 1   
    17   10   11 1   
    18   10   24 1   
    19   10   35 1   
    20   11   36 1   
    21   11   46 1   
    22   12   13 1   
    23   12   14 1   
    24   12   15 1   
    25   15   16 ar  
    26   15   23 ar  
    27   16   17 ar  
    28   16   37 1   
    29   17   18 ar  
    30   17   38 1   
    31   18   19 ar  
    32   18   39 1   
    33   19   20 2   
    34   19   23 ar  
    35   20   21 1   
    36   21   22 1   
    37   22   23 2   
    38   24   25 ar  
    39   24   29 ar  
    40   25   26 ar  
    41   25   40 1   
    42   26   27 ar  
    43   26   41 1   
    44   27   28 ar  
    45   27   42 1   
    46   28   29 ar  
    47   28   43 1   
    48   29   44 1   
@<TRIPOS>SUBSTRUCTURE
     1 CM6         1 TEMP              0 ****  ****    0 ROOT
