@<TRIPOS>MOLECULE
CM6
   45    48     1     0     0
SMALL
bcc


@<TRIPOS>ATOM
      1 O1          0.0250   -0.5390    0.5660 o         1 CM6     -0.592100
      2 C1          1.1550   -0.3380    0.0800 c         1 CM6      0.658100
      3 N1          1.4600   -0.2760   -1.2510 n         1 CM6     -0.428100
      4 C2          0.5570   -0.4420   -2.3240 ca        1 CM6      0.071600
      5 C3          1.0810   -0.5070   -3.6380 ca        1 CM6     -0.273300
      6 C4          0.1860   -0.6570   -4.7070 ca        1 CM6      0.424200
      7 N2         -1.1510   -0.7450   -4.5620 nb        1 CM6     -0.653000
      8 C5         -1.6350   -0.6820   -3.3100 ca        1 CM6      0.424200
      9 C6         -0.8380   -0.5310   -2.1600 ca        1 CM6     -0.273300
     10 C7          2.3530   -0.0880    1.0500 c3        1 CM6      0.109800
     11 N3          1.9100   -0.1810    2.4750 n4        1 CM6     -0.700900
     12 S1          2.6800    1.0850    3.6210 sy        1 CM6      1.485200
     13 O2          1.6240    1.9440    3.8350 o         1 CM6     -0.573800
     14 O3          3.7910    1.5400    2.9260 o         1 CM6     -0.573800
     15 C8          3.0720    0.1160    4.8560 ca        1 CM6     -0.495500
     16 C9          4.3620    0.0450    5.3750 ca        1 CM6      0.112000
     17 C10         4.6760   -0.6630    6.5540 ca        1 CM6     -0.192000
     18 C11         3.7180   -1.3340    7.2770 ca        1 CM6      0.076000
     19 C12         2.3760   -1.3450    6.7980 ca        1 CM6     -0.109000
     20 N4          1.2880   -1.9520    7.3140 nc        1 CM6     -0.265500
     21 S2          0.0430   -1.6610    6.3350 ss        1 CM6      0.769000
     22 N5          0.7690   -0.7670    5.1850 nc        1 CM6     -0.403500
     23 C13         2.0570   -0.6260    5.5410 ca        1 CM6     -0.013000
     24 C14         3.4740   -1.0410    0.7620 ca        1 CM6     -0.194300
     25 C15         4.7890   -0.5630    0.7200 ca        1 CM6     -0.104500
     26 C16         5.8330   -1.4400    0.4250 ca        1 CM6     -0.123000
     27 C17         5.5690   -2.7880    0.1830 ca        1 CM6     -0.083000
     28 C18         4.2580   -3.2660    0.2380 ca        1 CM6     -0.123000
     29 C19         3.2090   -2.3960    0.5280 ca        1 CM6     -0.104500
     30 H1          2.4220   -0.1780   -1.5050 hn        1 CM6      0.339500
     31 H3          2.1600   -0.4410   -3.8380 ha        1 CM6      0.162000
     32 H4          0.5620   -0.7100   -5.7470 h4        1 CM6      0.038600
     33 H5         -2.7360   -0.7540   -3.2140 h4        1 CM6      0.038600
     34 H6         -1.3160   -0.4880   -1.1700 ha        1 CM6      0.162000
     35 H7          2.7020    0.9810    0.8840 hx        1 CM6      0.128700
     36 HA          0.8820   -0.0620    2.4940 hn        1 CM6      0.473300
     37 H9          5.1810    0.5830    4.8550 ha        1 CM6      0.176000
     38 H10         5.7240   -0.6570    6.9050 ha        1 CM6      0.181000
     39 H11         3.9620   -1.8650    8.2160 ha        1 CM6      0.190000
     40 H15         5.0000    0.5010    0.9250 ha        1 CM6      0.155000
     41 H16         6.8670   -1.0620    0.3800 ha        1 CM6      0.159500
     42 H17         6.3960   -3.4780   -0.0540 ha        1 CM6      0.160000
     43 H18         4.0500   -4.3310    0.0460 ha        1 CM6      0.159500
     44 H19         2.1730   -2.7710    0.5530 ha        1 CM6      0.155000
     45 H32         2.0900   -1.1330    2.7980 hn        1 CM6      0.473300
@<TRIPOS>BOND
     1    1    2 2   
     2    2    3 1   
     3    2   10 1   
     4    3    4 1   
     5    3   30 1   
     6    4    5 ar  
     7    4    9 ar  
     8    5    6 ar  
     9    5   31 1   
    10    6    7 ar  
    11    6   32 1   
    12    7    8 ar  
    13    8    9 ar  
    14    8   33 1   
    15    9   34 1   
    16   10   11 1   
    17   10   24 1   
    18   10   35 1   
    19   11   12 1   
    20   11   36 1   
    21   11   45 1   
    22   12   13 2   
    23   12   14 2   
    24   12   15 1   
    25   15   16 ar  
    26   15   23 ar  
    27   16   17 ar  
    28   16   37 1   
    29   17   18 ar  
    30   17   38 1   
    31   18   19 ar  
    32   18   39 1   
    33   19   20 2   
    34   19   23 ar  
    35   20   21 1   
    36   21   22 1   
    37   22   23 2   
    38   24   25 ar  
    39   24   29 ar  
    40   25   26 ar  
    41   25   40 1   
    42   26   27 ar  
    43   26   41 1   
    44   27   28 ar  
    45   27   42 1   
    46   28   29 ar  
    47   28   43 1   
    48   29   44 1   
@<TRIPOS>SUBSTRUCTURE
     1 CM6         1 TEMP              0 ****  ****    0 ROOT
