@<TRIPOS>MOLECULE
CM6
   44    47     1     0     0
SMALL
bcc


@<TRIPOS>ATOM
      1 O1          2.1800   -0.1190    1.5810 o         1 CM6     -0.580100
      2 C1          2.1880   -0.1440    0.3390 c         1 CM6      0.662100
      3 N1          3.3430   -0.1600   -0.4260 n         1 CM6     -0.461100
      4 C2          4.6650   -0.1280    0.0370 ca        1 CM6      0.103600
      5 C3          5.7180   -0.0850   -0.9130 ca        1 CM6     -0.287300
      6 C4          7.0410   -0.0580   -0.4520 ca        1 CM6      0.415700
      7 N2          7.3870   -0.0690    0.8510 nb        1 CM6     -0.682000
      8 C5          6.3810   -0.1110    1.7440 ca        1 CM6      0.415700
      9 C6          5.0190   -0.1420    1.4040 ca        1 CM6     -0.287300
     10 C7          0.8510   -0.1360   -0.4660 c3        1 CM6      0.230800
     11 N3         -0.1290   -0.9600    0.1840 n3        1 CM6     -0.900100
     12 S1         -1.0580   -2.0440   -0.5660 sy        1 CM6      1.524200
     13 O2         -1.2570   -3.1690    0.2470 o         1 CM6     -0.649300
     14 O3         -0.5390   -2.2930   -1.8620 o         1 CM6     -0.649300
     15 C8         -2.5470   -1.2480   -0.7800 ca        1 CM6     -0.328500
     16 C9         -3.1440   -1.1630   -2.0110 ca        1 CM6      0.039000
     17 C10        -4.4240   -0.5660   -2.2110 ca        1 CM6     -0.163000
     18 C11        -5.1400   -0.0380   -1.1770 ca        1 CM6     -0.016000
     19 C12        -4.5860   -0.0740    0.1440 ca        1 CM6     -0.095000
     20 N4         -5.1080    0.3880    1.2880 nc        1 CM6     -0.273500
     21 S2         -4.0310    0.0820    2.4710 ss        1 CM6      0.587000
     22 N5         -2.8430   -0.6430    1.6170 nc        1 CM6     -0.316500
     23 C13        -3.2440   -0.6920    0.3400 ca        1 CM6     -0.008000
     24 C14         0.4400    1.3110   -0.6140 ca        1 CM6     -0.131300
     25 C15         0.2380    1.8450   -1.8900 ca        1 CM6     -0.109000
     26 C16        -0.1440    3.1790   -2.0330 ca        1 CM6     -0.131500
     27 C17        -0.3310    3.9790   -0.9050 ca        1 CM6     -0.115000
     28 C18        -0.1320    3.4450    0.3680 ca        1 CM6     -0.131500
     29 C19         0.2530    2.1140    0.5160 ca        1 CM6     -0.109000
     30 H1          3.2360   -0.1670   -1.4170 hn        1 CM6      0.324500
     31 H3          5.5190   -0.0750   -1.9920 ha        1 CM6      0.160500
     32 H4          7.8790   -0.0250   -1.1710 h4        1 CM6      0.023600
     33 H5          6.6830   -0.1210    2.8070 h4        1 CM6      0.023600
     34 H6          4.2580   -0.1770    2.1980 ha        1 CM6      0.160500
     35 H7          1.0240   -0.5730   -1.5010 h1        1 CM6      0.092700
     36 HA         -0.1950   -0.7900    1.1650 hn        1 CM6      0.477800
     37 H9         -2.6230   -1.5790   -2.8970 ha        1 CM6      0.169000
     38 H10        -4.8300   -0.5460   -3.2350 ha        1 CM6      0.151000
     39 H11        -6.1320    0.4170   -1.3230 ha        1 CM6      0.160000
     40 H15         0.3770    1.2180   -2.7830 ha        1 CM6      0.145000
     41 H16        -0.3000    3.5990   -3.0380 ha        1 CM6      0.137500
     42 H17        -0.6320    5.0300   -1.0210 ha        1 CM6      0.136000
     43 H18        -0.2750    4.0750    1.2590 ha        1 CM6      0.137500
     44 H19         0.4260    1.6890    1.5190 ha        1 CM6      0.145000
@<TRIPOS>BOND
     1    1    2 2   
     2    2    3 1   
     3    2   10 1   
     4    3    4 1   
     5    3   30 1   
     6    4    5 ar  
     7    4    9 ar  
     8    5    6 ar  
     9    5   31 1   
    10    6    7 ar  
    11    6   32 1   
    12    7    8 ar  
    13    8    9 ar  
    14    8   33 1   
    15    9   34 1   
    16   10   11 1   
    17   10   24 1   
    18   10   35 1   
    19   11   12 1   
    20   11   36 1   
    21   12   13 2   
    22   12   14 2   
    23   12   15 1   
    24   15   16 ar  
    25   15   23 ar  
    26   16   17 ar  
    27   16   37 1   
    28   17   18 ar  
    29   17   38 1   
    30   18   19 ar  
    31   18   39 1   
    32   19   20 2   
    33   19   23 ar  
    34   20   21 1   
    35   21   22 1   
    36   22   23 2   
    37   24   25 ar  
    38   24   29 ar  
    39   25   26 ar  
    40   25   40 1   
    41   26   27 ar  
    42   26   41 1   
    43   27   28 ar  
    44   27   42 1   
    45   28   29 ar  
    46   28   43 1   
    47   29   44 1   
@<TRIPOS>SUBSTRUCTURE
     1 CM6         1 TEMP              0 ****  ****    0 ROOT
