@<TRIPOS>MOLECULE
CM6
   45    48     1     0     0
SMALL
bcc


@<TRIPOS>ATOM
      1 O1          0.0200   -0.5030    0.5900 o         1 CM6     -0.592100
      2 C1          1.1480   -0.3340    0.0870 c         1 CM6      0.658100
      3 N1          1.4390   -0.3010   -1.2490 ns        1 CM6     -0.428100
      4 C2          0.5190   -0.4640   -2.3080 ca        1 CM6      0.071600
      5 C3          1.0260   -0.5610   -3.6270 ca        1 CM6     -0.273300
      6 C4          0.1140   -0.7080   -4.6830 ca        1 CM6      0.424200
      7 N2         -1.2220   -0.7650   -4.5200 nb        1 CM6     -0.653000
      8 C5         -1.6900   -0.6710   -3.2640 ca        1 CM6      0.424200
      9 C6         -0.8760   -0.5210   -2.1260 ca        1 CM6     -0.273300
     10 C7          2.3640   -0.0940    1.0380 c3        1 CM6      0.109800
     11 N3          1.9370   -0.1530    2.4700 ny        1 CM6     -0.700900
     12 S1          2.7470    1.1160    3.5840 sy        1 CM6      1.485200
     13 O2          1.7140    2.0010    3.7960 o         1 CM6     -0.573800
     14 O3          3.8590    1.5350    2.8680 o         1 CM6     -0.573800
     15 C8          3.1350    0.1600    4.8310 ca        1 CM6     -0.495500
     16 C9          4.4290    0.0690    5.3350 ca        1 CM6      0.112000
     17 C10         4.7430   -0.6240    6.5220 ca        1 CM6     -0.192000
     18 C11         3.7800   -1.2620    7.2690 ca        1 CM6      0.076000
     19 C12         2.4320   -1.2530    6.8060 ca        1 CM6     -0.109000
     20 N4          1.3380   -1.8270    7.3460 nc        1 CM6     -0.265500
     21 S2          0.0880   -1.5250    6.3770 ss        1 CM6      0.769000
     22 N5          0.8170   -0.6670    5.2040 nc        1 CM6     -0.403500
     23 C13         2.1130   -0.5480    5.5410 ca        1 CM6     -0.013000
     24 C14         3.4600   -1.0760    0.7540 ca        1 CM6     -0.194300
     25 C15         4.7840   -0.6280    0.6870 ca        1 CM6     -0.104500
     26 C16         5.8050   -1.5320    0.3950 ca        1 CM6     -0.123000
     27 C17         5.5090   -2.8790    0.1800 ca        1 CM6     -0.083000
     28 C18         4.1880   -3.3270    0.2600 ca        1 CM6     -0.123000
     29 C19         3.1630   -2.4290    0.5460 ca        1 CM6     -0.104500
     30 H1          2.3990   -0.2290   -1.5160 hn        1 CM6      0.339500
     31 H3          2.1030   -0.5210   -3.8410 ha        1 CM6      0.162000
     32 H4          0.4760   -0.7850   -5.7260 h4        1 CM6      0.038600
     33 H5         -2.7900   -0.7180   -3.1540 h4        1 CM6      0.038600
     34 H6         -1.3410   -0.4510   -1.1310 ha        1 CM6      0.162000
     35 H7          2.7340    0.9640    0.8500 hx        1 CM6      0.128700
     36 HA          2.0990   -1.1030    2.8070 hn        1 CM6      0.473300
     37 H9          5.2530    0.5810    4.7950 ha        1 CM6      0.176000
     38 H10         5.7950   -0.6350    6.8600 ha        1 CM6      0.181000
     39 H11         4.0240   -1.7830    8.2130 ha        1 CM6      0.190000
     40 H15         5.0210    0.4340    0.8710 ha        1 CM6      0.155000
     41 H16         6.8470   -1.1790    0.3310 ha        1 CM6      0.159500
     42 H17         6.3170   -3.5910   -0.0550 ha        1 CM6      0.160000
     43 H18         3.9540   -4.3900    0.0880 ha        1 CM6      0.159500
     44 H19         2.1190   -2.7800    0.5900 ha        1 CM6      0.155000
     45 H32         0.9110   -0.0110    2.4990 hn        1 CM6      0.473300
@<TRIPOS>BOND
     1    1    2 2   
     2    2    3 1   
     3    2   10 1   
     4    3    4 1   
     5    3   30 1   
     6    4    5 ar  
     7    4    9 ar  
     8    5    6 ar  
     9    5   31 1   
    10    6    7 ar  
    11    6   32 1   
    12    7    8 ar  
    13    8    9 ar  
    14    8   33 1   
    15    9   34 1   
    16   10   11 1   
    17   10   24 1   
    18   10   35 1   
    19   11   12 1   
    20   11   36 1   
    21   11   45 1   
    22   12   13 2   
    23   12   14 2   
    24   12   15 1   
    25   15   16 ar  
    26   15   23 ar  
    27   16   17 ar  
    28   16   37 1   
    29   17   18 ar  
    30   17   38 1   
    31   18   19 ar  
    32   18   39 1   
    33   19   20 2   
    34   19   23 ar  
    35   20   21 1   
    36   21   22 1   
    37   22   23 2   
    38   24   25 ar  
    39   24   29 ar  
    40   25   26 ar  
    41   25   40 1   
    42   26   27 ar  
    43   26   41 1   
    44   27   28 ar  
    45   27   42 1   
    46   28   29 ar  
    47   28   43 1   
    48   29   44 1   
@<TRIPOS>SUBSTRUCTURE
     1 CM6         1 TEMP              0 ****  ****    0 ROOT
