@<TRIPOS>MOLECULE
CM7
   81    85     1     0     0
SMALL
bcc


@<TRIPOS>ATOM
      1 C01        -0.5610   -0.6830    0.4120 c3        1 CM7     -0.089100
      2 C02         0.9390   -0.8520    0.3390 c3        1 CM7     -0.025200
      3 C03         1.5800   -0.8080    1.6610 cc        1 CM7     -0.101400
      4 C04         2.1650   -1.8780    2.3340 cd        1 CM7     -0.067100
      5 N05         2.6970   -1.4490    3.5670 na        1 CM7     -0.044400
      6 C06         3.3910   -2.2790    4.5230 c3        1 CM7      0.084300
      7 C07         2.8020   -2.2650    5.9240 c3        1 CM7     -0.349600
      8 S08         2.7330   -0.8100    6.8650 s6        1 CM7      1.442900
      9 O09         3.5150   -1.0010    8.0110 o         1 CM7     -0.620300
     10 O10         1.3770   -0.4930    7.0360 o         1 CM7     -0.620300
     11 N11         3.4400    0.3230    5.8970 nh        1 CM7     -0.689900
     12 C12         4.7320    0.8890    6.1830 c3        1 CM7      0.195100
     13 C13         2.7720    0.8020    4.7570 ca        1 CM7      0.143600
     14 C14         2.3690    2.1260    4.6050 ca        1 CM7     -0.043000
     15 C15         1.6480    2.5650    3.4580 ca        1 CM7     -0.251600
     16 C16         1.3470    1.6810    2.4060 ca        1 CM7     -0.017000
     17 C17         1.7360    0.3610    2.5110 ca        1 CM7     -0.092800
     18 C18         2.4540   -0.0960    3.6940 ca        1 CM7      0.007800
     19 C19         1.2430    3.9500    3.4840 c         1 CM7      0.595700
     20 O20         1.5280    4.8300    4.2960 o         1 CM7     -0.518100
     21 N21         0.2850    4.4040    2.3830 ny        1 CM7     -0.685800
     22 C22        -0.1540    5.8360    2.4930 c3        1 CM7      0.094500
     23 C23        -0.8730    6.2740    1.2050 c3        1 CM7     -0.045100
     24 C24         0.0010    6.0950    0.0160 ca        1 CM7     -0.170300
     25 C25         0.9330    7.0800   -0.3310 ca        1 CM7     -0.133500
     26 C26         1.7210    6.9280   -1.4710 ca        1 CM7     -0.107500
     27 C27         1.5810    5.7950   -2.2730 ca        1 CM7     -0.088000
     28 C28         0.6490    4.8120   -1.9340 ca        1 CM7     -0.107500
     29 C29        -0.1390    4.9600   -0.7940 ca        1 CM7     -0.133500
     30 C30        -1.0190    6.1070    3.7550 c3        1 CM7      0.124100
     31 O31        -2.3220    6.5480    3.4370 oh        1 CM7     -0.598800
     32 C32        -0.3710    7.2680    4.5490 c3        1 CM7      0.098800
     33 N33        -1.2150    7.7240    5.6870 ny        1 CM7     -0.762000
     34 C34        -0.6530    8.9400    6.3760 c3        1 CM7      0.178100
     35 C35        -0.8290   10.1820    5.5750 ca        1 CM7     -0.195300
     36 C36         0.2910   10.9130    5.1550 ca        1 CM7     -0.073000
     37 C37         0.1220   12.1180    4.4760 ca        1 CM7     -0.118000
     38 C38        -1.1610   12.5950    4.1960 ca        1 CM7     -0.029000
     39 C39        -2.2740   11.8590    4.6080 ca        1 CM7     -0.155300
     40 C40        -2.1160   10.6650    5.3110 ca        1 CM7     -0.072000
     41 C41        -3.6890   12.3480    4.2850 c3        1 CM7      0.689200
     42 F42        -4.6020   12.0860    5.2750 f         1 CM7     -0.218300
     43 F43        -4.2160   11.7530    3.1640 f         1 CM7     -0.218300
     44 F44        -3.7830   13.6940    4.0530 f         1 CM7     -0.218300
     45 H011       -0.9980   -0.7220   -0.6150 hc        1 CM7      0.039700
     46 H012       -1.0230   -1.4970    1.0220 hc        1 CM7      0.039700
     47 H013       -0.8260    0.2970    0.8770 hc        1 CM7      0.039700
     48 H021        1.1750   -1.8330   -0.1590 hc        1 CM7      0.063700
     49 H022        1.3770   -0.0430   -0.3080 hc        1 CM7      0.063700
     50 H04         2.2520   -2.9270    2.0290 h4        1 CM7      0.203000
     51 H061        4.4710   -1.9450    4.5630 h1        1 CM7      0.088200
     52 H062        3.3700   -3.3370    4.1300 h1        1 CM7      0.088200
     53 H071        1.7610   -2.6970    5.8790 h1        1 CM7      0.147700
     54 H072        3.4030   -3.0260    6.5060 h1        1 CM7      0.147700
     55 H121        5.4650    0.6290    5.3720 h1        1 CM7      0.063033
     56 H122        5.1100    0.4830    7.1620 h1        1 CM7      0.063033
     57 H123        4.6650    2.0070    6.2590 h1        1 CM7      0.063033
     58 H14         2.6020    2.8640    5.3940 ha        1 CM7      0.168000
     59 H16         0.8180    1.9950    1.4940 ha        1 CM7      0.130000
     60 H21         0.7570    4.2970    1.4680 hn        1 CM7      0.467300
     61 H22         0.8070    6.4350    2.5760 hx        1 CM7      0.124700
     62 H231       -1.8300    5.7020    1.0750 hc        1 CM7      0.090200
     63 H232       -1.1510    7.3570    1.3340 hc        1 CM7      0.090200
     64 H30        -1.0720    5.1900    4.4120 h1        1 CM7      0.068700
     65 H25         1.0310    7.9880    0.2830 ha        1 CM7      0.130500
     66 H29        -0.9060    4.2050   -0.5630 ha        1 CM7      0.130500
     67 H26         2.4460    7.7120   -1.7470 ha        1 CM7      0.162000
     68 H27         2.1950    5.6820   -3.1820 ha        1 CM7      0.168000
     69 H28         0.5220    3.9280   -2.5800 ha        1 CM7      0.162000
     70 H31        -2.8120    5.8190    3.0310 ho        1 CM7      0.451000
     71 H321       -0.2220    8.1550    3.8650 hx        1 CM7      0.129700
     72 H322        0.6280    6.9200    4.9450 hx        1 CM7      0.129700
     73 H33        -2.1550    7.9490    5.3210 hn        1 CM7      0.462800
     74 H341        0.4370    8.7430    6.5920 hx        1 CM7      0.117700
     75 H342       -1.2080    9.0340    7.3580 hx        1 CM7      0.117700
     76 H36         1.3080   10.5530    5.3820 ha        1 CM7      0.150000
     77 H40        -3.0110   10.1310    5.6710 ha        1 CM7      0.150000
     78 H37         1.0040   12.7050    4.1670 ha        1 CM7      0.176000
     79 H38        -1.2980   13.5540    3.6630 ha        1 CM7      0.187000
     80 H212       -0.5310    3.7850    2.3880 hn        1 CM7      0.467300
     81 H332       -1.3070    6.9650    6.3700 hn        1 CM7      0.462800
@<TRIPOS>BOND
     1    1    2 1   
     2    1   45 1   
     3    1   46 1   
     4    1   47 1   
     5    2    3 1   
     6    2   48 1   
     7    2   49 1   
     8    3    4 2   
     9    3   17 1   
    10    4    5 1   
    11    4   50 1   
    12    5    6 1   
    13    5   18 1   
    14    6    7 1   
    15    6   51 1   
    16    6   52 1   
    17    7    8 1   
    18    7   53 1   
    19    7   54 1   
    20    8    9 2   
    21    8   10 2   
    22    8   11 1   
    23   11   12 1   
    24   11   13 1   
    25   12   55 1   
    26   12   56 1   
    27   12   57 1   
    28   13   14 ar  
    29   13   18 ar  
    30   14   15 ar  
    31   14   58 1   
    32   15   16 ar  
    33   15   19 1   
    34   16   17 ar  
    35   16   59 1   
    36   17   18 ar  
    37   19   20 2   
    38   19   21 1   
    39   21   22 1   
    40   21   60 1   
    41   21   80 1   
    42   22   23 1   
    43   22   30 1   
    44   22   61 1   
    45   23   24 1   
    46   23   62 1   
    47   23   63 1   
    48   24   25 ar  
    49   24   29 ar  
    50   25   26 ar  
    51   25   65 1   
    52   26   27 ar  
    53   26   67 1   
    54   27   28 ar  
    55   27   68 1   
    56   28   29 ar  
    57   28   69 1   
    58   29   66 1   
    59   30   31 1   
    60   30   32 1   
    61   30   64 1   
    62   31   70 1   
    63   32   33 1   
    64   32   71 1   
    65   32   72 1   
    66   33   34 1   
    67   33   73 1   
    68   33   81 1   
    69   34   35 1   
    70   34   74 1   
    71   34   75 1   
    72   35   36 ar  
    73   35   40 ar  
    74   36   37 ar  
    75   36   76 1   
    76   37   38 ar  
    77   37   78 1   
    78   38   39 ar  
    79   38   79 1   
    80   39   40 ar  
    81   39   41 1   
    82   40   77 1   
    83   41   42 1   
    84   41   43 1   
    85   41   44 1   
@<TRIPOS>SUBSTRUCTURE
     1 CM7         1 TEMP              0 ****  ****    0 ROOT
