@<TRIPOS>MOLECULE
CM7
   79    74     1     0     0
SMALL
bcc


@<TRIPOS>ATOM
      1 C01        -2.6820   -5.9670   -3.4880 c3        1 CM7     -0.212000
      2 C02        -2.1780   -4.5430   -3.5010 c3        1 CM7     -0.098000
      3 C03        -0.7390   -4.5140   -3.0320 c2        1 CM7     -0.120000
      4 C04         0.1850   -5.4240   -3.5810 c1        1 CM7     -0.072000
      5 N05         1.4680   -4.8740   -3.4380 n2        1 CM7     -0.172000
      6 C06         2.3840   -4.8910   -4.5630 c2        1 CM7      0.039000
      7 C07         3.6570   -5.6020   -4.2030 c3        1 CM7     -0.879000
      8 S08         4.1090   -5.0120   -2.6130 s4        1 CM7      2.015800
      9 O09         5.5190   -5.1360   -2.3610 o         1 CM7     -0.526900
     10 O10         3.4100   -5.6860   -1.5510 o         1 CM7     -0.526900
     11 N11         3.6630   -3.4280   -2.5970 n2        1 CM7     -0.786000
     12 C12         4.5300   -2.3210   -3.0150 c3        1 CM7     -0.072000
     13 C13         2.3560   -3.2640   -1.9880 c2        1 CM7      0.021000
     14 C14         2.0380   -2.6470   -0.7440 c2        1 CM7     -0.073000
     15 C15         0.6980   -2.4040   -0.4050 c1        1 CM7     -0.152000
     16 C16        -0.3300   -2.7690   -1.2960 c1        1 CM7     -0.017000
     17 C17        -0.0070   -3.3880   -2.5460 c1        1 CM7     -0.082000
     18 C18         1.3250   -3.5570   -2.9130 c1        1 CM7      0.008000
     19 C19         0.0960   -1.0270    0.0370 c2        1 CM7      0.350000
     20 O20        -1.0830   -0.9390    0.3060 o         1 CM7     -0.391000
     21 N21         0.9360    0.1510    0.0730 n         1 CM7     -0.361000
     22 C22         0.3430    1.4640    0.2980 c3        1 CM7      0.002000
     23 C23        -0.3350    1.9280   -0.9520 c3        1 CM7     -0.149000
     24 C24         0.5590    2.9330   -1.6750 c2        1 CM7     -0.080000
     25 C25         0.8120    4.1710   -1.0970 c2        1 CM7     -0.133000
     26 C26         1.4740    5.1590   -1.8250 c1        1 CM7     -0.127000
     27 C27         1.8800    4.9080   -3.1260 c1        1 CM7     -0.130000
     28 C28         1.6280    3.6730   -3.7050 c1        1 CM7     -0.130000
     29 C29         0.9650    2.6820   -2.9770 c1        1 CM7     -0.128000
     30 C30        -0.6680    1.3790    1.4170 c3        1 CM7     -0.003000
     31 O31        -1.9590    1.4080    0.8820 oh        1 CM7     -0.342000
     32 C32        -0.4810    2.5700    2.3670 c3        1 CM7     -0.069000
     33 N33        -1.2720    2.3600    3.5740 n3        1 CM7     -0.292000
     34 C34        -1.0160    3.4420    4.5210 c3        1 CM7     -0.042000
     35 C35        -2.2210    3.5890    5.4770 c2        1 CM7     -0.085000
     36 C36        -2.9430    2.4660    5.8610 c2        1 CM7     -0.095000
     37 C37        -3.9730    2.5840    6.7890 c1        1 CM7     -0.137000
     38 C38        -4.2810    3.8340    7.3350 c1        1 CM7     -0.082000
     39 C39        -3.5570    4.9610    6.9510 c1        1 CM7     -0.166000
     40 C40        -2.5300    4.8420    6.0250 c1        1 CM7     -0.061000
     41 C41        -3.8110    6.3160    7.6530 c3        1 CM7      0.466000
     42 F42        -5.1260    6.5810    7.6510 f         1 CM7     -0.167000
     43 F43        -3.1590    7.2870    7.0000 f         1 CM7     -0.167000
     44 F44        -3.3650    6.2530    8.9270 f         1 CM7     -0.167000
     45 H011       -2.5810   -6.3390   -2.5910 hc        1 CM7      0.076000
     46 H012       -2.1610   -6.5050   -4.1270 hc        1 CM7      0.076000
     47 H013       -3.6310   -5.9810   -3.7440 hc        1 CM7      0.076000
     48 H021       -2.7270   -3.9960   -2.9020 hc        1 CM7      0.094000
     49 H022       -2.2320   -4.1870   -4.4060 hc        1 CM7      0.094000
     50 H04        -0.0370   -6.2550   -4.0560 DU        1 CM7      0.174000
     51 H061        1.9580   -5.3520   -5.3190 ha        1 CM7      0.104000
     52 H062        2.5920   -3.9700   -4.8230 ha        1 CM7      0.104000
     53 H071        3.6050   -6.5770   -4.3490 h1        1 CM7      0.170000
     54 H072        4.3790   -5.3630   -4.8250 h1        1 CM7      0.170000
     55 H121        4.6640   -2.3600   -3.9830 h1        1 CM7      0.093000
     56 H122        5.3980   -2.3960   -2.5610 h1        1 CM7      0.093000
     57 H123        4.1070   -1.4630   -2.7760 h1        1 CM7      0.093000
     58 H14         2.7530   -2.3950   -0.1260 ha        1 CM7      0.148000
     59 H16        -1.2660   -2.6000   -1.0610 ha        1 CM7      0.162000
     60 H21         1.8330    0.0740   -0.0700 hn        1 CM7      0.225000
     61 H22         1.0410    2.0950    0.5400 h1        1 CM7      0.098000
     62 H231       -1.1820    2.3530   -0.7220 hc        1 CM7      0.112000
     63 H232       -0.5030    1.1640   -1.5330 hc        1 CM7      0.112000
     64 H30        -0.5380    0.5440    1.9120 h1        1 CM7      0.093000
     65 H25         0.5260    4.3490   -0.1800 ha        1 CM7      0.131000
     66 H29         0.7870    1.8120   -3.3860 ha        1 CM7      0.134000
     67 H26         1.6520    6.0340   -1.4150 ha        1 CM7      0.133000
     68 H27         2.3460    5.6050   -3.6380 ha        1 CM7      0.132000
     69 H28         1.9150    3.4960   -4.6220 ha        1 CM7      0.132000
     70 H31        -2.3330    0.6060    0.9690 ho        1 CM7      0.236000
     71 H321       -0.7730    3.3870    1.9250 h1        1 CM7      0.096500
     72 H322        0.4610    2.6500    2.6060 h1        1 CM7      0.096500
     73 H33        -1.0390    1.5560    3.9570 hn        1 CM7      0.177000
     74 H341       -0.8850    4.2780    4.0330 h1        1 CM7      0.080500
     75 H342       -0.2080    3.2370    5.0410 h1        1 CM7      0.080500
     76 H36        -2.7290    1.6020    5.4820 ha        1 CM7      0.141000
     77 H40        -2.0210    5.6320    5.7550 ha        1 CM7      0.165000
     78 H37        -4.4780    1.7970    7.0570 ha        1 CM7      0.142000
     79 H38        -5.0090    3.9170    7.9910 ha        1 CM7      0.150000
@<TRIPOS>BOND
     1    1    2 1   
     2    1   45 1   
     3    1   46 1   
     4    1   47 1   
     5    2    3 1   
     6    2   48 1   
     7    2   49 1   
     8    3    4 1   
     9    3   17 1   
    10    4    5 1   
    11    5   18 1   
    12    6    7 1   
    13    6   51 1   
    14    6   52 1   
    15    7    8 1   
    16    7   53 1   
    17    7   54 1   
    18    8    9 1   
    19    8   10 1   
    20   11   12 1   
    21   11   13 1   
    22   12   55 1   
    23   12   56 1   
    24   12   57 1   
    25   13   14 1   
    26   13   18 1   
    27   14   15 1   
    28   14   58 1   
    29   15   19 1   
    30   16   17 1   
    31   16   59 1   
    32   19   20 1   
    33   19   21 1   
    34   21   22 1   
    35   21   60 1   
    36   22   23 1   
    37   22   30 1   
    38   22   61 1   
    39   23   24 1   
    40   23   62 1   
    41   23   63 1   
    42   24   25 1   
    43   24   29 1   
    44   25   26 1   
    45   25   65 1   
    46   26   67 1   
    47   27   28 1   
    48   27   68 1   
    49   28   69 1   
    50   29   66 1   
    51   30   31 1   
    52   30   32 1   
    53   30   64 1   
    54   31   70 1   
    55   32   33 1   
    56   32   71 1   
    57   32   72 1   
    58   33   34 1   
    59   33   73 1   
    60   34   35 1   
    61   34   74 1   
    62   34   75 1   
    63   35   36 1   
    64   35   40 1   
    65   36   37 1   
    66   36   76 1   
    67   37   78 1   
    68   38   39 1   
    69   38   79 1   
    70   39   41 1   
    71   40   77 1   
    72   41   42 1   
    73   41   43 1   
    74   41   44 1   
@<TRIPOS>SUBSTRUCTURE
     1 CM7         1 TEMP              0 ****  ****    0 ROOT
