@<TRIPOS>MOLECULE
CM7
   81    85     1     0     0
SMALL
bcc


@<TRIPOS>ATOM
      1 C01        -0.4800   -0.6510    0.3430 c3        1 CM7     -0.089100
      2 C02         1.0200   -0.8150    0.2880 c3        1 CM7     -0.025200
      3 C03         1.6430   -0.7810    1.6190 cc        1 CM7     -0.101400
      4 C04         2.2230   -1.8550    2.2910 cd        1 CM7     -0.067100
      5 N05         2.7370   -1.4350    3.5350 na        1 CM7     -0.044400
      6 C06         3.4200   -2.2710    4.4920 c3        1 CM7      0.084300
      7 C07         2.8130   -2.2720    5.8850 c3        1 CM7     -0.349600
      8 S08         2.7260   -0.8260    6.8380 s6        1 CM7      1.442900
      9 O09         3.4940   -1.0250    7.9920 o         1 CM7     -0.620300
     10 O10         1.3670   -0.5140    6.9930 o         1 CM7     -0.620300
     11 N11         3.4430    0.3180    5.8900 nh        1 CM7     -0.689900
     12 C12         4.7290    0.8860    6.1970 c3        1 CM7      0.195100
     13 C13         2.7880    0.8060    4.7450 ca        1 CM7      0.143600
     14 C14         2.3830    2.1290    4.5990 ca        1 CM7     -0.043000
     15 C15         1.6760    2.5770    3.4470 ca        1 CM7     -0.251600
     16 C16         1.3930    1.7010    2.3830 ca        1 CM7     -0.017000
     17 C17         1.7850    0.3810    2.4810 ca        1 CM7     -0.092800
     18 C18         2.4870   -0.0840    3.6700 ca        1 CM7      0.007800
     19 C19         1.2670    3.9600    3.4800 c         1 CM7      0.595700
     20 O20         1.5380    4.8340    4.3030 o         1 CM7     -0.518100
     21 N21         0.3220    4.4210    2.3690 n4        1 CM7     -0.685800
     22 C22        -0.1220    5.8500    2.4860 c3        1 CM7      0.094500
     23 C23        -0.8240    6.2980    1.1920 c3        1 CM7     -0.045100
     24 C24         0.0670    6.1310    0.0130 ca        1 CM7     -0.170300
     25 C25         1.0000    7.1220   -0.3120 ca        1 CM7     -0.133500
     26 C26         1.8050    6.9820   -1.4430 ca        1 CM7     -0.107500
     27 C27         1.6790    5.8550   -2.2570 ca        1 CM7     -0.088000
     28 C28         0.7450    4.8670   -1.9380 ca        1 CM7     -0.107500
     29 C29        -0.0590    5.0020   -0.8080 ca        1 CM7     -0.133500
     30 C30        -1.0050    6.1090    3.7380 c3        1 CM7      0.124100
     31 O31        -2.3040    6.5500    3.4060 oh        1 CM7     -0.598800
     32 C32        -0.3710    7.2640    4.5510 c3        1 CM7      0.098800
     33 N33        -1.2320    7.7080    5.6810 n4        1 CM7     -0.762000
     34 C34        -0.6820    8.9190    6.3890 c3        1 CM7      0.178100
     35 C35        -0.8480   10.1680    5.5960 ca        1 CM7     -0.195300
     36 C36         0.2770   10.9040    5.2000 ca        1 CM7     -0.073000
     37 C37         0.1160   12.1140    4.5290 ca        1 CM7     -0.118000
     38 C38        -1.1630   12.5930    4.2350 ca        1 CM7     -0.029000
     39 C39        -2.2810   11.8510    4.6240 ca        1 CM7     -0.155300
     40 C40        -2.1320   10.6510    5.3180 ca        1 CM7     -0.072000
     41 C41        -3.6920   12.3420    4.2850 c3        1 CM7      0.689200
     42 F42        -4.6200   12.0680    5.2590 f         1 CM7     -0.218300
     43 F43        -4.2020   11.7570    3.1510 f         1 CM7     -0.218300
     44 F44        -3.7850   13.6890    4.0650 f         1 CM7     -0.218300
     45 H011       -0.7550    0.3240    0.8120 hc        1 CM7      0.039700
     46 H012       -0.9030   -0.6820   -0.6910 hc        1 CM7      0.039700
     47 H013       -0.9490   -1.4710    0.9390 hc        1 CM7      0.039700
     48 H021        1.4650    0.0010   -0.3460 hc        1 CM7      0.063700
     49 H022        1.2660   -1.7910   -0.2150 hc        1 CM7      0.063700
     50 H04         2.3170   -2.9010    1.9770 h4        1 CM7      0.203000
     51 H061        4.4980   -1.9350    4.5500 h1        1 CM7      0.088200
     52 H062        3.4080   -3.3260    4.0890 h1        1 CM7      0.088200
     53 H071        1.7730   -2.7070    5.8220 h1        1 CM7      0.147700
     54 H072        3.4080   -3.0370    6.4680 h1        1 CM7      0.147700
     55 H121        5.0950    0.4720    7.1780 h1        1 CM7      0.063033
     56 H122        4.6570    2.0030    6.2830 h1        1 CM7      0.063033
     57 H123        5.4730    0.6360    5.3940 h1        1 CM7      0.063033
     58 H14         2.6030    2.8610    5.3970 ha        1 CM7      0.168000
     59 H16         0.8750    2.0210    1.4660 ha        1 CM7      0.130000
     60 H21         0.8070    4.3230    1.4600 hn        1 CM7      0.467300
     61 H22         0.8360    6.4520    2.5870 hx        1 CM7      0.124700
     62 H231       -1.1060    7.3790    1.3260 hc        1 CM7      0.090200
     63 H232       -1.7780    5.7240    1.0440 hc        1 CM7      0.090200
     64 H30        -1.0650    5.1860    4.3860 h1        1 CM7      0.068700
     65 H25         1.0870    8.0250    0.3100 ha        1 CM7      0.130500
     66 H29        -0.8270    4.2440   -0.5940 ha        1 CM7      0.130500
     67 H26         2.5300    7.7700   -1.7020 ha        1 CM7      0.162000
     68 H27         2.3050    5.7510   -3.1580 ha        1 CM7      0.168000
     69 H28         0.6290    3.9880   -2.5930 ha        1 CM7      0.162000
     70 H31        -2.7870    5.8230    2.9860 ho        1 CM7      0.451000
     71 H321       -0.2140    8.1570    3.8770 hx        1 CM7      0.129700
     72 H322        0.6230    6.9150    4.9580 hx        1 CM7      0.129700
     73 H33        -2.1660    7.9350    5.3040 hn        1 CM7      0.462800
     74 H341        0.4050    8.7220    6.6190 hx        1 CM7      0.117700
     75 H342       -1.2520    9.0040    7.3640 hx        1 CM7      0.117700
     76 H36         1.2910   10.5430    5.4380 ha        1 CM7      0.150000
     77 H40        -3.0320   10.1130    5.6610 ha        1 CM7      0.150000
     78 H37         1.0010   12.7050    4.2370 ha        1 CM7      0.176000
     79 H38        -1.2950   13.5560    3.7080 ha        1 CM7      0.187000
     80 H212       -0.4920    3.8000    2.3570 hn        1 CM7      0.467300
     81 H332       -1.3320    6.9430    6.3560 hn        1 CM7      0.462800
@<TRIPOS>BOND
     1    1    2 1   
     2    1   45 1   
     3    1   46 1   
     4    1   47 1   
     5    2    3 1   
     6    2   48 1   
     7    2   49 1   
     8    3    4 2   
     9    3   17 1   
    10    4    5 1   
    11    4   50 1   
    12    5    6 1   
    13    5   18 1   
    14    6    7 1   
    15    6   51 1   
    16    6   52 1   
    17    7    8 1   
    18    7   53 1   
    19    7   54 1   
    20    8    9 2   
    21    8   10 2   
    22    8   11 1   
    23   11   12 1   
    24   11   13 1   
    25   12   55 1   
    26   12   56 1   
    27   12   57 1   
    28   13   14 ar  
    29   13   18 ar  
    30   14   15 ar  
    31   14   58 1   
    32   15   16 ar  
    33   15   19 1   
    34   16   17 ar  
    35   16   59 1   
    36   17   18 ar  
    37   19   20 2   
    38   19   21 1   
    39   21   22 1   
    40   21   60 1   
    41   21   80 1   
    42   22   23 1   
    43   22   30 1   
    44   22   61 1   
    45   23   24 1   
    46   23   62 1   
    47   23   63 1   
    48   24   25 ar  
    49   24   29 ar  
    50   25   26 ar  
    51   25   65 1   
    52   26   27 ar  
    53   26   67 1   
    54   27   28 ar  
    55   27   68 1   
    56   28   29 ar  
    57   28   69 1   
    58   29   66 1   
    59   30   31 1   
    60   30   32 1   
    61   30   64 1   
    62   31   70 1   
    63   32   33 1   
    64   32   71 1   
    65   32   72 1   
    66   33   34 1   
    67   33   73 1   
    68   33   81 1   
    69   34   35 1   
    70   34   74 1   
    71   34   75 1   
    72   35   36 ar  
    73   35   40 ar  
    74   36   37 ar  
    75   36   76 1   
    76   37   38 ar  
    77   37   78 1   
    78   38   39 ar  
    79   38   79 1   
    80   39   40 ar  
    81   39   41 1   
    82   40   77 1   
    83   41   42 1   
    84   41   43 1   
    85   41   44 1   
@<TRIPOS>SUBSTRUCTURE
     1 CM7         1 TEMP              0 ****  ****    0 ROOT
