@<TRIPOS>MOLECULE
CM7
   79    83     1     0     0
SMALL
bcc


@<TRIPOS>ATOM
      1 C01        28.1150   -4.1840   34.6740 c3        1 CM7     -0.089100
      2 C02        29.6120   -4.3790   34.7490 c3        1 CM7     -0.013200
      3 C03        30.2380   -3.5350   35.7770 cc        1 CM7     -0.120400
      4 C04        30.7530   -3.9600   37.0010 cd        1 CM7     -0.096100
      5 N05        31.2990   -2.8720   37.7010 na        1 CM7     -0.081400
      6 C06        31.8890   -2.9140   39.0070 c3        1 CM7      0.099300
      7 C07        31.2530   -1.9800   40.0260 c3        1 CM7     -0.337600
      8 S08        31.3920   -0.2540   39.8510 s6        1 CM7      1.443900
      9 O09        32.2550    0.1830   40.8790 o         1 CM7     -0.639300
     10 O10        30.0840    0.2560   39.8830 o         1 CM7     -0.639300
     11 N11        32.1050   -0.0330   38.4050 nh        1 CM7     -0.689900
     12 C12        33.4330    0.5040   38.2760 c3        1 CM7      0.202100
     13 C13        31.4540   -0.3730   37.1970 ca        1 CM7      0.105600
     14 C14        31.1350    0.5690   36.2150 ca        1 CM7     -0.055000
     15 C15        30.4900    0.1940   35.0190 ca        1 CM7     -0.161600
     16 C16        30.1500   -1.1280   34.7510 ca        1 CM7     -0.046000
     17 C17        30.4500   -2.1020   35.7020 ca        1 CM7     -0.086800
     18 C18        31.1130   -1.7250   36.9270 ca        1 CM7     -0.040200
     19 C19        30.2180    1.2820   34.0340 c         1 CM7      0.680700
     20 O20        31.0280    2.2150   33.8500 o         1 CM7     -0.621100
     21 N21        29.0120    1.2410   33.3610 n         1 CM7     -0.558900
     22 C22        28.7000    2.1490   32.2850 c3        1 CM7      0.079700
     23 C23        27.9300    1.4610   31.1420 c3        1 CM7     -0.056100
     24 C24        28.6920    0.3500   30.5140 ca        1 CM7     -0.083300
     25 C25        29.8920    0.6060   29.8370 ca        1 CM7     -0.128000
     26 C26        30.5930   -0.4340   29.2300 ca        1 CM7     -0.126000
     27 C27        30.1020   -1.7380   29.2890 ca        1 CM7     -0.130000
     28 C28        28.9060   -1.9990   29.9570 ca        1 CM7     -0.126000
     29 C29        28.2040   -0.9610   30.5670 ca        1 CM7     -0.128000
     30 C30        27.8600    3.3800   32.7380 c3        1 CM7      0.118100
     31 O31        27.6730    4.2450   31.6290 oh        1 CM7     -0.596800
     32 C32        28.5460    4.1140   33.9020 c3        1 CM7      0.120800
     33 N33        27.8740    5.3420   34.2800 n3        1 CM7     -0.812200
     34 C34        28.7030    6.2660   35.0200 c3        1 CM7      0.205100
     35 C35        29.7870    6.9680   34.2480 ca        1 CM7     -0.133300
     36 C36        31.0800    6.4380   34.1930 ca        1 CM7     -0.089000
     37 C37        32.0830    7.0980   33.4830 ca        1 CM7     -0.135000
     38 C38        31.8040    8.2930   32.8210 ca        1 CM7     -0.082000
     39 C39        30.5120    8.8200   32.8740 ca        1 CM7     -0.171300
     40 C40        29.5040    8.1650   33.5830 ca        1 CM7     -0.076000
     41 C41        30.1960   10.1160   32.1370 c3        1 CM7      0.687200
     42 F42        29.1950   10.8680   32.7030 f         1 CM7     -0.237967
     43 F43        29.7840    9.9370   30.8380 f         1 CM7     -0.237967
     44 F44        31.2530   10.9880   32.0330 f         1 CM7     -0.237967
     45 H011       27.6310   -4.4540   35.6430 hc        1 CM7      0.036367
     46 H012       27.8710   -3.1180   34.4450 hc        1 CM7      0.036367
     47 H013       27.6860   -4.8290   33.8700 hc        1 CM7      0.036367
     48 H021       29.8350   -5.4600   34.9620 hc        1 CM7      0.048200
     49 H022       30.0680   -4.1360   33.7490 hc        1 CM7      0.048200
     50 H04        30.7840   -4.9650   37.4270 h4        1 CM7      0.172000
     51 H061       31.8060   -3.9740   39.3870 h1        1 CM7      0.064200
     52 H062       32.9880   -2.6660   38.9140 h1        1 CM7      0.064200
     53 H071       30.1600   -2.2350   40.1150 h1        1 CM7      0.129200
     54 H072       31.7060   -2.2560   41.0190 h1        1 CM7      0.129200
     55 H121       34.1370   -0.2790   37.8860 h1        1 CM7      0.055700
     56 H122       33.4350    1.3710   37.5610 h1        1 CM7      0.055700
     57 H123       33.7970    0.8590   39.2790 h1        1 CM7      0.055700
     58 H14        31.3950    1.6320   36.3550 ha        1 CM7      0.161000
     59 H16        29.6690   -1.4250   33.8070 ha        1 CM7      0.147000
     60 H21        28.3900    0.4850   33.5170 hn        1 CM7      0.316500
     61 H22        29.6790    2.5450   31.8720 h1        1 CM7      0.077700
     62 H231       26.9420    1.0900   31.5250 hc        1 CM7      0.068200
     63 H232       27.7110    2.2490   30.3700 hc        1 CM7      0.068200
     64 H30        26.8170    3.0660   33.0200 h1        1 CM7      0.088700
     65 H25        30.2800    1.6340   29.7850 ha        1 CM7      0.131000
     66 H29        27.2570   -1.1720   31.0850 ha        1 CM7      0.131000
     67 H26        31.5350   -0.2240   28.7030 ha        1 CM7      0.132500
     68 H27        30.6550   -2.5580   28.8080 ha        1 CM7      0.133000
     69 H28        28.5120   -3.0250   30.0000 ha        1 CM7      0.132500
     70 H31        28.5400    4.5850   31.3760 ho        1 CM7      0.401000
     71 H321       28.5360    3.4450   34.8090 h1        1 CM7      0.052700
     72 H322       29.6290    4.2810   33.6210 h1        1 CM7      0.052700
     73 H33        27.4730    5.7870   33.4730 hn        1 CM7      0.370800
     74 H341       28.0090    7.0430   35.4550 h1        1 CM7      0.064200
     75 H342       29.1740    5.7070   35.8790 h1        1 CM7      0.064200
     76 H36        31.3080    5.4920   34.7110 ha        1 CM7      0.151000
     77 H40        28.4900    8.5960   33.6220 ha        1 CM7      0.152000
     78 H37        33.0980    6.6750   33.4440 ha        1 CM7      0.144000
     79 H38        32.5920    8.8230   32.2640 ha        1 CM7      0.150000
@<TRIPOS>BOND
     1    1    2 1   
     2    1   45 1   
     3    1   46 1   
     4    1   47 1   
     5    2    3 1   
     6    2   48 1   
     7    2   49 1   
     8    3    4 2   
     9    3   17 1   
    10    4    5 1   
    11    4   50 1   
    12    5    6 1   
    13    5   18 1   
    14    6    7 1   
    15    6   51 1   
    16    6   52 1   
    17    7    8 1   
    18    7   53 1   
    19    7   54 1   
    20    8    9 2   
    21    8   10 2   
    22    8   11 1   
    23   11   12 1   
    24   11   13 1   
    25   12   55 1   
    26   12   56 1   
    27   12   57 1   
    28   13   14 ar  
    29   13   18 ar  
    30   14   15 ar  
    31   14   58 1   
    32   15   16 ar  
    33   15   19 1   
    34   16   17 ar  
    35   16   59 1   
    36   17   18 ar  
    37   19   20 2   
    38   19   21 1   
    39   21   22 1   
    40   21   60 1   
    41   22   23 1   
    42   22   30 1   
    43   22   61 1   
    44   23   24 1   
    45   23   62 1   
    46   23   63 1   
    47   24   25 ar  
    48   24   29 ar  
    49   25   26 ar  
    50   25   65 1   
    51   26   27 ar  
    52   26   67 1   
    53   27   28 ar  
    54   27   68 1   
    55   28   29 ar  
    56   28   69 1   
    57   29   66 1   
    58   30   31 1   
    59   30   32 1   
    60   30   64 1   
    61   31   70 1   
    62   32   33 1   
    63   32   71 1   
    64   32   72 1   
    65   33   34 1   
    66   33   73 1   
    67   34   35 1   
    68   34   74 1   
    69   34   75 1   
    70   35   36 ar  
    71   35   40 ar  
    72   36   37 ar  
    73   36   76 1   
    74   37   38 ar  
    75   37   78 1   
    76   38   39 ar  
    77   38   79 1   
    78   39   40 ar  
    79   39   41 1   
    80   40   77 1   
    81   41   42 1   
    82   41   43 1   
    83   41   44 1   
@<TRIPOS>SUBSTRUCTURE
     1 CM7         1 TEMP              0 ****  ****    0 ROOT
