@<TRIPOS>MOLECULE
CM7
   81    85     1     0     0
SMALL
bcc


@<TRIPOS>ATOM
      1 C01        -0.5440   -0.6690    0.3840 c3        1 CM7     -0.089100
      2 C02         0.9550   -0.8390    0.3170 c3        1 CM7     -0.025200
      3 C03         1.5900   -0.8010    1.6430 cc        1 CM7     -0.101400
      4 C04         2.1710   -1.8740    2.3150 cd        1 CM7     -0.067100
      5 N05         2.6980   -1.4500    3.5520 na        1 CM7     -0.044400
      6 C06         3.3870   -2.2840    4.5080 c3        1 CM7      0.084300
      7 C07         2.7920   -2.2750    5.9060 c3        1 CM7     -0.349600
      8 S08         2.7190   -0.8240    6.8520 s6        1 CM7      1.442900
      9 O09         3.4960   -1.0200    8.0000 o         1 CM7     -0.620300
     10 O10         1.3630   -0.5060    7.0170 o         1 CM7     -0.620300
     11 N11         3.4320    0.3120    5.8920 nh        1 CM7     -0.689900
     12 C12         4.7220    0.8770    6.1850 c3        1 CM7      0.195100
     13 C13         2.7690    0.7970    4.7500 ca        1 CM7      0.143600
     14 C14         2.3680    2.1210    4.6010 ca        1 CM7     -0.043000
     15 C15         1.6530    2.5660    3.4530 ca        1 CM7     -0.251600
     16 C16         1.3560    1.6850    2.3970 ca        1 CM7     -0.017000
     17 C17         1.7440    0.3650    2.4980 ca        1 CM7     -0.092800
     18 C18         2.4550   -0.0970    3.6830 ca        1 CM7      0.007800
     19 C19         1.2490    3.9510    3.4820 c         1 CM7      0.595700
     20 O20         1.5310    4.8280    4.2990 o         1 CM7     -0.518100
     21 N21         0.2960    4.4100    2.3780 n4        1 CM7     -0.685800
     22 C22        -0.1420    5.8410    2.4920 c3        1 CM7      0.094500
     23 C23        -0.8550    6.2850    1.2020 c3        1 CM7     -0.045100
     24 C24         0.0250    6.1110    0.0170 ca        1 CM7     -0.170300
     25 C25         0.9580    7.0970   -0.3230 ca        1 CM7     -0.133500
     26 C26         1.7510    6.9490   -1.4600 ca        1 CM7     -0.107500
     27 C27         1.6150    5.8180   -2.2670 ca        1 CM7     -0.088000
     28 C28         0.6810    4.8340   -1.9350 ca        1 CM7     -0.107500
     29 C29        -0.1110    4.9780   -0.7970 ca        1 CM7     -0.133500
     30 C30        -1.0130    6.1080    3.7510 c3        1 CM7      0.124100
     31 O31        -2.3150    6.5500    3.4290 oh        1 CM7     -0.598800
     32 C32        -0.3690    7.2660    4.5520 c3        1 CM7      0.098800
     33 N33        -1.2180    7.7170    5.6890 n4        1 CM7     -0.762000
     34 C34        -0.6590    8.9300    6.3850 c3        1 CM7      0.178100
     35 C35        -0.8340   10.1760    5.5890 ca        1 CM7     -0.195300
     36 C36         0.2870   10.9090    5.1760 ca        1 CM7     -0.073000
     37 C37         0.1200   12.1170    4.5030 ca        1 CM7     -0.118000
     38 C38        -1.1630   12.5950    4.2200 ca        1 CM7     -0.029000
     39 C39        -2.2770   11.8560    4.6250 ca        1 CM7     -0.155300
     40 C40        -2.1200   10.6580    5.3220 ca        1 CM7     -0.072000
     41 C41        -3.6910   12.3460    4.2990 c3        1 CM7      0.689200
     42 F42        -4.6090   12.0730    5.2820 f         1 CM7     -0.218300
     43 F43        -4.2110   11.7600    3.1700 f         1 CM7     -0.218300
     44 F44        -3.7860   13.6930    4.0780 f         1 CM7     -0.218300
     45 H011       -0.9770   -0.7030   -0.6460 hc        1 CM7      0.039700
     46 H012       -0.8100    0.3100    0.8510 hc        1 CM7      0.039700
     47 H013       -1.0110   -1.4840    0.9890 hc        1 CM7      0.039700
     48 H021        1.1920   -1.8190   -0.1830 hc        1 CM7      0.063700
     49 H022        1.3980   -0.0280   -0.3250 hc        1 CM7      0.063700
     50 H04         2.2590   -2.9210    2.0050 h4        1 CM7      0.203000
     51 H061        3.3660   -3.3410    4.1100 h1        1 CM7      0.088200
     52 H062        4.4660   -1.9510    4.5530 h1        1 CM7      0.088200
     53 H071        3.3890   -3.0390    6.4870 h1        1 CM7      0.147700
     54 H072        1.7500   -2.7060    5.8540 h1        1 CM7      0.147700
     55 H121        5.0950    0.4660    7.1650 h1        1 CM7      0.063033
     56 H122        5.4590    0.6190    5.3770 h1        1 CM7      0.063033
     57 H123        4.6560    1.9950    6.2660 h1        1 CM7      0.063033
     58 H14         2.5980    2.8560    5.3940 ha        1 CM7      0.168000
     59 H16         0.8310    2.0030    1.4830 ha        1 CM7      0.130000
     60 H21         0.7730    4.3060    1.4650 hn        1 CM7      0.466800
     61 H22         0.8190    6.4400    2.5820 hx        1 CM7      0.124700
     62 H231       -1.8120    5.7140    1.0660 hc        1 CM7      0.090200
     63 H232       -1.1320    7.3670    1.3340 hc        1 CM7      0.090200
     64 H30        -1.0690    5.1890    4.4040 h1        1 CM7      0.068700
     65 H25         1.0530    8.0030    0.2940 ha        1 CM7      0.130500
     66 H29        -0.8790    4.2220   -0.5720 ha        1 CM7      0.130500
     67 H26         2.4770    7.7340   -1.7300 ha        1 CM7      0.162000
     68 H27         2.2330    5.7080   -3.1730 ha        1 CM7      0.168000
     69 H28         0.5580    3.9520   -2.5840 ha        1 CM7      0.162000
     70 H31        -2.8020    5.8230    3.0170 ho        1 CM7      0.451000
     71 H321        0.6280    6.9160    4.9510 hx        1 CM7      0.129700
     72 H322       -0.2170    8.1550    3.8730 hx        1 CM7      0.129700
     73 H33        -2.1560    7.9440    5.3190 hn        1 CM7      0.462800
     74 H341        0.4300    8.7340    6.6040 hx        1 CM7      0.117700
     75 H342       -1.2180    9.0200    7.3660 hx        1 CM7      0.117700
     76 H36         1.3040   10.5500    5.4050 ha        1 CM7      0.150000
     77 H40        -3.0160   10.1230    5.6770 ha        1 CM7      0.150000
     78 H37         1.0020   12.7070    4.1990 ha        1 CM7      0.176000
     79 H38        -1.2990   13.5560    3.6910 ha        1 CM7      0.187000
     80 H212       -0.5200    3.7920    2.3760 hn        1 CM7      0.466800
     81 H332       -1.3130    6.9550    6.3680 hn        1 CM7      0.462800
@<TRIPOS>BOND
     1    1    2 1   
     2    1   45 1   
     3    1   46 1   
     4    1   47 1   
     5    2    3 1   
     6    2   48 1   
     7    2   49 1   
     8    3    4 2   
     9    3   17 1   
    10    4    5 1   
    11    4   50 1   
    12    5    6 1   
    13    5   18 1   
    14    6    7 1   
    15    6   51 1   
    16    6   52 1   
    17    7    8 1   
    18    7   53 1   
    19    7   54 1   
    20    8    9 2   
    21    8   10 2   
    22    8   11 1   
    23   11   12 1   
    24   11   13 1   
    25   12   55 1   
    26   12   56 1   
    27   12   57 1   
    28   13   14 ar  
    29   13   18 ar  
    30   14   15 ar  
    31   14   58 1   
    32   15   16 ar  
    33   15   19 1   
    34   16   17 ar  
    35   16   59 1   
    36   17   18 ar  
    37   19   20 2   
    38   19   21 1   
    39   21   22 1   
    40   21   60 1   
    41   21   80 1   
    42   22   23 1   
    43   22   30 1   
    44   22   61 1   
    45   23   24 1   
    46   23   62 1   
    47   23   63 1   
    48   24   25 ar  
    49   24   29 ar  
    50   25   26 ar  
    51   25   65 1   
    52   26   27 ar  
    53   26   67 1   
    54   27   28 ar  
    55   27   68 1   
    56   28   29 ar  
    57   28   69 1   
    58   29   66 1   
    59   30   31 1   
    60   30   32 1   
    61   30   64 1   
    62   31   70 1   
    63   32   33 1   
    64   32   71 1   
    65   32   72 1   
    66   33   34 1   
    67   33   73 1   
    68   33   81 1   
    69   34   35 1   
    70   34   74 1   
    71   34   75 1   
    72   35   36 ar  
    73   35   40 ar  
    74   36   37 ar  
    75   36   76 1   
    76   37   38 ar  
    77   37   78 1   
    78   38   39 ar  
    79   38   79 1   
    80   39   40 ar  
    81   39   41 1   
    82   40   77 1   
    83   41   42 1   
    84   41   43 1   
    85   41   44 1   
@<TRIPOS>SUBSTRUCTURE
     1 CM7         1 TEMP              0 ****  ****    0 ROOT
