@<TRIPOS>MOLECULE
CM8
   83    83     1     0     0
SMALL
bcc


@<TRIPOS>ATOM
      1 C02        20.4760    4.5680   31.6850 c3        1 CM8     -0.266000
      2 C01       205.9730 -347.2240  331.5260 c3        1 CM8     -0.050000
      3 C06       206.3010 -340.0840  334.3170 c2        1 CM8     -0.267000
      4 C07       206.6180 -341.3850  334.2600 c2        1 CM8     -0.267000
      5 S08       208.7720 -341.7240  333.1880 s4        1 CM8      2.128800
      6 O10       208.4380 -341.0150  332.0700 o         1 CM8     -0.452900
      7 O09       209.4160 -341.1020  334.2210 o         1 CM8     -0.452900
      8 N11       208.7640 -343.1480  333.1530 n2        1 CM8     -1.092000
      9 C12       208.5840 -344.4230  333.1050 c2        1 CM8      0.443000
     10 C13       204.2660 -345.5970  334.7140 c2        1 CM8      0.009000
     11 C14       203.6900 -345.1170  333.5740 c2        1 CM8     -0.143000
     12 C15       204.3860 -345.4210  332.3130 c2        1 CM8     -0.113000
     13 C16       204.6410 -346.7070  331.9880 c2        1 CM8     -0.134000
     14 C17       206.2120 -347.0110  333.8390 c1        1 CM8     -0.109000
     15 C18       205.4090 -346.3970  334.5100 c1        1 CM8     -0.158000
     16 O20       206.1570 -343.8080  332.0700 o         1 CM8     -0.491000
     17 N21       204.4680 -343.6680  330.5730 n         1 CM8     -0.339000
     18 C22       203.2260 -344.0790  329.9790 c3        1 CM8     -0.078000
     19 C23      -483.2270-1056.8640-1719.2200 c2        1 CM8      0.073000
     20 C24      -482.3410-1057.7200-1718.6420 c2        1 CM8     -0.190000
     21 C29      -481.9530-1057.6280-1717.3310 c1        1 CM8      0.225000
     22 C28      -481.5730-1057.5840-1716.1510 c1        1 CM8     -0.236000
     23 C27      -481.1650-1057.5390-1714.8890 c2        1 CM8      0.208000
     24 C26       203.4210 -345.2400  325.7600 c1        1 CM8     -0.222750
     25 C25       202.6440 -344.6990  326.4910 c1        1 CM8     -0.222750
     26 C30       202.2180 -342.9220  329.7750 c3        1 CM8      0.016000
     27 O31       201.0740 -343.4560  329.1240 oh        1 CM8     -0.316000
     28 C32       202.7640 -341.8400  328.8640 c3        1 CM8     -0.223000
     29 N33      -342.7610    0.0220   50.9050 n3        1 CM8     -0.250000
     30 C34      -343.1270    0.2880   50.8640 DU        1 CM8      0.007000
     31 C35      -343.5710    0.0100   49.7220 c3        1 CM8      0.082000
     32 C36        -0.4220  103.9000   39.2240 c1        1 CM8     -0.222750
     33 C37        -0.6600  104.2770   40.3330 c1        1 CM8     -0.222750
     34 C38      -344.0430    0.7230   47.0970 cu        1 CM8     -0.052000
     35 C39      -343.6160    0.5040   47.4900 c2        1 CM8      0.166000
     36 C31       209.5480 -345.3930  332.5410 c3        1 CM8     -0.289000
     37 C40      -343.6970    0.5270   48.4760 DU        1 CM8     -0.344000
     38 C41      -343.2790    0.0780   47.1820 cx        1 CM8      0.156000
     39 F44      -342.8500    0.3930   48.2970 f         1 CM8      0.083000
     40 F43      -342.2730    0.9340   46.2660 f         1 CM8      0.012000
     41 N03       206.8390 -347.4850  332.7230 n3        1 CM8     -0.176000
     42 F42      -344.3340    0.3520   46.7020 f         1 CM8     -0.048000
     43 H011      205.8610 -348.1650  330.9220 h1        1 CM8      0.112000
     44 H012      206.5240 -346.4590  330.9130 h1        1 CM8      0.112000
     45 H021       21.3120    5.0740   32.2150 hc        1 CM8      0.066000
     46 H022       19.5180    4.7970   32.2000 hc        1 CM8      0.066000
     47 H023       20.4280    4.9320   30.6360 hc        1 CM8      0.066000
     48 H03        20.6460    3.4700   31.6890 hc        1 CM8      0.066000
     49 H061      207.0100 -341.9010  335.1540 ha        1 CM8      0.149750
     50 H062      205.7740 -339.5660  333.4990 ha        1 CM8      0.149750
     51 H071      206.5800 -339.4440  335.1720 ha        1 CM8      0.149750
     52 H072      206.1840 -342.0400  333.4780 ha        1 CM8      0.149750
     53 H311      210.4900 -344.9410  332.1460 hc        1 CM8      0.150000
     54 H312      209.0290 -345.9490  331.7110 hc        1 CM8      0.150000
     55 H121      209.8060 -346.1440  333.3370 hc        1 CM8      0.150000
     56 H122      207.6250 -344.8500  333.5100 h4        1 CM8      0.192000
     57 H14       202.7870 -344.4950  333.5750 ha        1 CM8      0.158000
     58 H18       203.8760 -345.4030  335.7230 ha        1 CM8      0.169000
     59 H16       203.9610 -347.4940  332.3700 ha        1 CM8      0.153000
     60 H21       204.9340 -342.8940  330.1490 hn        1 CM8      0.245000
     61 H22      -483.7020-1056.0290-1718.6780 ha        1 CM8      0.167500
     62 H231      202.7380 -344.8690  330.6170 h1        1 CM8      0.110500
     63 H232     -483.5120-1056.9760-1720.2830 ha        1 CM8      0.167500
     64 H30       201.9260 -342.4850  330.7700 h1        1 CM8      0.081000
     65 H25       201.9390 -344.2180  327.1280 ha        1 CM8      0.222750
     66 H29      -481.8900-1058.5470-1719.2350 ha        1 CM8      0.202000
     67 H26      -480.4370-1058.2760-1714.4910 ha        1 CM8      0.191000
     68 H27       204.1030 -345.7190  325.1030 ha        1 CM8      0.222750
     69 H28      -481.5340-1056.7660-1714.1860 ha        1 CM8      0.191000
     70 H31       200.6070 -344.0050  329.7640 ho        1 CM8      0.208000
     71 H321     -342.7640    0.4290   50.0960 DU        1 CM8      0.437000
     72 H322      203.5500 -341.2510  329.3920 hc        1 CM8      0.095000
     73 H33       203.1940 -342.2910  327.9370 hc        1 CM8      0.095000
     74 H341     -342.4620    0.6000   51.7640 DU        1 CM8      0.173000
     75 H342     -343.0860    0.8590   51.8260 DU        1 CM8      0.139000
     76 H36        -0.2100  103.5660   38.2400 ha        1 CM8      0.222750
     77 H40      -343.8330    0.0730   49.9040 ha        1 CM8      0.194000
     78 H37      -344.3940    0.3980   46.3290 ha        1 CM8      0.245000
     79 H38        -0.8720  104.6120   41.3170 ha        1 CM8      0.222750
     80 H212      203.4350 -344.5320  328.9630 h1        1 CM8      0.110500
     81 H332      201.9370 -341.1500  328.5650 hc        1 CM8      0.095000
     82 H032      207.0950 -348.4540  332.8060 hn        1 CM8      0.203000
     83 C19       205.0560 -344.2610  331.6520 c2        1 CM8      0.370000
@<TRIPOS>BOND
     1    1   45 1   
     2    1   46 1   
     3    1   47 1   
     4    1   48 1   
     5    2   13 1   
     6    2   41 1   
     7    2   43 1   
     8    2   44 1   
     9    3    4 1   
    10    3   50 1   
    11    3   51 1   
    12    4   49 1   
    13    4   52 1   
    14    5    6 1   
    15    5    7 1   
    16    5    8 1   
    17    8    9 1   
    18    9   36 1   
    19    9   56 1   
    20   10   11 1   
    21   10   15 1   
    22   10   58 1   
    23   11   12 1   
    24   11   57 1   
    25   12   13 1   
    26   12   83 1   
    27   13   59 1   
    28   14   15 1   
    29   14   41 1   
    30   16   83 1   
    31   17   18 1   
    32   17   60 1   
    33   17   83 1   
    34   18   26 1   
    35   18   62 1   
    36   18   80 1   
    37   19   20 1   
    38   19   61 1   
    39   19   63 1   
    40   20   21 1   
    41   20   66 1   
    42   21   22 1   
    43   22   23 1   
    44   23   67 1   
    45   23   69 1   
    46   24   25 1   
    47   24   68 1   
    48   25   65 1   
    49   26   27 1   
    50   26   28 1   
    51   26   64 1   
    52   27   70 1   
    53   28   72 1   
    54   28   73 1   
    55   28   81 1   
    56   29   31 1   
    57   29   71 1   
    58   29   74 1   
    59   30   31 1   
    60   30   71 1   
    61   30   74 1   
    62   30   75 1   
    63   30   77 1   
    64   31   37 1   
    65   31   71 1   
    66   32   33 1   
    67   32   76 1   
    68   33   79 1   
    69   34   37 1   
    70   34   38 1   
    71   34   78 1   
    72   35   37 1   
    73   35   39 1   
    74   35   42 1   
    75   36   53 1   
    76   36   54 1   
    77   36   55 1   
    78   37   38 1   
    79   37   39 1   
    80   38   39 1   
    81   38   42 1   
    82   41   82 1   
    83   74   75 1   
@<TRIPOS>SUBSTRUCTURE
     1 CM8         1 TEMP              0 ****  ****    0 ROOT
