@<TRIPOS>MOLECULE
CM8
   80    76     1     0     0
SMALL
bcc


@<TRIPOS>ATOM
      1 C02        -5.3530   -4.7510    2.5680 c3        1 CM8     -0.226000
      2 C01        -3.8950   -4.3490    2.4450 c3        1 CM8     -0.054000
      3 C06         1.5870   -8.2260   -0.4100 c3        1 CM8     -0.130000
      4 C07         1.3180   -7.6740    0.9800 c3        1 CM8     -0.848000
      5 S08         1.8760   -6.0410    1.0440 s4        1 CM8      2.027800
      6 O10         1.4770   -5.4540    2.2830 o         1 CM8     -0.536900
      7 O09         3.2960   -6.0190    0.9480 o         1 CM8     -0.536900
      8 N11         1.2580   -5.2230   -0.1990 n2        1 CM8     -0.784000
      9 C12         1.4860   -5.8400   -1.4760 c3        1 CM8     -0.022000
     10 C13         0.1280   -4.3740   -0.0040 c2        1 CM8      0.091000
     11 C14         0.2450   -2.9960   -0.2130 c2        1 CM8     -0.174000
     12 C15        -0.8510   -2.1580    0.0190 c1        1 CM8     -0.070000
     13 C16        -2.0700   -2.7000    0.4630 c1        1 CM8     -0.155000
     14 C17        -2.1880   -4.0620    0.6700 c1        1 CM8      0.090000
     15 C18        -1.0820   -4.9120    0.4370 c1        1 CM8     -0.185000
     16 C19        -0.7020   -0.6310   -0.1300 c2        1 CM8      0.346000
     17 O20        -1.6650    0.1000    0.0740 o         1 CM8     -0.387000
     18 N21         0.5040   -0.0840   -0.5980 n         1 CM8     -0.365000
     19 C22         0.5420    1.2940   -1.0910 c3        1 CM8      0.007000
     20 C23        -0.2630    1.3970   -2.3650 c3        1 CM8     -0.148000
     21 C24         0.7090    1.3800   -3.5950 c2        1 CM8     -0.076000
     22 C29         0.5590    0.4130   -4.5830 c2        1 CM8     -0.129000
     23 C28         1.3460    0.4730   -5.7590 c1        1 CM8     -0.132000
     24 C27         2.2700    1.5020   -5.9270 c1        1 CM8     -0.128500
     25 C26         2.4230    2.4840   -4.9230 c1        1 CM8     -0.128500
     26 C25         1.6460    2.4230   -3.7640 c1        1 CM8     -0.134000
     27 C30        -0.0330    2.2170   -0.0540 c3        1 CM8     -0.006000
     28 O31        -1.3420    2.5470   -0.3980 oh        1 CM8     -0.343000
     29 C32         0.8190    3.5000    0.0220 c3        1 CM8     -0.070000
     30 N33         0.2720    4.4020    1.0790 n3        1 CM8     -0.293000
     31 C34         1.2230    5.4030    1.3830 c3        1 CM8     -0.042000
     32 C35         0.5250    6.5890    2.0510 c2        1 CM8     -0.085000
     33 C36        -0.6630    6.3940    2.7600 c2        1 CM8     -0.080000
     34 C37        -1.2380    7.4480    3.4500 c1        1 CM8     -0.139000
     35 C38        -0.6330    8.7000    3.4350 c1        1 CM8     -0.081000
     36 C39         0.5510    8.8950    2.7270 c1        1 CM8     -0.164000
     37 C31         1.0300   -7.3400   -1.5490 c3        1 CM8     -0.189000
     38 C40         1.1270    7.8390    2.0370 c1        1 CM8     -0.078000
     39 C41         1.1880   10.2940    2.8600 c3        1 CM8      0.466000
     40 F44         0.2930   11.2280    2.5140 f         1 CM8     -0.167000
     41 F43         2.2800   10.3820    2.0360 f         1 CM8     -0.167000
     42 N03        -3.4330   -4.6070    1.1060 n3        1 CM8     -0.290000
     43 F42         1.5700   10.4920    4.1270 f         1 CM8     -0.167000
     44 H011       -3.3570   -4.8750    3.0840 h1        1 CM8      0.088500
     45 H012       -3.7960   -3.3690    2.6500 h1        1 CM8      0.088500
     46 H021       -5.5880   -4.8630    3.5360 hc        1 CM8      0.084333
     47 H022       -5.9220   -4.0510    2.1700 hc        1 CM8      0.084333
     48 H023       -5.5040   -5.6280    2.0820 hc        1 CM8      0.084333
     49 H03        -3.9790   -5.0460    0.5070 hn        1 CM8      0.201000
     50 H061        2.5650   -8.3160   -0.5300 hc        1 CM8      0.099500
     51 H062        1.1830   -9.1090   -0.4770 hc        1 CM8      0.099500
     52 H071        0.4360   -7.7890    1.3880 h1        1 CM8      0.157500
     53 H072        1.8670   -8.2310    1.5920 h1        1 CM8      0.157500
     54 H311        1.3360   -7.7230   -2.4250 hc        1 CM8      0.101000
     55 H312        0.0590   -7.3700   -1.5190 hc        1 CM8      0.101000
     56 H121        0.9810   -5.3130   -2.1820 h1        1 CM8      0.099000
     57 H122        2.4580   -5.7960   -1.6810 h1        1 CM8      0.099000
     58 H14         1.0920   -2.6200   -0.5220 ha        1 CM8      0.141000
     59 H18        -1.1680   -5.9040    0.5900 ha        1 CM8      0.165000
     60 H16        -2.8240   -2.1230    0.6230 ha        1 CM8      0.156000
     61 H21         1.2560   -0.5920   -0.6170 hn        1 CM8      0.232000
     62 H22         1.4560    1.5450   -1.2690 h1        1 CM8      0.099000
     63 H231       -0.7650    2.2190   -2.3620 hc        1 CM8      0.114000
     64 H232       -0.8880    0.6270   -2.4270 hc        1 CM8      0.114000
     65 H30        -0.0290    1.7850    0.7910 h1        1 CM8      0.088000
     66 H25         1.7530    3.1100   -3.0600 ha        1 CM8      0.130000
     67 H29        -0.0690   -0.2870   -4.4680 ha        1 CM8      0.136000
     68 H26         3.0780    3.2130   -5.0410 ha        1 CM8      0.132500
     69 H27         2.8290    1.5440   -6.7630 ha        1 CM8      0.132500
     70 H28         1.2420   -0.1980   -6.4450 ha        1 CM8      0.130000
     71 H31        -1.8260    2.6790    0.3540 ho        1 CM8      0.238000
     72 H321        1.7650    3.2600    0.2450 h1        1 CM8      0.096500
     73 H322        0.7950    3.9560   -0.8390 h1        1 CM8      0.096500
     74 H33         0.0910    3.9110    1.8390 hn        1 CM8      0.178000
     75 H341        1.8860    5.0430    1.9830 h1        1 CM8      0.080000
     76 H342        1.6610    5.7050    0.5500 h1        1 CM8      0.080000
     77 H36        -1.0790    5.5330    2.7690 ha        1 CM8      0.155000
     78 H40         1.9630    7.9760    1.5380 ha        1 CM8      0.151000
     79 H37        -2.0640    7.3130    3.9450 ha        1 CM8      0.142000
     80 H38        -1.0330    9.4310    3.9130 ha        1 CM8      0.150000
@<TRIPOS>BOND
     1    1    2 1   
     2    1   46 1   
     3    1   47 1   
     4    1   48 1   
     5    2   42 1   
     6    2   44 1   
     7    2   45 1   
     8    3    4 1   
     9    3   37 1   
    10    3   50 1   
    11    3   51 1   
    12    4    5 1   
    13    4   52 1   
    14    4   53 1   
    15    5    6 1   
    16    5    7 1   
    17    8    9 1   
    18    8   10 1   
    19    9   37 1   
    20    9   56 1   
    21    9   57 1   
    22   10   11 1   
    23   10   15 1   
    24   11   12 1   
    25   11   58 1   
    26   12   16 1   
    27   13   14 1   
    28   13   60 1   
    29   14   42 1   
    30   15   59 1   
    31   16   17 1   
    32   16   18 1   
    33   18   19 1   
    34   18   61 1   
    35   19   20 1   
    36   19   27 1   
    37   19   62 1   
    38   20   21 1   
    39   20   63 1   
    40   20   64 1   
    41   21   22 1   
    42   21   26 1   
    43   22   23 1   
    44   22   67 1   
    45   23   70 1   
    46   24   25 1   
    47   24   69 1   
    48   25   68 1   
    49   26   66 1   
    50   27   28 1   
    51   27   29 1   
    52   27   65 1   
    53   28   71 1   
    54   29   30 1   
    55   29   72 1   
    56   29   73 1   
    57   30   31 1   
    58   30   74 1   
    59   31   32 1   
    60   31   75 1   
    61   31   76 1   
    62   32   33 1   
    63   32   38 1   
    64   33   34 1   
    65   33   77 1   
    66   34   79 1   
    67   35   36 1   
    68   35   80 1   
    69   36   39 1   
    70   37   54 1   
    71   37   55 1   
    72   38   78 1   
    73   39   40 1   
    74   39   41 1   
    75   39   43 1   
    76   42   49 1   
@<TRIPOS>SUBSTRUCTURE
     1 CM8         1 TEMP              0 ****  ****    0 ROOT
