@<TRIPOS>MOLECULE
CM8
   80    83     1     0     0
SMALL
bcc


@<TRIPOS>ATOM
      1 C02        27.4400   -3.8250   34.6850 c3        1 CM8     -0.135100
      2 C01        28.8800   -4.1330   34.3070 c3        1 CM8      0.177800
      3 C06        33.6330   -0.4770   40.7250 c3        1 CM8     -0.052400
      4 C07        32.5860   -1.5630   40.7720 c3        1 CM8     -0.308600
      5 S08        31.1340   -1.1890   39.9240 s6        1 CM8      1.454900
      6 O10        30.4280   -2.3970   39.7520 o         1 CM8     -0.648800
      7 O09        30.4610   -0.1810   40.6320 o         1 CM8     -0.648800
      8 N11        31.7090   -0.6250   38.4940 nh        1 CM8     -0.685900
      9 C12        32.8120    0.3130   38.4810 c3        1 CM8      0.211800
     10 C13        31.0930   -0.8890   37.2480 ca        1 CM8      0.171600
     11 C14        30.8250    0.1680   36.3510 ca        1 CM8     -0.140000
     12 C15        30.2180   -0.1060   35.1280 ca        1 CM8     -0.093600
     13 C16        29.8660   -1.4040   34.7630 ca        1 CM8     -0.173000
     14 C17        30.1280   -2.4770   35.6420 ca        1 CM8      0.160600
     15 C18        30.7430   -2.2030   36.8880 ca        1 CM8     -0.186000
     16 O20        30.8170    1.9460   34.0390 o         1 CM8     -0.612100
     17 N21        28.7450    1.0830   33.5660 n         1 CM8     -0.553900
     18 C22        28.4800    1.9840   32.4690 c3        1 CM8      0.075700
     19 C23        27.6980    1.3000   31.3300 c3        1 CM8     -0.058100
     20 C24        28.4360    0.1440   30.7570 ca        1 CM8     -0.082300
     21 C29        28.2060   -1.1520   31.2340 ca        1 CM8     -0.129000
     22 C28        28.8980   -2.2350   30.6940 ca        1 CM8     -0.126000
     23 C27        29.8250   -2.0330   29.6720 ca        1 CM8     -0.126000
     24 C26        30.0580   -0.7450   29.1910 ca        1 CM8     -0.126000
     25 C25        29.3670    0.3390   29.7300 ca        1 CM8     -0.129000
     26 C30        27.6830    3.2520   32.8930 c3        1 CM8      0.121100
     27 O31        27.5490    4.1080   31.7710 oh        1 CM8     -0.597800
     28 C32        28.3800    3.9700   34.0600 c3        1 CM8      0.120800
     29 N33        27.7670    5.2380   34.4040 n3        1 CM8     -0.812200
     30 C34        28.6360    6.1390   35.1270 c3        1 CM8      0.205100
     31 C35        29.7550    6.7710   34.3440 ca        1 CM8     -0.133300
     32 C36        31.0220    6.1790   34.3100 ca        1 CM8     -0.090000
     33 C37        32.0590    6.7740   33.5900 ca        1 CM8     -0.135000
     34 C38        31.8390    7.9640   32.8980 ca        1 CM8     -0.082000
     35 C39        30.5720    8.5520   32.9300 ca        1 CM8     -0.171300
     36 C31        34.0190   -0.1520   39.2990 c3        1 CM8     -0.110400
     37 C40        29.5310    7.9620   33.6480 ca        1 CM8     -0.076000
     38 C41        30.3210    9.8420   32.1600 c3        1 CM8      0.687200
     39 F44        29.3540   10.6550   32.7000 f         1 CM8     -0.237967
     40 F43        29.9070    9.6510   30.8620 f         1 CM8     -0.237967
     41 N03        29.8900   -3.8150   35.2860 nh        1 CM8     -0.719600
     42 F42        31.4180   10.6610   32.0400 f         1 CM8     -0.237967
     43 H011       28.9740   -5.2410   34.1070 h1        1 CM8      0.056200
     44 H012       29.1310   -3.5980   33.3460 h1        1 CM8      0.056200
     45 H021       27.1410   -4.3690   35.6130 hc        1 CM8      0.044033
     46 H022       27.3000   -2.7300   34.8580 hc        1 CM8      0.044033
     47 H023       26.7650   -4.1440   33.8550 hc        1 CM8      0.044033
     48 H03        29.8550   -4.4200   36.0840 hn        1 CM8      0.400800
     49 H061       33.2380    0.4440   41.2340 hc        1 CM8      0.060200
     50 H062       34.5440   -0.8040   41.2930 hc        1 CM8      0.060200
     51 H071       33.0350   -2.5190   40.3910 h1        1 CM8      0.117700
     52 H072       32.3320   -1.7640   41.8490 h1        1 CM8      0.117700
     53 H311       34.7740    0.6760   39.2920 hc        1 CM8      0.061700
     54 H312       34.4900   -1.0470   38.8160 hc        1 CM8      0.061700
     55 H121       33.1540    0.4900   37.4220 h1        1 CM8      0.063200
     56 H122       32.4490    1.3010   38.8930 h1        1 CM8      0.063200
     57 H14        31.0950    1.2060   36.5980 ha        1 CM8      0.156000
     58 H18        30.9310   -3.0340   37.5910 ha        1 CM8      0.164000
     59 H16        29.4080   -1.5920   33.7780 ha        1 CM8      0.144000
     60 H21        28.1240    0.3160   33.6750 hn        1 CM8      0.313500
     61 H22        29.4760    2.3370   32.0570 h1        1 CM8      0.077700
     62 H231       26.6930    0.9700   31.7070 hc        1 CM8      0.069200
     63 H232       27.5170    2.0780   30.5380 hc        1 CM8      0.069200
     64 H30        26.6240    2.9830   33.1620 h1        1 CM8      0.088700
     65 H25        29.5520    1.3540   29.3480 ha        1 CM8      0.129000
     66 H29        27.4680   -1.3190   32.0340 ha        1 CM8      0.129000
     67 H26        30.7880   -0.5820   28.3840 ha        1 CM8      0.132000
     68 H27        30.3710   -2.8880   29.2460 ha        1 CM8      0.134000
     69 H28        28.7100   -3.2500   31.0730 ha        1 CM8      0.132000
     70 H31        28.4340    4.4100   31.5280 ho        1 CM8      0.401000
     71 H321       28.3150    3.3180   34.9770 h1        1 CM8      0.053200
     72 H322       29.4770    4.0750   33.8020 h1        1 CM8      0.053200
     73 H33        27.3920    5.6820   33.5840 hn        1 CM8      0.370800
     74 H341       27.9780    6.9590   35.5390 h1        1 CM8      0.063700
     75 H342       29.0760    5.5780   36.0010 h1        1 CM8      0.063700
     76 H36        31.2030    5.2370   34.8530 ha        1 CM8      0.151000
     77 H40        28.5390    8.4410   33.6710 ha        1 CM8      0.152000
     78 H37        33.0530    6.3040   33.5680 ha        1 CM8      0.144000
     79 H38        32.6540    8.4430   32.3320 ha        1 CM8      0.150000
     80 C19        29.9730    1.0400   34.2000 c         1 CM8      0.674700
@<TRIPOS>BOND
     1    1    2 1   
     2    1   45 1   
     3    1   46 1   
     4    1   47 1   
     5    2   41 1   
     6    2   43 1   
     7    2   44 1   
     8    3    4 1   
     9    3   36 1   
    10    3   49 1   
    11    3   50 1   
    12    4    5 1   
    13    4   51 1   
    14    4   52 1   
    15    5    6 2   
    16    5    7 2   
    17    5    8 1   
    18    8    9 1   
    19    8   10 1   
    20    9   36 1   
    21    9   55 1   
    22    9   56 1   
    23   10   11 ar  
    24   10   15 ar  
    25   11   12 ar  
    26   11   57 1   
    27   12   13 ar  
    28   12   80 1   
    29   13   14 ar  
    30   13   59 1   
    31   14   15 ar  
    32   14   41 1   
    33   15   58 1   
    34   16   80 2   
    35   17   18 1   
    36   17   60 1   
    37   17   80 1   
    38   18   19 1   
    39   18   26 1   
    40   18   61 1   
    41   19   20 1   
    42   19   62 1   
    43   19   63 1   
    44   20   21 ar  
    45   20   25 ar  
    46   21   22 ar  
    47   21   66 1   
    48   22   23 ar  
    49   22   69 1   
    50   23   24 ar  
    51   23   68 1   
    52   24   25 ar  
    53   24   67 1   
    54   25   65 1   
    55   26   27 1   
    56   26   28 1   
    57   26   64 1   
    58   27   70 1   
    59   28   29 1   
    60   28   71 1   
    61   28   72 1   
    62   29   30 1   
    63   29   73 1   
    64   30   31 1   
    65   30   74 1   
    66   30   75 1   
    67   31   32 ar  
    68   31   37 ar  
    69   32   33 ar  
    70   32   76 1   
    71   33   34 ar  
    72   33   78 1   
    73   34   35 ar  
    74   34   79 1   
    75   35   37 ar  
    76   35   38 1   
    77   36   53 1   
    78   36   54 1   
    79   37   77 1   
    80   38   39 1   
    81   38   40 1   
    82   38   42 1   
    83   41   48 1   
@<TRIPOS>SUBSTRUCTURE
     1 CM8         1 TEMP              0 ****  ****    0 ROOT
