@<TRIPOS>MOLECULE
CM8
   82    79     1     0     0
SMALL
bcc


@<TRIPOS>ATOM
      1 C02         1.0740    1.4720    0.4970 c2        1 CM8     -0.156000
      2 C01         7.3880   -0.9770    4.3240 c3        1 CM8     -0.143000
      3 C06         2.5010   -1.2420    6.5970 c3        1 CM8     -0.194000
      4 C07         1.7710   -1.1170    5.2870 c3        1 CM8     -0.865000
      5 S08         1.6350    0.4750    4.6910 s6        1 CM8      2.789000
      6 O10         0.8190    0.4440    3.5430 o         1 CM8     -0.902500
      7 O09         1.2890    1.3490    5.7250 o         1 CM8     -0.902500
      8 N11         3.2020    0.8170    4.1710 n3        1 CM8     -0.763000
      9 C12         4.1150    1.3000    5.1180 c2        1 CM8     -0.043000
     10 C13         3.4760    0.9500    2.7600 c3        1 CM8      0.091000
     11 C14         3.6040    2.3760    2.2830 c2        1 CM8     -0.179000
     12 C15         3.0210    2.8560    1.1720 c2        1 CM8     -0.043000
     13 C16         2.2130    2.1080    0.2190 c2        1 CM8     -0.217000
     14 C17         5.4460   -0.6100    2.9450 c1        1 CM8      0.008000
     15 C18         4.6970    0.2070    2.2570 c2        1 CM8     -0.001000
     16 O20         4.3470    4.8530    1.1960 o         1 CM8     -0.364000
     17 N21         2.3320    4.9740    0.1030 n         1 CM8     -0.362000
     18 C22         2.4770    6.3520   -0.2650 c3        1 CM8     -0.055000
     19 C23        -1.1790    5.2750    1.4470 c1        1 CM8     -0.171000
     20 C24        -1.1200    5.0120    0.2780 c1        1 CM8     -0.073000
     21 C29        -1.0850    4.7150   -1.0430 c1        1 CM8     -0.105000
     22 C28        -1.0930    4.4460   -2.2130 c1        1 CM8     -0.080000
     23 C27        -1.1440    4.1190   -3.6060 c3        1 CM8     -0.045000
     24 C26         0.1490    4.2230   -4.3310 c2        1 CM8     -0.154000
     25 C25         1.3200    4.5500   -3.7910 c2        1 CM8     -0.226000
     26 C30         1.7630    7.3470    0.6820 c3        1 CM8      0.000000
     27 O31         1.4390    8.5390   -0.0380 oh        1 CM8     -0.378000
     28 C32         2.6680    7.7570    1.8270 c3        1 CM8     -0.222000
     29 N33         0.0220   10.3510    1.9790 n2        1 CM8     -0.156000
     30 C34         0.4750   11.4690    1.5920 c2        1 CM8     -0.075000
     31 C35         1.6100   11.7260    0.6200 c3        1 CM8     -0.232000
     32 C36         4.1970   12.8770    2.8080 c1        1 CM8     -0.226000
     33 C37         4.8520   12.4330    1.9110 c1        1 CM8     -0.226000
     34 C38         1.6250   13.5890   -1.4050 cu        1 CM8      0.084000
     35 C39         0.6600   14.0200   -0.5200 cu        1 CM8     -0.065000
     36 C31         5.3550    1.7710    4.9170 c2        1 CM8     -0.297000
     37 C40         1.3620   12.8390   -0.2390 cu        1 CM8      0.182000
     38 C41        -0.4000   15.0260   -0.1150 c3        1 CM8      0.517000
     39 F44        -1.4680   15.0210   -0.9680 f         1 CM8     -0.105000
     40 F43         0.0790   16.3060   -0.0940 f         1 CM8     -0.105000
     41 N03         6.1980   -1.3970    3.5980 n3        1 CM8     -0.023000
     42 F42        -0.8990   14.7780    1.1340 f         1 CM8     -0.105000
     43 H011        8.2930   -1.1740    3.6860 h1        1 CM8      0.148000
     44 H012        7.3270    0.1180    4.5750 h1        1 CM8      0.148000
     45 H021        7.4540   -1.5800    5.2710 h1        1 CM8      0.148000
     46 H022        0.6210    1.4310    1.5020 ha        1 CM8      0.147000
     47 H023        0.5040    0.9500   -0.2860 ha        1 CM8      0.147000
     48 H03         5.9830   -2.3870    3.6220 hn        1 CM8      0.288000
     49 H061        2.2230   -1.8250    4.5450 h1        1 CM8      0.168000
     50 H062        2.3690   -2.2680    7.0210 hc        1 CM8      0.097667
     51 H071        2.1020   -0.5070    7.3420 hc        1 CM8      0.097667
     52 H072        0.7240   -1.5160    5.4430 h1        1 CM8      0.168000
     53 H311        3.5960   -1.0620    6.4630 hc        1 CM8      0.097667
     54 H312        5.9560    2.1180    5.7690 ha        1 CM8      0.133500
     55 H121        5.8230    1.8950    3.9330 ha        1 CM8      0.133500
     56 H122        3.7040    1.2640    6.1550 h4        1 CM8      0.175000
     57 H14         4.2220    3.0420    2.9130 ha        1 CM8      0.177000
     58 H18         2.6010    0.4630    2.1960 h1        1 CM8      0.177000
     59 H16         4.9320    0.3900    1.1830 ha        1 CM8      0.229000
     60 H21         2.6060    2.1380   -0.8160 ha        1 CM8      0.148000
     61 H22         1.4500    4.5420   -0.0680 hn        1 CM8      0.247000
     62 H231        2.0520    6.4790   -1.3030 h1        1 CM8      0.112000
     63 H232       -1.2490    5.4980    2.4830 ha        1 CM8      0.239000
     64 H30         0.8040    6.8980    1.0760 h1        1 CM8      0.096000
     65 H25         2.2410    4.6050   -4.3860 ha        1 CM8      0.112000
     66 H29         1.4410    4.7810   -2.7240 ha        1 CM8      0.112000
     67 H26        -1.8960    4.7980   -4.1090 hc        1 CM8      0.127500
     68 H27         0.0650    3.9940   -5.4090 ha        1 CM8      0.140000
     69 H28        -1.5360    3.0640   -3.7170 hc        1 CM8      0.127500
     70 H31         0.8480    8.2800   -0.7550 ho        1 CM8      0.214000
     71 H321        2.0800    8.2570    2.6320 hc        1 CM8      0.094333
     72 H322        3.4570    8.4600    1.4670 hc        1 CM8      0.094333
     73 H33         3.1670    6.8490    2.2470 hc        1 CM8      0.094333
     74 H341        0.4230    9.5090    1.6130 hn        1 CM8      0.183000
     75 H342        0.0240   12.3910    2.0190 h4        1 CM8      0.164000
     76 H36         3.6460   13.2730    3.6270 ha        1 CM8      0.231000
     77 H40         2.5530   11.9450    1.2350 hc        1 CM8      0.211500
     78 H37         2.1800   13.7290   -2.3280 ha        1 CM8      0.273000
     79 H38         5.4740   12.0430    1.1420 ha        1 CM8      0.231000
     80 H212        3.5740    6.6120   -0.2980 h1        1 CM8      0.112000
     81 H332        1.8570   10.7960    0.0140 hc        1 CM8      0.211500
     82 C19         3.2860    4.3030    0.8340 c2        1 CM8      0.330000
@<TRIPOS>BOND
     1    1   13 1   
     2    1   46 1   
     3    1   47 1   
     4    2   41 1   
     5    2   43 1   
     6    2   44 1   
     7    2   45 1   
     8    3    4 1   
     9    3   50 1   
    10    3   51 1   
    11    3   53 1   
    12    4    5 1   
    13    4   49 1   
    14    4   52 1   
    15    5    6 1   
    16    5    7 1   
    17    5    8 1   
    18    8    9 1   
    19    8   10 1   
    20    9   36 1   
    21    9   56 1   
    22   10   11 1   
    23   10   15 1   
    24   10   58 1   
    25   11   12 1   
    26   11   57 1   
    27   12   13 1   
    28   12   82 1   
    29   13   60 1   
    30   14   15 1   
    31   14   41 1   
    32   15   59 1   
    33   16   82 1   
    34   17   18 1   
    35   17   61 1   
    36   17   82 1   
    37   18   26 1   
    38   18   62 1   
    39   18   80 1   
    40   19   20 1   
    41   19   63 1   
    42   20   21 1   
    43   21   22 1   
    44   22   23 1   
    45   23   24 1   
    46   23   67 1   
    47   23   69 1   
    48   24   25 1   
    49   24   68 1   
    50   25   65 1   
    51   25   66 1   
    52   26   27 1   
    53   26   28 1   
    54   26   64 1   
    55   27   70 1   
    56   28   71 1   
    57   28   72 1   
    58   28   73 1   
    59   29   30 1   
    60   29   74 1   
    61   30   31 1   
    62   30   75 1   
    63   31   37 1   
    64   31   77 1   
    65   31   81 1   
    66   32   33 1   
    67   32   76 1   
    68   33   79 1   
    69   34   35 1   
    70   34   37 1   
    71   34   78 1   
    72   35   37 1   
    73   35   38 1   
    74   36   54 1   
    75   36   55 1   
    76   38   39 1   
    77   38   40 1   
    78   38   42 1   
    79   41   48 1   
@<TRIPOS>SUBSTRUCTURE
     1 CM8         1 TEMP              0 ****  ****    0 ROOT
