@<TRIPOS>MOLECULE
CM9
   51    49     1     0     0
SMALL
bcc


@<TRIPOS>ATOM
      1 O1          1.4720   -0.5430   -0.1330 o         1 CM9     -0.366000
      2 C8          0.6240   -1.1660    0.4770 c1        1 CM9      0.306000
      3 C9          1.0110   -2.4200    1.2550 c2        1 CM9     -0.114000
      4 C10         1.1500   -2.1320    2.7690 c3        1 CM9     -0.146500
      5 C11         2.3950   -1.3190    3.1110 c3        1 CM9     -0.157000
      6 C12         3.6510   -1.9160    2.5580 c3        1 CM9     -0.105000
      7 C13         4.8390   -0.9090    2.8030 c3        1 CM9     -0.207000
      8 C14         3.5670   -2.2110    1.0970 c3        1 CM9     -0.157000
      9 C15         2.3410   -3.0350    0.7280 c3        1 CM9     -0.146500
     10 N3         -0.7480   -0.7010    0.4880 n3        1 CM9     -0.368000
     11 C7         -1.2810    0.0070   -0.6540 c3        1 CM9      0.010000
     12 C16        -2.6830   -0.4910   -0.9500 c3        1 CM9     -0.155000
     13 C17        -2.6800   -1.2690   -2.2550 c3        1 CM9     -0.273000
     14 S          -4.3020   -1.9780   -2.5310 ss        1 CM9      0.069000
     15 C18        -4.4580   -2.4670   -4.2460 c3        1 CM9     -0.341000
     16 C6         -1.3250    1.4720   -0.3570 c2        1 CM9      0.283000
     17 O2         -1.7310    1.8580    0.7130 o         1 CM9     -0.350000
     18 N2         -0.9870    2.4180   -1.3750 n         1 CM9     -0.317000
     19 C5         -1.1330    3.8390   -1.1210 c2        1 CM9      0.110000
     20 C1         -0.5230    4.4050   -0.0350 c2        1 CM9     -0.208000
     21 C2         -0.6170    5.7760    0.1780 c1        1 CM9     -0.051000
     22 N1         -1.3180    6.5580   -0.6970 n1        1 CM9     -0.156000
     23 C3         -1.9260    5.9950   -1.7800 c1        1 CM9     -0.049000
     24 C4         -1.8340    4.6240   -1.9960 c1        1 CM9     -0.237000
     25 H9          0.2420   -3.0070    1.0680 ha        1 CM9      0.105000
     26 H3         -1.2560   -0.7980    1.2420 hn        1 CM9      0.235000
     27 H101        1.1900   -2.9830    3.2480 hc        1 CM9      0.087250
     28 H102        0.3630   -1.6390    3.0670 hc        1 CM9      0.087250
     29 H151        2.2910   -3.1050   -0.2440 hc        1 CM9      0.087250
     30 H152        2.4430   -3.9350    1.1050 hc        1 CM9      0.087250
     31 H111        2.4770   -1.2620    4.0900 hc        1 CM9      0.090750
     32 H112        2.2910   -0.4190    2.7510 hc        1 CM9      0.090750
     33 H12         3.8380   -2.7420    3.0320 hc        1 CM9      0.083000
     34 H131        4.6320   -0.0530    2.3800 hc        1 CM9      0.074667
     35 H132        4.9620   -0.7770    3.7720 hc        1 CM9      0.074667
     36 H133        5.6670   -1.2770    2.4130 hc        1 CM9      0.074667
     37 H141        3.5370   -1.3670    0.6080 hc        1 CM9      0.090750
     38 H142        4.3650   -2.6990    0.8300 hc        1 CM9      0.090750
     39 H7         -0.7060   -0.1510   -1.4340 h1        1 CM9      0.140000
     40 H161       -3.2900    0.2730   -1.0270 hc        1 CM9      0.111000
     41 H162       -2.9800   -1.0710   -0.2270 hc        1 CM9      0.111000
     42 H171       -2.4590   -0.6680   -2.9900 h1        1 CM9      0.106000
     43 H172       -2.0200   -1.9790   -2.2080 h1        1 CM9      0.106000
     44 H181       -5.3630   -2.8200   -4.4060 h1        1 CM9      0.103667
     45 H182       -3.7930   -3.1620   -4.4500 h1        1 CM9      0.103667
     46 H183       -4.3040   -1.6870   -4.8240 h1        1 CM9      0.103667
     47 H2         -0.7270    2.1240   -2.2070 hn        1 CM9      0.238000
     48 H1         -0.0220    3.8460    0.5900 ha        1 CM9      0.180000
     49 H4         -2.2680    4.2230   -2.7690 ha        1 CM9      0.141000
     50 HA         -0.1810    6.1810    0.9550 ha        1 CM9      0.162000
     51 HB         -2.4300    6.5590   -2.4100 ha        1 CM9      0.159000
@<TRIPOS>BOND
     1    1    2 1   
     2    2   10 1   
     3    3    4 1   
     4    3    9 1   
     5    3   25 1   
     6    4    5 1   
     7    4   27 1   
     8    4   28 1   
     9    5    6 1   
    10    5   31 1   
    11    5   32 1   
    12    6    7 1   
    13    6    8 1   
    14    6   33 1   
    15    7   34 1   
    16    7   35 1   
    17    7   36 1   
    18    8    9 1   
    19    8   37 1   
    20    8   38 1   
    21    9   29 1   
    22    9   30 1   
    23   10   11 1   
    24   10   26 1   
    25   11   12 1   
    26   11   16 1   
    27   11   39 1   
    28   12   13 1   
    29   12   40 1   
    30   12   41 1   
    31   13   14 1   
    32   13   42 1   
    33   13   43 1   
    34   14   15 1   
    35   15   44 1   
    36   15   45 1   
    37   15   46 1   
    38   16   17 1   
    39   16   18 1   
    40   18   19 1   
    41   18   47 1   
    42   19   20 1   
    43   19   24 1   
    44   20   21 1   
    45   20   48 1   
    46   21   50 1   
    47   22   23 1   
    48   23   51 1   
    49   24   49 1   
@<TRIPOS>SUBSTRUCTURE
     1 CM9         1 TEMP              0 ****  ****    0 ROOT
