@<TRIPOS>MOLECULE
CM9
   52    53     1     0     0
SMALL
bcc


@<TRIPOS>ATOM
      1 O1         -0.1080    0.4980   -0.3710 o         1 CM9     -0.417100
      2 C8          0.9630    0.3850    0.2020 c         1 CM9      0.558100
      3 C9          1.2100    0.3530    1.6890 c3        1 CM9     -0.137700
      4 C10         1.6830    1.7190    2.1820 c3        1 CM9     -0.080900
      5 C11         2.3750    1.5960    3.5290 c3        1 CM9     -0.078400
      6 C12         1.8450    0.4260    4.3440 c3        1 CM9     -0.069700
      7 C13         2.4650    0.4200    5.7240 c3        1 CM9     -0.094100
      8 C14         2.1010   -0.9000    3.6360 c3        1 CM9     -0.078400
      9 C15         2.1710   -0.7430    2.1270 c3        1 CM9     -0.080900
     10 N3          2.1930    0.2910   -0.6890 ny        1 CM9     -0.679800
     11 C7          1.9590   -0.4260   -1.9870 c3        1 CM9      0.031500
     12 C16         2.9340    0.0240   -3.0790 c3        1 CM9     -0.109400
     13 C17         2.8140    1.4920   -3.4060 c3        1 CM9     -0.068300
     14 S           3.3090    1.8330   -5.0600 ss        1 CM9     -0.208200
     15 C18         5.0400    2.0500   -4.9520 c3        1 CM9     -0.064000
     16 C6          2.1330   -1.9610   -1.7690 c         1 CM9      0.655100
     17 O2          2.7750   -2.3440   -0.7690 o         1 CM9     -0.601100
     18 N2          1.5610   -2.7640   -2.7130 ns        1 CM9     -0.425100
     19 C5          1.6010   -4.1780   -2.7470 ca        1 CM9      0.064600
     20 C1          2.3630   -4.9550   -1.8560 ca        1 CM9     -0.269800
     21 C2          2.3240   -6.3560   -1.9950 ca        1 CM9      0.426200
     22 N1          1.6030   -7.0020   -2.9280 nb        1 CM9     -0.647000
     23 C3          0.8790   -6.2460   -3.7770 ca        1 CM9      0.426200
     24 C4          0.8380   -4.8440   -3.7360 ca        1 CM9     -0.269800
     25 H9          0.1960    0.1350    2.1480 hc        1 CM9      0.131700
     26 H3          2.5200    1.2420   -0.8930 hn        1 CM9      0.472800
     27 H101        0.7960    2.4010    2.2680 hc        1 CM9      0.054450
     28 H102        2.3920    2.1810    1.4470 hc        1 CM9      0.054450
     29 H151        1.9220   -1.7150    1.6250 hc        1 CM9      0.054450
     30 H152        3.2230   -0.4690    1.8440 hc        1 CM9      0.054450
     31 H111        3.4790    1.4660    3.3760 hc        1 CM9      0.064950
     32 H112        2.2280    2.5490    4.1030 hc        1 CM9      0.064950
     33 H12         0.7310    0.5580    4.4590 hc        1 CM9      0.054700
     34 H131        2.0940   -0.4570    6.3080 hc        1 CM9      0.048367
     35 H132        2.1960    1.3530    6.2740 hc        1 CM9      0.048367
     36 H133        3.5790    0.3570    5.6590 hc        1 CM9      0.048367
     37 H141        1.2860   -1.6220    3.9050 hc        1 CM9      0.064950
     38 H142        3.0670   -1.3470    3.9910 hc        1 CM9      0.064950
     39 H7          0.8980   -0.1900   -2.3090 hx        1 CM9      0.136700
     40 H161        3.9890   -0.2290   -2.7850 hc        1 CM9      0.097200
     41 H162        2.6980   -0.5770   -4.0030 hc        1 CM9      0.097200
     42 H171        1.7440    1.8220   -3.3570 h1        1 CM9      0.075700
     43 H172        3.4050    2.1120   -2.6890 h1        1 CM9      0.075700
     44 H181        5.5690    1.1250   -4.6310 h1        1 CM9      0.077367
     45 H182        5.3700    2.3100   -5.9880 h1        1 CM9      0.077367
     46 H183        5.3230    2.8820   -4.2690 h1        1 CM9      0.077367
     47 H2          1.0590   -2.3320   -3.4610 hn        1 CM9      0.336500
     48 H1          2.9810   -4.5080   -1.0640 ha        1 CM9      0.162500
     49 H4          0.2230   -4.2980   -4.4650 ha        1 CM9      0.162500
     50 HA          2.9120   -6.9970   -1.3100 h4        1 CM9      0.042100
     51 HB          0.2950   -6.8000   -4.5370 h4        1 CM9      0.042100
     52 H32         2.9320   -0.2170   -0.1710 hn        1 CM9      0.472800
@<TRIPOS>BOND
     1    1    2 2   
     2    2    3 1   
     3    2   10 1   
     4    3    4 1   
     5    3    9 1   
     6    3   25 1   
     7    4    5 1   
     8    4   27 1   
     9    4   28 1   
    10    5    6 1   
    11    5   31 1   
    12    5   32 1   
    13    6    7 1   
    14    6    8 1   
    15    6   33 1   
    16    7   34 1   
    17    7   35 1   
    18    7   36 1   
    19    8    9 1   
    20    8   37 1   
    21    8   38 1   
    22    9   29 1   
    23    9   30 1   
    24   10   11 1   
    25   10   26 1   
    26   10   52 1   
    27   11   12 1   
    28   11   16 1   
    29   11   39 1   
    30   12   13 1   
    31   12   40 1   
    32   12   41 1   
    33   13   14 1   
    34   13   42 1   
    35   13   43 1   
    36   14   15 1   
    37   15   44 1   
    38   15   45 1   
    39   15   46 1   
    40   16   17 2   
    41   16   18 1   
    42   18   19 1   
    43   18   47 1   
    44   19   20 ar  
    45   19   24 ar  
    46   20   21 ar  
    47   20   48 1   
    48   21   22 ar  
    49   21   50 1   
    50   22   23 ar  
    51   23   24 ar  
    52   23   51 1   
    53   24   49 1   
@<TRIPOS>SUBSTRUCTURE
     1 CM9         1 TEMP              0 ****  ****    0 ROOT
