@<TRIPOS>MOLECULE
CM9
   53    54     1     0     0
SMALL
bcc


@<TRIPOS>ATOM
      1 O1          0.2250   -0.1530    0.2150 o         1 CM9     -0.419100
      2 C8          1.2390   -0.1130    0.8830 c         1 CM9      0.577100
      3 C9          1.4370    0.2250    2.3380 c3        1 CM9     -0.134700
      4 C10         1.8830    1.6800    2.4880 c3        1 CM9     -0.080900
      5 C11         2.5670    1.8980    3.8260 c3        1 CM9     -0.081900
      6 C12         2.0350    0.9640    4.9010 c3        1 CM9     -0.069700
      7 C13         2.6360    1.3090    6.2470 c3        1 CM9     -0.097100
      8 C14         2.3160   -0.4930    4.5490 c3        1 CM9     -0.081900
      9 C15         2.3900   -0.7240    3.0480 c3        1 CM9     -0.080900
     10 N3          2.5340   -0.4570    0.1110 n4        1 CM9     -0.700800
     11 C7          2.3590   -0.5920   -1.3690 c3        1 CM9      0.046500
     12 C16         3.6690   -0.3760   -2.1570 c3        1 CM9     -0.105400
     13 C17         3.5210    0.6810   -3.2220 c3        1 CM9     -0.069300
     14 S           2.3020    0.3100   -4.4550 ss        1 CM9     -0.251200
     15 C18         3.2240   -0.0760   -5.9100 c3        1 CM9     -0.045000
     16 C6          1.7880   -1.9790   -1.7240 c         1 CM9      0.516100
     17 O2          1.8150   -2.9330   -0.9580 o         1 CM9     -0.387100
     18 N2          1.2010   -2.0920   -3.0830 n4        1 CM9     -0.579200
     19 C5          1.3460   -3.4270   -3.6710 ca        1 CM9     -0.009400
     20 C1          0.2790   -4.3380   -3.6310 ca        1 CM9     -0.230300
     21 C2          0.4690   -5.5940   -4.2510 ca        1 CM9      0.449200
     22 N1          1.6080   -5.9550   -4.8650 nb        1 CM9     -0.586000
     23 C3          2.6200   -5.0660   -4.8910 ca        1 CM9      0.449200
     24 C4          2.5470   -3.7850   -4.3100 ca        1 CM9     -0.230300
     25 H9          0.4080    0.1120    2.8070 hc        1 CM9      0.150700
     26 H3          3.2200    0.2860    0.3020 hn        1 CM9      0.479800
     27 H101        2.5860    1.9690    1.6650 hc        1 CM9      0.050200
     28 H102        0.9800    2.3440    2.4100 hc        1 CM9      0.050200
     29 H151        2.1270   -1.7900    2.8240 hc        1 CM9      0.050200
     30 H152        3.4430   -0.5400    2.7050 hc        1 CM9      0.050200
     31 H111        2.4090    2.9630    4.1450 hc        1 CM9      0.074950
     32 H112        3.6730    1.7440    3.7180 hc        1 CM9      0.074950
     33 H12         0.9180    1.1060    4.9680 hc        1 CM9      0.059700
     34 H131        2.2660    0.5990    7.0270 hc        1 CM9      0.055700
     35 H132        3.7510    1.2490    6.2130 hc        1 CM9      0.055700
     36 H133        2.3450    2.3450    6.5460 hc        1 CM9      0.055700
     37 H141        1.5130   -1.1380    4.9930 hc        1 CM9      0.074950
     38 H142        3.2900   -0.8180    5.0050 hc        1 CM9      0.074950
     39 H7          1.6010    0.2030   -1.6730 hx        1 CM9      0.153700
     40 H161        4.0000   -1.3490   -2.6150 hc        1 CM9      0.098700
     41 H162        4.5090   -0.0610   -1.4740 hc        1 CM9      0.098700
     42 H171        3.2120    1.6610   -2.7710 h1        1 CM9      0.126200
     43 H172        4.5200    0.8520   -3.7050 h1        1 CM9      0.126200
     44 H181        3.7590   -1.0470   -5.8290 h1        1 CM9      0.104700
     45 H182        3.9550    0.7310   -6.1510 h1        1 CM9      0.104700
     46 H183        2.4710   -0.1260   -6.7360 h1        1 CM9      0.104700
     47 H2          0.1950   -1.8770   -3.0100 hn        1 CM9      0.487800
     48 H1         -0.6830   -4.1150   -3.1450 ha        1 CM9      0.161500
     49 H4          3.4110   -3.1090   -4.3730 ha        1 CM9      0.161500
     50 HA         -0.3460   -6.3490   -4.2500 h4        1 CM9      0.075100
     51 HB          3.5430   -5.3980   -5.4100 h4        1 CM9      0.075100
     52 H32         2.9010   -1.3380    0.5050 hn        1 CM9      0.479800
     53 H22         1.6690   -1.3330   -3.7480 hn        1 CM9      0.487800
@<TRIPOS>BOND
     1    1    2 2   
     2    2    3 1   
     3    2   10 1   
     4    3    4 1   
     5    3    9 1   
     6    3   25 1   
     7    4    5 1   
     8    4   27 1   
     9    4   28 1   
    10    5    6 1   
    11    5   31 1   
    12    5   32 1   
    13    6    7 1   
    14    6    8 1   
    15    6   33 1   
    16    7   34 1   
    17    7   35 1   
    18    7   36 1   
    19    8    9 1   
    20    8   37 1   
    21    8   38 1   
    22    9   29 1   
    23    9   30 1   
    24   10   11 1   
    25   10   26 1   
    26   10   52 1   
    27   11   12 1   
    28   11   16 1   
    29   11   39 1   
    30   12   13 1   
    31   12   40 1   
    32   12   41 1   
    33   13   14 1   
    34   13   42 1   
    35   13   43 1   
    36   14   15 1   
    37   15   44 1   
    38   15   45 1   
    39   15   46 1   
    40   16   17 2   
    41   16   18 1   
    42   18   19 1   
    43   18   47 1   
    44   18   53 1   
    45   19   20 ar  
    46   19   24 ar  
    47   20   21 ar  
    48   20   48 1   
    49   21   22 ar  
    50   21   50 1   
    51   22   23 ar  
    52   23   24 ar  
    53   23   51 1   
    54   24   49 1   
@<TRIPOS>SUBSTRUCTURE
     1 CM9         1 TEMP              0 ****  ****    0 ROOT
