@<TRIPOS>MOLECULE
CM9
   52    53     1     0     0
SMALL
bcc


@<TRIPOS>ATOM
      1 O1         -0.0860    0.5240   -0.4190 o         1 CM9     -0.417100
      2 C8          0.9730    0.4000    0.1730 c         1 CM9      0.558100
      3 C9          1.1930    0.3730    1.6650 c3        1 CM9     -0.137700
      4 C10         1.6690    1.7370    2.1600 c3        1 CM9     -0.080900
      5 C11         2.3360    1.6150    3.5190 c3        1 CM9     -0.078400
      6 C12         1.7800    0.4550    4.3300 c3        1 CM9     -0.069700
      7 C13         2.3760    0.4500    5.7220 c3        1 CM9     -0.094100
      8 C14         2.0370   -0.8780    3.6340 c3        1 CM9     -0.078400
      9 C15         2.1350   -0.7290    2.1260 c3        1 CM9     -0.080900
     10 N3          2.2170    0.2850   -0.6940 n4        1 CM9     -0.679800
     11 C7          1.9960   -0.4320   -1.9950 c3        1 CM9      0.031500
     12 C16         2.9980    0.0000   -3.0700 c3        1 CM9     -0.109400
     13 C17         2.9070    1.4700   -3.4020 c3        1 CM9     -0.068300
     14 S           3.4380    1.7980   -5.0470 ss        1 CM9     -0.208200
     15 C18         5.1700    1.9880   -4.9070 c3        1 CM9     -0.064000
     16 C6          2.1420   -1.9690   -1.7700 c         1 CM9      0.655100
     17 O2          2.7590   -2.3580   -0.7570 o         1 CM9     -0.601100
     18 N2          1.5750   -2.7650   -2.7230 n         1 CM9     -0.425100
     19 C5          1.5950   -4.1790   -2.7530 ca        1 CM9      0.064600
     20 C1          2.3280   -4.9660   -1.8450 ca        1 CM9     -0.269800
     21 C2          2.2690   -6.3670   -1.9820 ca        1 CM9      0.426200
     22 N1          1.5570   -7.0030   -2.9270 nb        1 CM9     -0.647000
     23 C3          0.8610   -6.2390   -3.7910 ca        1 CM9      0.426200
     24 C4          0.8410   -4.8370   -3.7550 ca        1 CM9     -0.269800
     25 H9          0.1690    0.1670    2.1070 hc        1 CM9      0.131700
     26 H3          2.9390   -0.2320   -0.1620 hn        1 CM9      0.472800
     27 H101        2.3960    2.1880    1.4350 hc        1 CM9      0.054700
     28 H102        0.7880    2.4280    2.2260 hc        1 CM9      0.054700
     29 H151        3.1950   -0.4670    1.8610 hc        1 CM9      0.054700
     30 H152        1.8870   -1.7020    1.6250 hc        1 CM9      0.054700
     31 H111        2.1870    2.5720    4.0850 hc        1 CM9      0.064950
     32 H112        3.4410    1.4740    3.3880 hc        1 CM9      0.064950
     33 H12         0.6650    0.5980    4.4250 hc        1 CM9      0.054700
     34 H131        3.4890    0.3760    5.6770 hc        1 CM9      0.048367
     35 H132        2.1040    1.3890    6.2630 hc        1 CM9      0.048367
     36 H133        1.9850   -0.4200    6.3040 hc        1 CM9      0.048367
     37 H141        2.9930   -1.3320    4.0090 hc        1 CM9      0.064950
     38 H142        1.2100   -1.5910    3.8920 hc        1 CM9      0.064950
     39 H7          0.9450   -0.1800   -2.3370 hx        1 CM9      0.136700
     40 H161        2.7700   -0.5990   -3.9960 hc        1 CM9      0.097200
     41 H162        4.0430   -0.2680   -2.7560 hc        1 CM9      0.097200
     42 H171        3.4940    2.0820   -2.6750 h1        1 CM9      0.075700
     43 H172        1.8410    1.8160   -3.3740 h1        1 CM9      0.075700
     44 H181        5.6780    1.0560   -4.5750 h1        1 CM9      0.077367
     45 H182        5.4530    2.8170   -4.2210 h1        1 CM9      0.077367
     46 H183        5.5230    2.2410   -5.9380 h1        1 CM9      0.077367
     47 H2          1.0940   -2.3270   -3.4810 hn        1 CM9      0.336500
     48 H1          2.9370   -4.5260   -1.0420 ha        1 CM9      0.162500
     49 H4          0.2480   -4.2830   -4.4960 ha        1 CM9      0.162500
     50 HA          2.8340   -7.0140   -1.2840 h4        1 CM9      0.042100
     51 HB          0.2830   -6.7860   -4.5610 h4        1 CM9      0.042100
     52 H32         2.5620    1.2310   -0.8950 hn        1 CM9      0.472800
@<TRIPOS>BOND
     1    1    2 2   
     2    2    3 1   
     3    2   10 1   
     4    3    4 1   
     5    3    9 1   
     6    3   25 1   
     7    4    5 1   
     8    4   27 1   
     9    4   28 1   
    10    5    6 1   
    11    5   31 1   
    12    5   32 1   
    13    6    7 1   
    14    6    8 1   
    15    6   33 1   
    16    7   34 1   
    17    7   35 1   
    18    7   36 1   
    19    8    9 1   
    20    8   37 1   
    21    8   38 1   
    22    9   29 1   
    23    9   30 1   
    24   10   11 1   
    25   10   26 1   
    26   10   52 1   
    27   11   12 1   
    28   11   16 1   
    29   11   39 1   
    30   12   13 1   
    31   12   40 1   
    32   12   41 1   
    33   13   14 1   
    34   13   42 1   
    35   13   43 1   
    36   14   15 1   
    37   15   44 1   
    38   15   45 1   
    39   15   46 1   
    40   16   17 2   
    41   16   18 1   
    42   18   19 1   
    43   18   47 1   
    44   19   20 ar  
    45   19   24 ar  
    46   20   21 ar  
    47   20   48 1   
    48   21   22 ar  
    49   21   50 1   
    50   22   23 ar  
    51   23   24 ar  
    52   23   51 1   
    53   24   49 1   
@<TRIPOS>SUBSTRUCTURE
     1 CM9         1 TEMP              0 ****  ****    0 ROOT
