@<TRIPOS>MOLECULE
CM9
   51    52     1     0     0
SMALL
bcc


@<TRIPOS>ATOM
      1 O1        -18.6810   -0.6150   68.2770 o         1 CM9     -0.629100
      2 C8        -18.5140   -0.9800   69.4610 c         1 CM9      0.668100
      3 C9        -19.6980   -1.3180   70.3550 c3        1 CM9     -0.131700
      4 C10       -19.8820   -0.2720   71.4460 c3        1 CM9     -0.072400
      5 C11       -20.6510   -0.8280   72.6300 c3        1 CM9     -0.074400
      6 C12       -21.6230   -1.9210   72.2130 c3        1 CM9     -0.066700
      7 C13       -22.4800   -2.3490   73.3840 c3        1 CM9     -0.090100
      8 C14       -20.8780   -3.1150   71.6260 c3        1 CM9     -0.074400
      9 C15       -19.5820   -2.7120   70.9490 c3        1 CM9     -0.072400
     10 N3        -17.2410   -1.0820   69.9860 n         1 CM9     -0.569900
     11 C7        -16.0660   -0.7250   69.2370 c3        1 CM9      0.038700
     12 C16       -14.8970   -0.2620   70.1190 c3        1 CM9     -0.085400
     13 C17       -15.2310    0.9930   70.8810 c3        1 CM9     -0.024300
     14 S         -13.8300    1.7270   71.6620 ss        1 CM9     -0.275200
     15 C18       -13.4560    0.6250   72.9710 c3        1 CM9     -0.048000
     16 C6        -15.5620   -1.9200   68.3720 c         1 CM9      0.644100
     17 O2        -14.5190   -2.5230   68.6730 o         1 CM9     -0.587100
     18 N2        -16.3560   -2.2310   67.2820 n         1 CM9     -0.465100
     19 C5        -16.1410   -3.2470   66.3440 ca        1 CM9      0.103600
     20 C1        -15.0240   -4.1110   66.3610 ca        1 CM9     -0.289300
     21 C2        -14.9200   -5.0920   65.3630 ca        1 CM9      0.412700
     22 N1        -15.8170   -5.2720   64.3760 nb        1 CM9     -0.685000
     23 C3        -16.8790   -4.4430   64.3650 ca        1 CM9      0.412700
     24 C4        -17.0930   -3.4280   65.3060 ca        1 CM9     -0.289300
     25 H9        -20.6050   -1.2980   69.6820 hc        1 CM9      0.091700
     26 H3        -17.1130   -1.4370   70.9030 hn        1 CM9      0.322500
     27 H101      -18.8900    0.1070   71.8060 hc        1 CM9      0.046950
     28 H102      -20.4300    0.6060   71.0130 hc        1 CM9      0.046950
     29 H151      -19.3300   -3.4510   70.1440 hc        1 CM9      0.046950
     30 H152      -18.7500   -2.7360   71.7020 hc        1 CM9      0.046950
     31 H111      -19.9340   -1.2470   73.3840 hc        1 CM9      0.045950
     32 H112      -21.2140    0.0020   73.1310 hc        1 CM9      0.045950
     33 H12       -22.2980   -1.4990   71.4150 hc        1 CM9      0.050700
     34 H131      -21.8440   -2.7140   74.2270 hc        1 CM9      0.036367
     35 H132      -23.0930   -1.4910   73.7510 hc        1 CM9      0.036367
     36 H133      -23.1680   -3.1740   73.0780 hc        1 CM9      0.036367
     37 H141      -20.6480   -3.8570   72.4360 hc        1 CM9      0.045950
     38 H142      -21.5470   -3.6310   70.8890 hc        1 CM9      0.045950
     39 H7        -16.3400    0.1220   68.5330 h1        1 CM9      0.092700
     40 H161      -14.6010   -1.0850   70.8230 hc        1 CM9      0.076700
     41 H162      -14.0190   -0.0810   69.4420 hc        1 CM9      0.076700
     42 H171      -15.6080    1.7850   70.1830 h1        1 CM9      0.073200
     43 H172      -16.0310    0.7920   71.6360 h1        1 CM9      0.073200
     44 H181      -13.1720   -0.3860   72.6010 h1        1 CM9      0.064700
     45 H182      -12.5850    1.0710   73.5070 h1        1 CM9      0.064700
     46 H183      -14.3040    0.5180   73.6820 h1        1 CM9      0.064700
     47 H2        -17.1840   -1.6810   67.1470 hn        1 CM9      0.349500
     48 H1        -14.2440   -4.0300   67.1330 ha        1 CM9      0.163000
     49 H4        -17.9850   -2.7920   65.2300 ha        1 CM9      0.163000
     50 HA        -14.0540   -5.7800   65.3560 h4        1 CM9      0.022100
     51 HB        -17.6050   -4.6040   63.5480 h4        1 CM9      0.022100
@<TRIPOS>BOND
     1    1    2 2   
     2    2    3 1   
     3    2   10 1   
     4    3    4 1   
     5    3    9 1   
     6    3   25 1   
     7    4    5 1   
     8    4   27 1   
     9    4   28 1   
    10    5    6 1   
    11    5   31 1   
    12    5   32 1   
    13    6    7 1   
    14    6    8 1   
    15    6   33 1   
    16    7   34 1   
    17    7   35 1   
    18    7   36 1   
    19    8    9 1   
    20    8   37 1   
    21    8   38 1   
    22    9   29 1   
    23    9   30 1   
    24   10   11 1   
    25   10   26 1   
    26   11   12 1   
    27   11   16 1   
    28   11   39 1   
    29   12   13 1   
    30   12   40 1   
    31   12   41 1   
    32   13   14 1   
    33   13   42 1   
    34   13   43 1   
    35   14   15 1   
    36   15   44 1   
    37   15   45 1   
    38   15   46 1   
    39   16   17 2   
    40   16   18 1   
    41   18   19 1   
    42   18   47 1   
    43   19   20 ar  
    44   19   24 ar  
    45   20   21 ar  
    46   20   48 1   
    47   21   22 ar  
    48   21   50 1   
    49   22   23 ar  
    50   23   24 ar  
    51   23   51 1   
    52   24   49 1   
@<TRIPOS>SUBSTRUCTURE
     1 CM9         1 TEMP              0 ****  ****    0 ROOT
