@<TRIPOS>MOLECULE
CMA
   33    32     1     0     0
SMALL
bcc


@<TRIPOS>ATOM
      1 CA          1.5480   -0.1420    0.4250 c3        1 CMA      0.060500
      2 CB          0.0370   -0.2880    0.1780 c3        1 CMA     -0.056400
      3 O           1.0400    0.9130    2.5410 o         1 CMA     -0.854800
      4 C           1.7510    0.0360    1.9660 c         1 CMA      0.902600
      5 C1          3.0250   -0.8730   -1.3740 c3        1 CMA      0.175800
      6 C2          3.8100   -2.0230   -1.9920 c3        1 CMA     -0.183400
      7 C3          4.3010   -1.6840   -3.4040 c         1 CMA      0.904600
      8 O1          3.5160   -1.1140   -4.2210 o         1 CMA     -0.871300
      9 O2          5.4810   -2.0270   -3.7220 o         1 CMA     -0.871300
     10 N           2.3020   -1.2370   -0.1670 n3        1 CMA     -0.836200
     11 CG         -0.3050   -0.2480   -1.2950 c3        1 CMA     -0.092400
     12 CD         -1.8190   -0.1530   -1.4840 c3        1 CMA      0.181800
     13 NE         -2.2190   -0.2460   -2.8730 nh        1 CMA     -0.850200
     14 CZ         -3.5160    0.2140   -3.2370 c2        1 CMA      0.757100
     15 NH1        -3.6780    0.5680   -4.6250 nh        1 CMA     -0.886800
     16 NH2        -4.5650    0.3030   -2.4490 n2        1 CMA     -0.927100
     17 OXT         2.6150   -0.6610    2.5710 o         1 CMA     -0.854800
     18 HA          1.8600    0.8490   -0.0270 h1        1 CMA      0.017700
     19 HB1        -0.4690    0.5540    0.7210 hc        1 CMA      0.040700
     20 HB2        -0.3270   -1.2490    0.6240 hc        1 CMA      0.040700
     21 H11         3.7410   -0.0150   -1.1970 h1        1 CMA      0.019200
     22 H12         2.2730   -0.5160   -2.1360 h1        1 CMA      0.019200
     23 H21         3.1640   -2.9350   -2.0730 hc        1 CMA      0.022700
     24 H22         4.6880   -2.2820   -1.3480 hc        1 CMA      0.022700
     25 H           2.9290   -1.6160    0.5220 hn        1 CMA      0.374800
     26 HG1         0.0930   -1.1690   -1.7980 hc        1 CMA      0.058700
     27 HG2         0.1920    0.6360   -1.7750 hc        1 CMA      0.058700
     28 HD1        -2.3140   -1.0030   -0.9310 h1        1 CMA      0.030700
     29 HD2        -2.1800    0.8100   -1.0170 h1        1 CMA      0.030700
     30 HE         -1.4830   -0.0210   -3.5100 hn        1 CMA      0.415800
     31 HH11       -4.6390    0.6250   -4.8900 hn        1 CMA      0.379800
     32 HH12       -3.1720   -0.0390   -5.2370 hn        1 CMA      0.379800
     33 HH21       -4.3790    0.1480   -1.4820 hn        1 CMA      0.391400
@<TRIPOS>BOND
     1    1    2 1   
     2    1    4 1   
     3    1   10 1   
     4    1   18 1   
     5    2   11 1   
     6    2   19 1   
     7    2   20 1   
     8    3    4 1   
     9    4   17 1   
    10    5    6 1   
    11    5   10 1   
    12    5   21 1   
    13    5   22 1   
    14    6    7 1   
    15    6   23 1   
    16    6   24 1   
    17    7    8 1   
    18    7    9 1   
    19   10   25 1   
    20   11   12 1   
    21   11   26 1   
    22   11   27 1   
    23   12   13 1   
    24   12   28 1   
    25   12   29 1   
    26   13   14 1   
    27   13   30 1   
    28   14   15 1   
    29   14   16 2   
    30   15   31 1   
    31   15   32 1   
    32   16   33 1   
@<TRIPOS>SUBSTRUCTURE
     1 CMA         1 TEMP              0 ****  ****    0 ROOT
