@<TRIPOS>MOLECULE
CMA
   33    32     1     0     0
SMALL
bcc


@<TRIPOS>ATOM
      1 CA         -1.7180   -0.1070   -0.7330 c3        1 CMA      0.060500
      2 CB         -1.5980    0.2740    0.7510 c3        1 CMA     -0.056400
      3 O          -4.0710   -0.5340   -0.3720 o         1 CMA     -0.854800
      4 C          -3.2260    0.0320   -1.1280 c         1 CMA      0.902600
      5 C1          0.3470   -0.1080   -2.0320 c3        1 CMA      0.175800
      6 C2          1.3090    0.6950   -2.8990 c3        1 CMA     -0.183400
      7 C3          2.6350   -0.0460   -3.1140 c         1 CMA      0.904600
      8 O1          3.1990   -0.6200   -2.1350 o         1 CMA     -0.871300
      9 O2          3.1470   -0.0230   -4.2750 o         1 CMA     -0.871300
     10 N          -0.7980    0.6550   -1.5650 n3        1 CMA     -0.836200
     11 CG         -0.2250   -0.0300    1.3070 c3        1 CMA     -0.092400
     12 CD         -0.2210    0.1350    2.8270 c3        1 CMA      0.181800
     13 NE          1.0990   -0.0120    3.4050 nh        1 CMA     -0.850200
     14 CZ          1.2030   -0.2790    4.7990 c2        1 CMA      0.757100
     15 NH1         2.4340   -0.8980    5.2200 nh        1 CMA     -0.886800
     16 NH2         0.3140    0.0220    5.7220 n2        1 CMA     -0.927100
     17 OXT        -3.5460    0.6640   -2.1750 o         1 CMA     -0.854800
     18 HA         -1.4990   -1.2160   -0.8070 h1        1 CMA      0.017700
     19 HB1        -2.3820   -0.3060    1.3060 hc        1 CMA      0.040700
     20 HB2        -1.8250    1.3630    0.8800 hc        1 CMA      0.040700
     21 H11         0.9150   -0.4730   -1.1280 h1        1 CMA      0.019200
     22 H12         0.0360   -1.0270   -2.6130 h1        1 CMA      0.019200
     23 H21         0.8440    0.9140   -3.8930 hc        1 CMA      0.022700
     24 H22         1.5490    1.6730   -2.4100 hc        1 CMA      0.022700
     25 H          -1.3020    1.0490   -2.3410 hn        1 CMA      0.374800
     26 HG1         0.5310    0.6560    0.8400 hc        1 CMA      0.058700
     27 HG2         0.0670   -1.0800    1.0400 hc        1 CMA      0.058700
     28 HD1        -0.9480   -0.6070    3.2710 h1        1 CMA      0.030700
     29 HD2        -0.5910    1.1680    3.0870 h1        1 CMA      0.030700
     30 HE          1.7320   -0.5170    2.8180 hn        1 CMA      0.415800
     31 HH11        2.5770   -0.8240    6.2060 hn        1 CMA      0.379800
     32 HH12        3.2270   -0.5580    4.7160 hn        1 CMA      0.379800
     33 HH21       -0.5590    0.3520    5.3730 hn        1 CMA      0.391400
@<TRIPOS>BOND
     1    1    2 1   
     2    1    4 1   
     3    1   10 1   
     4    1   18 1   
     5    2   11 1   
     6    2   19 1   
     7    2   20 1   
     8    3    4 1   
     9    4   17 1   
    10    5    6 1   
    11    5   10 1   
    12    5   21 1   
    13    5   22 1   
    14    6    7 1   
    15    6   23 1   
    16    6   24 1   
    17    7    8 1   
    18    7    9 1   
    19   10   25 1   
    20   11   12 1   
    21   11   26 1   
    22   11   27 1   
    23   12   13 1   
    24   12   28 1   
    25   12   29 1   
    26   13   14 1   
    27   13   30 1   
    28   14   15 1   
    29   14   16 2   
    30   15   31 1   
    31   15   32 1   
    32   16   33 1   
@<TRIPOS>SUBSTRUCTURE
     1 CMA         1 TEMP              0 ****  ****    0 ROOT
