@<TRIPOS>MOLECULE
CMB
   54    57     1     0     0
SMALL
bcc


@<TRIPOS>ATOM
      1 C1         -3.8900    3.8800    0.0620 ca        1 CMB     -0.098000
      2 C2         -3.5470    2.7120    0.7160 ca        1 CMB     -0.150000
      3 C3         -2.3430    2.0830    0.3430 ca        1 CMB     -0.024200
      4 C4         -1.5050    2.6470   -0.6910 ca        1 CMB     -0.110800
      5 C5         -1.8870    3.8360   -1.3330 ca        1 CMB     -0.021300
      6 C6         -3.0780    4.4360   -0.9450 ca        1 CMB     -0.162000
      7 N7         -1.7250    0.9290    0.8360 na        1 CMB     -0.034400
      8 C8         -0.5360    0.7340    0.1060 cc        1 CMB     -0.125300
      9 C9         -0.3700    1.7720   -0.8190 cd        1 CMB     -0.142200
     10 C10        -1.0430    4.4210   -2.3990 c3        1 CMB     -0.053800
     11 C11         0.3980   -0.3910    0.3500 c         1 CMB      0.693300
     12 N12         1.2190   -0.7460   -0.7080 n         1 CMB     -0.549900
     13 C13         2.2710   -1.7130   -0.5540 c3        1 CMB      0.131300
     14 C14         3.6050   -1.1390   -0.1570 ca        1 CMB     -0.109300
     15 C17        -2.2850    0.0460    1.8240 c3        1 CMB      0.077600
     16 C18        -3.1060   -1.0870    1.2740 ca        1 CMB     -0.127300
     17 C21        -2.5780   -2.3810    1.2560 ca        1 CMB     -0.095000
     18 C22        -3.3560   -3.4440    0.7990 ca        1 CMB     -0.143000
     19 C23        -4.6560   -3.2220    0.3480 ca        1 CMB     -0.100000
     20 C24        -5.1790   -1.9250    0.3510 ca        1 CMB     -0.147900
     21 C25        -4.4080   -0.8570    0.8190 ca        1 CMB     -0.072000
     22 C26         3.7830   -0.6520    1.1410 ca        1 CMB     -0.113000
     23 C27         5.0270   -0.1430    1.5210 ca        1 CMB      0.021400
     24 C28         6.0970   -0.1170    0.6200 ca        1 CMB     -0.116000
     25 C29         5.9020   -0.6080   -0.6730 ca        1 CMB      0.021400
     26 C30         4.6620   -1.1180   -1.0690 ca        1 CMB     -0.113000
     27 C31        -6.5730   -1.6720   -0.1360 ce        1 CMB      0.651800
     28 N32        -7.3820   -1.0010    0.6280 n2        1 CMB     -0.827100
     29 CL1         5.2500    0.4510    3.0960 cl        1 CMB     -0.082400
     30 CL2         7.1910   -0.5840   -1.7800 cl        1 CMB     -0.082400
     31 O45         0.4340   -1.0220    1.4290 o         1 CMB     -0.623100
     32 N53        -6.8700   -2.2740   -1.3790 nh        1 CMB     -0.956800
     33 HC1        -4.8250    4.3960    0.3320 ha        1 CMB      0.133000
     34 HC6        -3.4000    5.3700   -1.4300 ha        1 CMB      0.132000
     35 HC9         0.4640    1.9220   -1.4980 ha        1 CMB      0.153000
     36 H101       -1.2510    3.9090   -3.3730 hc        1 CMB      0.045700
     37 H102       -1.2520    5.5110   -2.5250 hc        1 CMB      0.045700
     38 H103        0.0410    4.2900   -2.1600 hc        1 CMB      0.045700
     39 H12         1.2790   -0.1330   -1.4870 hn        1 CMB      0.313500
     40 H131        1.9580   -2.4610    0.2330 h1        1 CMB      0.074700
     41 H132        2.3760   -2.2560   -1.5380 h1        1 CMB      0.074700
     42 H171       -1.4320   -0.3740    2.4370 h1        1 CMB      0.086700
     43 H172       -2.9390    0.6700    2.5020 h1        1 CMB      0.086700
     44 H21        -1.5440   -2.5530    1.6020 ha        1 CMB      0.155000
     45 H22        -2.9430   -4.4640    0.7980 ha        1 CMB      0.137000
     46 H23        -5.2700   -4.0680    0.0030 ha        1 CMB      0.144000
     47 H251       -4.8250    0.1620    0.8370 ha        1 CMB      0.149000
     48 H26         2.9380   -0.6770    1.8520 ha        1 CMB      0.161000
     49 H28         7.0770    0.2840    0.9250 ha        1 CMB      0.163000
     50 H30         4.5220   -1.5040   -2.0910 ha        1 CMB      0.161000
     51 H32        -8.3030   -0.8490    0.2750 hn        1 CMB      0.382400
     52 H531       -6.0830   -2.5050   -1.9380 hn        1 CMB      0.398300
     53 H532       -7.6330   -1.8920   -1.8880 hn        1 CMB      0.398300
     54 HC2        -4.1880    2.2890    1.5010 ha        1 CMB      0.140000
@<TRIPOS>BOND
     1    1    2 ar  
     2    1    6 ar  
     3    1   33 1   
     4    2    3 ar  
     5    2   54 1   
     6    3    4 ar  
     7    3    7 1   
     8    4    5 ar  
     9    4    9 1   
    10    5    6 ar  
    11    5   10 1   
    12    6   34 1   
    13    7    8 1   
    14    7   15 1   
    15    8    9 2   
    16    8   11 1   
    17    9   35 1   
    18   10   36 1   
    19   10   37 1   
    20   10   38 1   
    21   11   12 1   
    22   11   31 2   
    23   12   13 1   
    24   12   39 1   
    25   13   14 1   
    26   13   40 1   
    27   13   41 1   
    28   14   22 ar  
    29   14   26 ar  
    30   15   16 1   
    31   15   42 1   
    32   15   43 1   
    33   16   17 ar  
    34   16   21 ar  
    35   17   18 ar  
    36   17   44 1   
    37   18   19 ar  
    38   18   45 1   
    39   19   20 ar  
    40   19   46 1   
    41   20   21 ar  
    42   20   27 1   
    43   21   47 1   
    44   22   23 ar  
    45   22   48 1   
    46   23   24 ar  
    47   23   29 1   
    48   24   25 ar  
    49   24   49 1   
    50   25   26 ar  
    51   25   30 1   
    52   26   50 1   
    53   27   28 2   
    54   27   32 1   
    55   28   51 1   
    56   32   52 1   
    57   32   53 1   
@<TRIPOS>SUBSTRUCTURE
     1 CMB         1 TEMP              0 ****  ****    0 ROOT
