@<TRIPOS>MOLECULE
CMB
   54    44     1     0     0
SMALL
bcc


@<TRIPOS>ATOM
      1 C1         -3.7690   -0.2420   -2.8900 c1        1 CMB     -0.128000
      2 C2         -2.3730   -0.2280   -2.8380 c1        1 CMB     -0.155000
      3 C3         -1.7100   -0.2970   -1.5910 c1        1 CMB      0.021000
      4 C4         -2.4390   -0.3770   -0.4280 c1        1 CMB     -0.098000
      5 C5         -3.8530   -0.3910   -0.4810 c1        1 CMB     -0.011000
      6 C6         -4.5070   -0.3230   -1.7190 c1        1 CMB     -0.128000
      7 N7         -0.3620   -0.3020   -1.2570 n1        1 CMB     -0.128000
      8 C8         -0.2610   -0.3860    0.1190 c1        1 CMB     -0.078000
      9 C9         -1.5380   -0.4330    0.6390 c1        1 CMB     -0.151000
     10 C10        -4.9240   -0.2360    0.6530 c3        1 CMB     -0.180000
     11 C11         0.8810   -0.8450    1.0680 c1        1 CMB      0.369000
     12 N12         0.6880   -0.8210    2.4780 n3        1 CMB     -0.359000
     13 C13         1.6650   -1.4740    3.3630 c3        1 CMB      0.009000
     14 C14         0.9930   -1.8340    4.7110 c2        1 CMB     -0.102000
     15 C17         0.6860   -0.4310   -2.2290 c2        1 CMB      0.012000
     16 C18         1.1700    0.9770   -2.6660 c2        1 CMB     -0.116000
     17 C21         0.7450    2.1190   -1.9610 c2        1 CMB     -0.094000
     18 C22         1.2130    3.3770   -2.3270 c1        1 CMB     -0.141000
     19 C23         2.1040    3.5050   -3.3900 c1        1 CMB     -0.087000
     20 C24         2.5280    2.3660   -4.0920 c1        1 CMB     -0.119000
     21 C25         2.0560    1.1050   -3.7240 c1        1 CMB     -0.097000
     22 C26         1.0610   -0.9440    5.7800 c2        1 CMB     -0.118000
     23 C27         0.4510   -1.2570    6.9840 c1        1 CMB     -0.058000
     24 C28        -0.2310   -2.4590    7.1280 c1        1 CMB     -0.116000
     25 C29        -0.3010   -3.3500    6.0640 c1        1 CMB     -0.056000
     26 C30         0.3120   -3.0370    4.8520 c1        1 CMB     -0.108000
     27 C31         3.4730    2.5130   -5.3110 c2        1 CMB      0.114000
     28 N32         2.9670    2.7400   -6.5230 n1        1 CMB     -0.302000
     29 CL1         0.5630   -0.1500    8.3310 cl        1 CMB     -0.006000
     30 CL2        -1.2150   -4.8140    6.2230 cl        1 CMB     -0.001000
     31 O45         1.9450   -1.1730    0.6130 o         1 CMB     -0.387000
     32 N53         4.8970    2.4040   -5.1340 n3        1 CMB     -0.332000
     33 HC1        -4.2390   -0.1940   -3.7780 ha        1 CMB      0.133000
     34 HC6        -5.4830   -0.3330   -1.7580 ha        1 CMB      0.133000
     35 HC9        -1.7770   -0.4960    1.6130 DU        1 CMB      0.153500
     36 H101       -4.4810   -0.2550    1.5230 hc        1 CMB      0.086000
     37 H102       -5.5780   -0.9870    0.5970 hc        1 CMB      0.086000
     38 H103       -5.3950    0.6160    0.5450 hc        1 CMB      0.086000
     39 H12        -0.0230   -0.4160    2.8220 hn        1 CMB      0.229000
     40 H131        2.4320   -0.8510    3.5280 h1        1 CMB      0.114500
     41 H132        1.9950   -2.2960    2.9340 h1        1 CMB      0.114500
     42 H171        1.4470   -0.9330   -1.8300 ha        1 CMB      0.125000
     43 H172        0.3410   -0.9260   -3.0260 ha        1 CMB      0.125000
     44 H21         0.1150    2.0290   -1.2120 ha        1 CMB      0.157000
     45 H22         0.9110    4.1890   -1.8250 ha        1 CMB      0.139000
     46 H23         2.4370    4.3960   -3.6500 ha        1 CMB      0.150000
     47 H251        2.3490    0.3130   -4.2120 ha        1 CMB      0.141000
     48 H26         1.5340   -0.1100    5.6830 ha        1 CMB      0.149000
     49 H28        -0.6670   -2.6820    7.9910 ha        1 CMB      0.163000
     50 H30         0.2640   -3.6610    4.1060 ha        1 CMB      0.173000
     51 H32         2.0540    2.8090   -6.6370 DU        1 CMB      0.153500
     52 H531        5.2350    2.0350   -4.3630 hn        1 CMB      0.193000
     53 H532        5.4600    2.6220   -5.8210 hn        1 CMB      0.193000
     54 HC2        -1.8480   -0.1700   -3.6730 ha        1 CMB      0.134000
@<TRIPOS>BOND
     1    1    6 1   
     2    1   33 1   
     3    2    3 1   
     4    2   54 1   
     5    4    5 1   
     6    5   10 1   
     7    6   34 1   
     8    7    8 1   
     9    8    9 1   
    10   10   36 1   
    11   10   37 1   
    12   10   38 1   
    13   11   12 1   
    14   11   31 1   
    15   12   13 1   
    16   12   39 1   
    17   13   14 1   
    18   13   40 1   
    19   13   41 1   
    20   14   22 1   
    21   14   26 1   
    22   15   16 1   
    23   15   42 1   
    24   15   43 1   
    25   16   17 1   
    26   16   21 1   
    27   17   18 1   
    28   17   44 1   
    29   18   45 1   
    30   19   20 1   
    31   19   46 1   
    32   20   27 1   
    33   21   47 1   
    34   22   23 1   
    35   22   48 1   
    36   23   29 1   
    37   24   25 1   
    38   24   49 1   
    39   25   30 1   
    40   26   50 1   
    41   27   28 1   
    42   27   32 1   
    43   32   52 1   
    44   32   53 1   
@<TRIPOS>SUBSTRUCTURE
     1 CMB         1 TEMP              0 ****  ****    0 ROOT
