@<TRIPOS>MOLECULE
CMB
   56    59     1     0     0
SMALL
bcc


@<TRIPOS>ATOM
      1 C1          0.4770   -0.4670    0.2290 ca        1 CMB     -0.037000
      2 C2          1.7840   -0.0200    0.2520 ca        1 CMB     -0.183000
      3 C3          2.3580    0.2550    1.5100 ca        1 CMB      0.022800
      4 C4          1.5970    0.0620    2.7290 ca        1 CMB     -0.126800
      5 C5          0.2580   -0.3850    2.6620 ca        1 CMB      0.017700
      6 C6         -0.2770   -0.6430    1.4110 ca        1 CMB     -0.152000
      7 N7          3.6350    0.7080    1.8390 na        1 CMB     -0.036400
      8 C8          3.7130    0.7630    3.2570 cc        1 CMB     -0.230300
      9 C9          2.4670    0.3830    3.8090 cd        1 CMB     -0.045200
     10 C10        -0.5470   -0.5620    3.8900 c3        1 CMB     -0.071800
     11 C11         4.8940    1.1860    3.9630 c         1 CMB      0.586300
     12 N12         4.8970    0.9630    5.4580 n4        1 CMB     -0.671800
     13 C13         5.2360   -0.4630    5.8030 c3        1 CMB      0.180100
     14 C14         5.2960   -0.6500    7.2790 ca        1 CMB     -0.176300
     15 C17         4.7190    0.8490    0.9030 c3        1 CMB      0.076600
     16 C18         4.7390    2.1460    0.1360 ca        1 CMB     -0.103300
     17 C21         5.0800    3.3400    0.7810 ca        1 CMB     -0.056000
     18 C22         5.1800    4.5290    0.0580 ca        1 CMB     -0.107000
     19 C23         4.9490    4.5350   -1.3170 ca        1 CMB     -0.088000
     20 C24         4.6060    3.3410   -1.9640 ca        1 CMB     -0.252900
     21 C25         4.4920    2.1470   -1.2400 ca        1 CMB     -0.072000
     22 C26         4.1900   -1.1700    7.9590 ca        1 CMB     -0.108500
     23 C27         4.2690   -1.3830    9.3400 ca        1 CMB      0.027900
     24 C28         5.4420   -1.0790   10.0400 ca        1 CMB     -0.070000
     25 C29         6.5430   -0.5590    9.3470 ca        1 CMB      0.027900
     26 C30         6.4750   -0.3450    7.9660 ca        1 CMB     -0.108500
     27 C31         4.4370    3.3100   -3.4330 ce        1 CMB      0.582800
     28 N32         5.0700    2.6750   -4.3410 n2        1 CMB     -0.696100
     29 CL1         2.9370   -2.0140   10.1640 cl        1 CMB     -0.018400
     30 CL2         7.9640   -0.1920   10.1810 cl        1 CMB     -0.018400
     31 O45         5.9140    1.7140    3.5240 o         1 CMB     -0.478100
     32 N53         3.3140    4.1980   -3.9020 n4        1 CMB     -0.822600
     33 HC1        -0.0010   -0.7030   -0.7370 ha        1 CMB      0.157000
     34 HC6        -1.3160   -1.0030    1.3250 ha        1 CMB      0.167000
     35 HC9         2.1960    0.3460    4.8640 ha        1 CMB      0.163000
     36 H101       -1.1510    0.3620    4.0850 hc        1 CMB      0.065033
     37 H102       -1.2550   -1.4220    3.7810 hc        1 CMB      0.065033
     38 H103        0.1030   -0.7520    4.7790 hc        1 CMB      0.065033
     39 H12         3.9820    1.2000    5.8540 hn        1 CMB      0.462800
     40 H131        6.2350   -0.6940    5.3290 hx        1 CMB      0.114200
     41 H132        4.4460   -1.1220    5.3380 hx        1 CMB      0.114200
     42 H171        5.6990    0.7610    1.4620 h1        1 CMB      0.092200
     43 H172        4.6540   -0.0130    0.1730 h1        1 CMB      0.092200
     44 H21         5.2950    3.3350    1.8640 ha        1 CMB      0.163000
     45 H22         5.4580    5.4650    0.5710 ha        1 CMB      0.174000
     46 H23         5.0730    5.4720   -1.8820 ha        1 CMB      0.147000
     47 H251        4.2240    1.2100   -1.7540 ha        1 CMB      0.150000
     48 H26         3.2690   -1.4330    7.4150 ha        1 CMB      0.153000
     49 H28         5.5020   -1.2530   11.1300 ha        1 CMB      0.192000
     50 H30         7.3540    0.0420    7.4270 ha        1 CMB      0.153000
     51 H32         5.8340    2.0850   -4.0800 hn        1 CMB      0.493400
     52 H531        3.2550    4.2330   -4.9300 hn        1 CMB      0.473800
     53 H532        3.4760    5.1440   -3.5380 hn        1 CMB      0.473800
     54 HC2         2.3630    0.1080   -0.6710 ha        1 CMB      0.136000
     55 H122        5.6040    1.5790    5.8840 hn        1 CMB      0.462800
     56 H533        2.4320    3.8370   -3.5240 hn        1 CMB      0.473800
@<TRIPOS>BOND
     1    1    2 ar  
     2    1    6 ar  
     3    1   33 1   
     4    2    3 ar  
     5    2   54 1   
     6    3    4 ar  
     7    3    7 1   
     8    4    5 ar  
     9    4    9 1   
    10    5    6 ar  
    11    5   10 1   
    12    6   34 1   
    13    7    8 1   
    14    7   15 1   
    15    8    9 2   
    16    8   11 1   
    17    9   35 1   
    18   10   36 1   
    19   10   37 1   
    20   10   38 1   
    21   11   12 1   
    22   11   31 2   
    23   12   13 1   
    24   12   39 1   
    25   12   55 1   
    26   13   14 1   
    27   13   40 1   
    28   13   41 1   
    29   14   22 ar  
    30   14   26 ar  
    31   15   16 1   
    32   15   42 1   
    33   15   43 1   
    34   16   17 ar  
    35   16   21 ar  
    36   17   18 ar  
    37   17   44 1   
    38   18   19 ar  
    39   18   45 1   
    40   19   20 ar  
    41   19   46 1   
    42   20   21 ar  
    43   20   27 1   
    44   21   47 1   
    45   22   23 ar  
    46   22   48 1   
    47   23   24 ar  
    48   23   29 1   
    49   24   25 ar  
    50   24   49 1   
    51   25   26 ar  
    52   25   30 1   
    53   26   50 1   
    54   27   28 2   
    55   27   32 1   
    56   28   51 1   
    57   32   52 1   
    58   32   53 1   
    59   32   56 1   
@<TRIPOS>SUBSTRUCTURE
     1 CMB         1 TEMP              0 ****  ****    0 ROOT
