@<TRIPOS>MOLECULE
CMB
   56    59     1     0     0
SMALL
bcc


@<TRIPOS>ATOM
      1 C1          0.2460   -0.4960   -0.1620 ca        1 CMB     -0.036000
      2 C2          1.6050   -0.2550   -0.0980 ca        1 CMB     -0.192000
      3 C3          2.1740   -0.0500    1.1770 ca        1 CMB      0.019800
      4 C4          1.3510   -0.1150    2.3700 ca        1 CMB     -0.125800
      5 C5         -0.0370   -0.3540    2.2610 ca        1 CMB      0.018700
      6 C6         -0.5660   -0.5350    0.9930 ca        1 CMB     -0.153000
      7 N7          3.4940    0.1940    1.5520 na        1 CMB     -0.033400
      8 C8          3.5300    0.2540    2.9690 cc        1 CMB     -0.234300
      9 C9          2.2230    0.0750    3.4790 cd        1 CMB     -0.051200
     10 C10        -0.8910   -0.4300    3.4660 c3        1 CMB     -0.072800
     11 C11         4.7470    0.4340    3.7210 c         1 CMB      0.589300
     12 N12         4.6060    0.2070    5.2120 n4        1 CMB     -0.670800
     13 C13         5.9260    0.0800    5.9220 c3        1 CMB      0.181100
     14 C14         5.7150   -0.1450    7.3790 ca        1 CMB     -0.175300
     15 C17         4.6070    0.3080    0.6490 c3        1 CMB      0.077600
     16 C18         4.8790    1.6960    0.1280 ca        1 CMB     -0.111300
     17 C21         5.9690    2.4220    0.6230 ca        1 CMB     -0.060000
     18 C22         6.2710    3.6830    0.1050 ca        1 CMB     -0.110000
     19 C23         5.4900    4.2290   -0.9110 ca        1 CMB     -0.088000
     20 C24         4.4000    3.5030   -1.4090 ca        1 CMB     -0.256900
     21 C25         4.0880    2.2410   -0.8870 ca        1 CMB     -0.069000
     22 C26         5.6340   -1.4510    7.8730 ca        1 CMB     -0.109000
     23 C27         5.4820   -1.6580    9.2490 ca        1 CMB      0.027400
     24 C28         5.4110   -0.5700   10.1280 ca        1 CMB     -0.072000
     25 C29         5.4940    0.7320    9.6190 ca        1 CMB      0.027400
     26 C30         5.6460    0.9500    8.2460 ca        1 CMB     -0.109000
     27 C31         3.5340    4.0870   -2.4560 ce        1 CMB      0.583800
     28 N32         2.3040    4.4280   -2.4410 n2        1 CMB     -0.697100
     29 CL1         5.3870   -3.2330    9.8510 cl        1 CMB     -0.019400
     30 CL2         5.4130    2.0510   10.6710 cl        1 CMB     -0.019400
     31 O45         5.8690    0.7350    3.3200 o         1 CMB     -0.475100
     32 N53         4.2730    4.2990   -3.7520 n4        1 CMB     -0.822600
     33 HC1        -0.2280   -0.6730   -1.1430 ha        1 CMB      0.159000
     34 HC6        -1.6450   -0.7260    0.8740 ha        1 CMB      0.167000
     35 HC9         1.9140    0.0840    4.5240 ha        1 CMB      0.163000
     36 H101       -0.9810   -1.4960    3.8000 hc        1 CMB      0.065700
     37 H102       -0.4630    0.1690    4.3060 hc        1 CMB      0.065700
     38 H103       -1.9210   -0.0490    3.2490 hc        1 CMB      0.065700
     39 H12         4.0570   -0.6470    5.3680 hn        1 CMB      0.461300
     40 H131        6.5100    1.0280    5.7330 hx        1 CMB      0.118700
     41 H132        6.4830   -0.7800    5.4490 hx        1 CMB      0.118700
     42 H171        5.5340   -0.0720    1.1750 h1        1 CMB      0.094700
     43 H172        4.4020   -0.3710   -0.2320 h1        1 CMB      0.094700
     44 H21         6.5960    1.9950    1.4270 ha        1 CMB      0.173000
     45 H22         7.1300    4.2500    0.5030 ha        1 CMB      0.175000
     46 H23         5.7230    5.2350   -1.2950 ha        1 CMB      0.149000
     47 H251        3.2230    1.6760   -1.2720 ha        1 CMB      0.152000
     48 H26         5.7130   -2.3140    7.1940 ha        1 CMB      0.154000
     49 H28         5.2980   -0.7380   11.2150 ha        1 CMB      0.192000
     50 H30         5.7360    1.9780    7.8590 ha        1 CMB      0.154000
     51 H32         1.7810    4.3160   -1.5970 hn        1 CMB      0.490400
     52 H531        4.5460    3.3830   -4.1260 hn        1 CMB      0.474800
     53 H532        3.6950    4.7910   -4.4490 hn        1 CMB      0.474800
     54 HC2         2.2260   -0.2560   -1.0030 ha        1 CMB      0.140000
     55 H122        4.0840    0.9940    5.6160 hn        1 CMB      0.461300
     56 H533        5.1160    4.8490   -3.5570 hn        1 CMB      0.474800
@<TRIPOS>BOND
     1    1    2 ar  
     2    1    6 ar  
     3    1   33 1   
     4    2    3 ar  
     5    2   54 1   
     6    3    4 ar  
     7    3    7 1   
     8    4    5 ar  
     9    4    9 1   
    10    5    6 ar  
    11    5   10 1   
    12    6   34 1   
    13    7    8 1   
    14    7   15 1   
    15    8    9 2   
    16    8   11 1   
    17    9   35 1   
    18   10   36 1   
    19   10   37 1   
    20   10   38 1   
    21   11   12 1   
    22   11   31 2   
    23   12   13 1   
    24   12   39 1   
    25   12   55 1   
    26   13   14 1   
    27   13   40 1   
    28   13   41 1   
    29   14   22 ar  
    30   14   26 ar  
    31   15   16 1   
    32   15   42 1   
    33   15   43 1   
    34   16   17 ar  
    35   16   21 ar  
    36   17   18 ar  
    37   17   44 1   
    38   18   19 ar  
    39   18   45 1   
    40   19   20 ar  
    41   19   46 1   
    42   20   21 ar  
    43   20   27 1   
    44   21   47 1   
    45   22   23 ar  
    46   22   48 1   
    47   23   24 ar  
    48   23   29 1   
    49   24   25 ar  
    50   24   49 1   
    51   25   26 ar  
    52   25   30 1   
    53   26   50 1   
    54   27   28 2   
    55   27   32 1   
    56   28   51 1   
    57   32   52 1   
    58   32   53 1   
    59   32   56 1   
@<TRIPOS>SUBSTRUCTURE
     1 CMB         1 TEMP              0 ****  ****    0 ROOT
