@<TRIPOS>MOLECULE
CMB
   56    59     1     0     0
SMALL
bcc


@<TRIPOS>ATOM
      1 C1          0.2750   -0.5020   -0.1900 ca        1 CMB     -0.036000
      2 C2          1.6320   -0.2530   -0.1150 ca        1 CMB     -0.192000
      3 C3          2.1900   -0.0500    1.1650 ca        1 CMB      0.019800
      4 C4          1.3600   -0.1230    2.3520 ca        1 CMB     -0.125800
      5 C5         -0.0270   -0.3690    2.2310 ca        1 CMB      0.018700
      6 C6         -0.5450   -0.5490    0.9600 ca        1 CMB     -0.153000
      7 N7          3.5060    0.2010    1.5490 na        1 CMB     -0.033400
      8 C8          3.5320    0.2560    2.9670 cc        1 CMB     -0.234300
      9 C9          2.2230    0.0680    3.4670 cd        1 CMB     -0.051200
     10 C10        -0.8890   -0.4550    3.4300 c3        1 CMB     -0.072800
     11 C11         4.7430    0.4410    3.7280 c         1 CMB      0.589300
     12 N12         4.5930    0.2070    5.2160 ny        1 CMB     -0.670800
     13 C13         5.9090    0.0690    5.9320 c3        1 CMB      0.181100
     14 C14         5.6900   -0.1620    7.3870 ca        1 CMB     -0.175300
     15 C17         4.6250    0.3260    0.6540 c3        1 CMB      0.077600
     16 C18         4.8920    1.7170    0.1400 ca        1 CMB     -0.111300
     17 C21         5.9720    2.4490    0.6460 ca        1 CMB     -0.060000
     18 C22         6.2690    3.7140    0.1350 ca        1 CMB     -0.110000
     19 C23         5.4930    4.2570   -0.8870 ca        1 CMB     -0.088000
     20 C24         4.4130    3.5240   -1.3970 ca        1 CMB     -0.256900
     21 C25         4.1060    2.2590   -0.8820 ca        1 CMB     -0.069000
     22 C26         5.5950   -1.4690    7.8750 ca        1 CMB     -0.108500
     23 C27         5.4360   -1.6810    9.2490 ca        1 CMB      0.027400
     24 C28         5.3720   -0.5970   10.1330 ca        1 CMB     -0.072000
     25 C29         5.4680    0.7070    9.6310 ca        1 CMB      0.027400
     26 C30         5.6290    0.9300    8.2590 ca        1 CMB     -0.108500
     27 C31         3.5520    4.1040   -2.4500 ce        1 CMB      0.583800
     28 N32         2.3200    4.4360   -2.4460 n2        1 CMB     -0.697100
     29 Cl1         5.3240   -3.2580    9.8420 cl        1 CMB     -0.019400
     30 Cl2         5.3960    2.0220   10.6880 cl        1 CMB     -0.019400
     31 O45         5.8650    0.7510    3.3350 o         1 CMB     -0.475100
     32 N53         4.3010    4.3250   -3.7390 nz        1 CMB     -0.822600
     33 HC1        -0.1920   -0.6780   -1.1750 ha        1 CMB      0.159000
     34 HC6        -1.6230   -0.7470    0.8320 ha        1 CMB      0.167000
     35 HC9         1.9060    0.0720    4.5100 ha        1 CMB      0.163000
     36 H101       -1.9190   -0.0790    3.2070 hc        1 CMB      0.065700
     37 H102       -0.9750   -1.5230    3.7600 hc        1 CMB      0.065700
     38 H103       -0.4690    0.1430    4.2760 hc        1 CMB      0.065700
     39 H12         4.0390   -0.6450    5.3660 hn        1 CMB      0.461300
     40 H131        6.5000    1.0140    5.7500 hx        1 CMB      0.118700
     41 H132        6.4630   -0.7930    5.4580 hx        1 CMB      0.118700
     42 H171        5.5510   -0.0510    1.1850 h1        1 CMB      0.094700
     43 H172        4.4300   -0.3530   -0.2300 h1        1 CMB      0.094700
     44 H21         6.5940    2.0250    1.4550 ha        1 CMB      0.173000
     45 H22         7.1200    4.2860    0.5410 ha        1 CMB      0.175000
     46 H23         5.7220    5.2650   -1.2660 ha        1 CMB      0.149000
     47 H251        3.2480    1.6890   -1.2750 ha        1 CMB      0.152000
     48 H26         5.6690   -2.3290    7.1910 ha        1 CMB      0.154000
     49 H28         5.2530   -0.7690   11.2180 ha        1 CMB      0.192000
     50 H30         5.7290    1.9590    7.8780 ha        1 CMB      0.154000
     51 H32         1.7900    4.3190   -1.6060 hn        1 CMB      0.490400
     52 H531        3.7260    4.8150   -4.4390 hn        1 CMB      0.474800
     53 H532        4.5850    3.4130   -4.1120 hn        1 CMB      0.474800
     54 HC2         2.2590   -0.2480   -1.0160 ha        1 CMB      0.140000
     55 H122        4.0740    0.9950    5.6230 hn        1 CMB      0.461300
     56 H533        5.1380    4.8820   -3.5350 hn        1 CMB      0.474800
@<TRIPOS>BOND
     1    1    2 ar  
     2    1    6 ar  
     3    1   33 1   
     4    2    3 ar  
     5    2   54 1   
     6    3    4 ar  
     7    3    7 1   
     8    4    5 ar  
     9    4    9 1   
    10    5    6 ar  
    11    5   10 1   
    12    6   34 1   
    13    7    8 1   
    14    7   15 1   
    15    8    9 2   
    16    8   11 1   
    17    9   35 1   
    18   10   36 1   
    19   10   37 1   
    20   10   38 1   
    21   11   12 1   
    22   11   31 2   
    23   12   13 1   
    24   12   39 1   
    25   12   55 1   
    26   13   14 1   
    27   13   40 1   
    28   13   41 1   
    29   14   22 ar  
    30   14   26 ar  
    31   15   16 1   
    32   15   42 1   
    33   15   43 1   
    34   16   17 ar  
    35   16   21 ar  
    36   17   18 ar  
    37   17   44 1   
    38   18   19 ar  
    39   18   45 1   
    40   19   20 ar  
    41   19   46 1   
    42   20   21 ar  
    43   20   27 1   
    44   21   47 1   
    45   22   23 ar  
    46   22   48 1   
    47   23   24 ar  
    48   23   29 1   
    49   24   25 ar  
    50   24   49 1   
    51   25   26 ar  
    52   25   30 1   
    53   26   50 1   
    54   27   28 2   
    55   27   32 1   
    56   28   51 1   
    57   32   52 1   
    58   32   53 1   
    59   32   56 1   
@<TRIPOS>SUBSTRUCTURE
     1 CMB         1 TEMP              0 ****  ****    0 ROOT
