@<TRIPOS>MOLECULE
CME
   21    20     1     0     0
SMALL
bcc


@<TRIPOS>ATOM
      1 N           1.3890   -1.2740   -1.9120 n3        1 CME     -0.881800
      2 CA          0.2870   -0.3400   -2.0900 c3        1 CME      0.011500
      3 CB         -0.0160    0.4880   -0.8580 c3        1 CME      0.034700
      4 SG         -0.8900   -0.3110    0.4610 ss        1 CME     -0.230100
      5 SD          0.4540   -1.3980    1.6640 ss        1 CME     -0.171100
      6 CE          1.0110   -0.2480    2.8740 c3        1 CME     -0.070300
      7 CZ         -0.0700    0.1740    3.8450 c3        1 CME      0.127400
      8 OH          0.4070    1.1230    4.7840 oh        1 CME     -0.610800
      9 C           0.4730    0.6590   -3.2950 c         1 CME      0.890600
     10 O           1.4240    0.4380   -4.0940 o         1 CME     -0.833300
     11 OXT        -0.3510    1.6080   -3.3920 o         1 CME     -0.833300
     12 H           2.2020   -0.7610   -1.6210 hn        1 CME      0.333800
     13 H2          1.6040   -1.6520   -2.8210 hn        1 CME      0.333800
     14 HA         -0.6250   -0.9580   -2.3400 h1        1 CME      0.061700
     15 HB2         0.9000    0.9900   -0.4690 h1        1 CME      0.089700
     16 HB3        -0.7580    1.2830   -1.1630 h1        1 CME      0.089700
     17 HE2         1.8270   -0.7880    3.4190 h1        1 CME      0.073200
     18 HE3         1.4620    0.6530    2.3930 h1        1 CME      0.073200
     19 HZ2        -0.9500    0.5960    3.2850 h1        1 CME      0.057700
     20 HZ3        -0.4110   -0.6930    4.4720 h1        1 CME      0.057700
     21 HH          0.7040    1.8910    4.2830 ho        1 CME      0.395000
@<TRIPOS>BOND
     1    1    2 1   
     2    1   12 1   
     3    1   13 1   
     4    2    3 1   
     5    2    9 1   
     6    2   14 1   
     7    3    4 1   
     8    3   15 1   
     9    3   16 1   
    10    4    5 1   
    11    5    6 1   
    12    6    7 1   
    13    6   17 1   
    14    6   18 1   
    15    7    8 1   
    16    7   19 1   
    17    7   20 1   
    18    8   21 1   
    19    9   10 1   
    20    9   11 1   
@<TRIPOS>SUBSTRUCTURE
     1 CME         1 TEMP              0 ****  ****    0 ROOT
