@<TRIPOS>MOLECULE
CMF
   62    66     1     0     0
SMALL
bcc


@<TRIPOS>ATOM
      1 C24        -0.5070    0.0080   -0.1910 c3        1 CMF      0.048500
      2 C26         0.3280   -1.0440    0.5490 c3        1 CMF      0.114900
      3 O4         -0.1990   -1.3300    1.8380 os        1 CMF     -0.412600
      4 C27        -0.3570   -0.1650    2.6390 c3        1 CMF      0.114900
      5 C25        -1.1680    0.9400    1.9440 c3        1 CMF      0.048500
      6 N2         -0.7010    1.2080    0.6020 n         1 CMF     -0.457800
      7 C23        -0.6110    2.4420   -0.0050 c         1 CMF      0.641100
      8 O3         -0.2230    2.5110   -1.1940 o         1 CMF     -0.643100
      9 C22        -0.8900    3.7610    0.7510 c3        1 CMF     -0.004700
     10 N1         -2.0920    4.4340    0.3830 na        1 CMF     -0.071400
     11 C1         -3.3830    3.9320    0.6620 ca        1 CMF     -0.056200
     12 C6         -3.7940    2.9890    1.6100 ca        1 CMF     -0.137000
     13 C5         -5.1430    2.6650    1.6860 ca        1 CMF     -0.103600
     14 C8         -5.5720    1.5760    2.6610 c         1 CMF      0.910200
     15 O2         -4.6540    0.8800    3.1870 o         1 CMF     -0.831800
     16 O1         -6.8030    1.4220    2.8860 o         1 CMF     -0.831800
     17 C4         -6.0810    3.3180    0.8630 ca        1 CMF     -0.119000
     18 C3         -5.6930    4.2890   -0.0500 ca        1 CMF     -0.123000
     19 C2         -4.3390    4.6130   -0.1720 ca        1 CMF     -0.099800
     20 C7         -3.5810    5.5480   -0.9840 cc        1 CMF     -0.100400
     21 C16        -4.1190    6.4950   -1.9830 c3        1 CMF      0.009500
     22 C17        -4.8220    5.7560   -3.1180 c3        1 CMF     -0.072900
     23 C20        -5.3880    6.7240   -4.1350 c3        1 CMF     -0.074900
     24 C21        -6.3230    7.7240   -3.4860 c3        1 CMF     -0.075400
     25 C19        -5.6330    8.4620   -2.3570 c3        1 CMF     -0.074900
     26 C18        -5.0660    7.5010   -1.3340 c3        1 CMF     -0.072900
     27 C9         -2.2310    5.4000   -0.6480 cd        1 CMF     -0.029300
     28 C10        -1.1160    6.1900   -1.1610 ca        1 CMF     -0.026800
     29 C11        -0.0470    5.5960   -1.8430 ca        1 CMF     -0.116000
     30 C12         0.9900    6.3860   -2.3390 ca        1 CMF     -0.144500
     31 C13         0.9700    7.7680   -2.1620 ca        1 CMF     -0.137000
     32 C14        -0.0940    8.3650   -1.4870 ca        1 CMF     -0.144500
     33 C15        -1.1340    7.5830   -0.9890 ca        1 CMF     -0.116000
     34 H241        0.0060    0.2670   -1.1590 h1        1 CMF      0.079200
     35 H242       -1.5180   -0.4340   -0.4260 h1        1 CMF      0.079200
     36 H261        1.3960   -0.7120    0.6470 h1        1 CMF      0.048450
     37 H262        0.2790   -2.0220    0.0030 h1        1 CMF      0.048450
     38 H271       -0.9200   -0.5240    3.5410 h1        1 CMF      0.048450
     39 H272        0.6570    0.2140    2.9360 h1        1 CMF      0.048450
     40 H251       -1.0910    1.8590    2.5850 h1        1 CMF      0.079200
     41 H252       -2.2560    0.6210    1.9110 h1        1 CMF      0.079200
     42 H221       -0.0150    4.4330    0.5050 h1        1 CMF      0.075200
     43 H222       -0.9190    3.5960    1.8640 h1        1 CMF      0.075200
     44 H6         -3.0910    2.4950    2.2960 ha        1 CMF      0.148000
     45 H4         -7.1400    3.0350    0.9760 ha        1 CMF      0.151000
     46 H3         -6.4400    4.8020   -0.6710 ha        1 CMF      0.114000
     47 H16        -3.2570    7.0740   -2.4300 hc        1 CMF      0.045700
     48 H171       -4.0930    5.0680   -3.6180 hc        1 CMF      0.048700
     49 H172       -5.6460    5.1240   -2.6940 hc        1 CMF      0.048700
     50 H201       -4.5490    7.2720   -4.6390 hc        1 CMF      0.030700
     51 H202       -5.9410    6.1540   -4.9260 hc        1 CMF      0.030700
     52 H211       -6.6830    8.4580   -4.2530 hc        1 CMF      0.032700
     53 H212       -7.2220    7.1870   -3.0840 hc        1 CMF      0.032700
     54 H191       -6.3630    9.1520   -1.8580 hc        1 CMF      0.030700
     55 H192       -4.8060    9.0940   -2.7770 hc        1 CMF      0.030700
     56 H181       -4.5110    8.0740   -0.5460 hc        1 CMF      0.048700
     57 H182       -5.8990    6.9500   -0.8250 hc        1 CMF      0.048700
     58 H11        -0.0320    4.5020   -1.9910 ha        1 CMF      0.159500
     59 H12         1.8250    5.9110   -2.8750 ha        1 CMF      0.124000
     60 H13         1.7900    8.3870   -2.5550 ha        1 CMF      0.119000
     61 H14        -0.1150    9.4560   -1.3470 ha        1 CMF      0.124000
     62 H15        -1.9780    8.0510   -0.4590 ha        1 CMF      0.159500
@<TRIPOS>BOND
     1    1    2 1   
     2    1    6 1   
     3    1   34 1   
     4    1   35 1   
     5    2    3 1   
     6    2   36 1   
     7    2   37 1   
     8    3    4 1   
     9    4    5 1   
    10    4   38 1   
    11    4   39 1   
    12    5    6 1   
    13    5   40 1   
    14    5   41 1   
    15    6    7 1   
    16    7    8 2   
    17    7    9 1   
    18    9   10 1   
    19    9   42 1   
    20    9   43 1   
    21   10   11 1   
    22   10   27 1   
    23   11   12 ar  
    24   11   19 ar  
    25   12   13 ar  
    26   12   44 1   
    27   13   14 1   
    28   13   17 ar  
    29   14   15 1   
    30   14   16 1   
    31   17   18 ar  
    32   17   45 1   
    33   18   19 ar  
    34   18   46 1   
    35   19   20 1   
    36   20   21 1   
    37   20   27 2   
    38   21   22 1   
    39   21   26 1   
    40   21   47 1   
    41   22   23 1   
    42   22   48 1   
    43   22   49 1   
    44   23   24 1   
    45   23   50 1   
    46   23   51 1   
    47   24   25 1   
    48   24   52 1   
    49   24   53 1   
    50   25   26 1   
    51   25   54 1   
    52   25   55 1   
    53   26   56 1   
    54   26   57 1   
    55   27   28 1   
    56   28   29 ar  
    57   28   33 ar  
    58   29   30 ar  
    59   29   58 1   
    60   30   31 ar  
    61   30   59 1   
    62   31   32 ar  
    63   31   60 1   
    64   32   33 ar  
    65   32   61 1   
    66   33   62 1   
@<TRIPOS>SUBSTRUCTURE
     1 CMF         1 TEMP              0 ****  ****    0 ROOT
