@<TRIPOS>MOLECULE
CMF
   62    66     1     0     0
SMALL
bcc


@<TRIPOS>ATOM
      1 C24         0.9750   -1.7680   -4.1230 c3        1 CMF      0.048500
      2 C26         1.4620   -1.6110   -5.5690 c3        1 CMF      0.114900
      3 O4          2.5560   -0.7090   -5.6650 os        1 CMF     -0.412600
      4 C27         2.2740    0.5620   -5.0930 c3        1 CMF      0.114900
      5 C25         1.7580    0.4730   -3.6470 c3        1 CMF      0.048500
      6 N2          0.6890   -0.4890   -3.5010 n         1 CMF     -0.457800
      7 C23        -0.4310   -0.3570   -2.7080 c         1 CMF      0.641100
      8 O3         -1.2560   -1.2980   -2.6550 o         1 CMF     -0.643100
      9 C22        -0.7570    0.9450   -1.9400 c3        1 CMF     -0.005700
     10 N1         -0.6030    0.8740   -0.5240 na        1 CMF     -0.071400
     11 C1          0.6490    0.7360    0.1170 ca        1 CMF     -0.056200
     12 C6          1.9350    1.0190   -0.3530 ca        1 CMF     -0.136000
     13 C5          3.0170    0.7940    0.4890 ca        1 CMF     -0.103600
     14 C8          4.4200    1.0240   -0.0590 c         1 CMF      0.910200
     15 O2          4.5290    1.1930   -1.3100 o         1 CMF     -0.831300
     16 O1          5.3880    1.0260    0.7490 o         1 CMF     -0.831300
     17 C4          2.8130    0.3440    1.8070 ca        1 CMF     -0.119000
     18 C3          1.5400    0.1030    2.3030 ca        1 CMF     -0.123000
     19 C2          0.4330    0.2890    1.4690 ca        1 CMF     -0.099800
     20 C7         -1.0030    0.1480    1.6300 cc        1 CMF     -0.100400
     21 C16        -1.7230   -0.2640    2.8530 c3        1 CMF      0.009500
     22 C17        -1.3270   -1.6760    3.2750 c3        1 CMF     -0.072900
     23 C20        -2.0510   -2.0950    4.5370 c3        1 CMF     -0.074900
     24 C21        -1.8120   -1.1110    5.6640 c3        1 CMF     -0.075400
     25 C19        -2.2020    0.2940    5.2530 c3        1 CMF     -0.074900
     26 C18        -1.4800    0.7220    3.9930 c3        1 CMF     -0.072900
     27 C9         -1.5990    0.4800    0.4080 cd        1 CMF     -0.029300
     28 C10        -3.0290    0.5530    0.1310 ca        1 CMF     -0.026800
     29 C11        -3.6270   -0.2370   -0.8590 ca        1 CMF     -0.116000
     30 C12        -5.0020   -0.1590   -1.0810 ca        1 CMF     -0.144500
     31 C13        -5.7900    0.7050   -0.3220 ca        1 CMF     -0.137000
     32 C14        -5.2000    1.4910    0.6680 ca        1 CMF     -0.144500
     33 C15        -3.8280    1.4180    0.8950 ca        1 CMF     -0.116000
     34 H241        1.7790   -2.2860   -3.5250 h1        1 CMF      0.079200
     35 H242        0.0520   -2.4130   -4.1170 h1        1 CMF      0.079200
     36 H261        1.8700   -2.5870   -5.9410 h1        1 CMF      0.048450
     37 H262        0.6300   -1.2620   -6.2360 h1        1 CMF      0.048450
     38 H271        3.2620    1.0950   -5.0990 h1        1 CMF      0.048450
     39 H272        1.5360    1.1010   -5.7460 h1        1 CMF      0.048450
     40 H251        1.4130    1.5020   -3.3560 h1        1 CMF      0.079200
     41 H252        2.6240    0.1850   -2.9730 h1        1 CMF      0.079200
     42 H221       -1.8410    1.1610   -2.1720 h1        1 CMF      0.075200
     43 H222       -0.1290    1.8030   -2.3080 h1        1 CMF      0.075200
     44 H6          2.1210    1.4140   -1.3610 ha        1 CMF      0.148000
     45 H4          3.7050    0.1980    2.4380 ha        1 CMF      0.151000
     46 H3          1.3970   -0.2310    3.3400 ha        1 CMF      0.114000
     47 H16        -2.8320   -0.2670    2.6330 hc        1 CMF      0.045700
     48 H171       -1.5690   -2.3900    2.4460 hc        1 CMF      0.048700
     49 H172       -0.2180   -1.7160    3.4410 hc        1 CMF      0.048700
     50 H201       -3.1520   -2.1650    4.3310 hc        1 CMF      0.030700
     51 H202       -1.7010   -3.1130    4.8470 hc        1 CMF      0.030700
     52 H211       -2.4020   -1.4190    6.5660 hc        1 CMF      0.032700
     53 H212       -0.7270   -1.1280    5.9490 hc        1 CMF      0.032700
     54 H191       -3.3100    0.3370    5.0840 hc        1 CMF      0.030700
     55 H192       -1.9610    1.0080    6.0830 hc        1 CMF      0.030700
     56 H181       -0.3790    0.7950    4.1900 hc        1 CMF      0.048700
     57 H182       -1.8360    1.7390    3.6830 hc        1 CMF      0.048700
     58 H11        -3.0060   -0.9280   -1.4570 ha        1 CMF      0.159500
     59 H12        -5.4630   -0.7840   -1.8590 ha        1 CMF      0.124000
     60 H13        -6.8730    0.7640   -0.5000 ha        1 CMF      0.119000
     61 H14        -5.8180    2.1720    1.2710 ha        1 CMF      0.124000
     62 H15        -3.3600    2.0340    1.6790 ha        1 CMF      0.159500
@<TRIPOS>BOND
     1    1    2 1   
     2    1    6 1   
     3    1   34 1   
     4    1   35 1   
     5    2    3 1   
     6    2   36 1   
     7    2   37 1   
     8    3    4 1   
     9    4    5 1   
    10    4   38 1   
    11    4   39 1   
    12    5    6 1   
    13    5   40 1   
    14    5   41 1   
    15    6    7 1   
    16    7    8 2   
    17    7    9 1   
    18    9   10 1   
    19    9   42 1   
    20    9   43 1   
    21   10   11 1   
    22   10   27 1   
    23   11   12 ar  
    24   11   19 ar  
    25   12   13 ar  
    26   12   44 1   
    27   13   14 1   
    28   13   17 ar  
    29   14   15 1   
    30   14   16 1   
    31   17   18 ar  
    32   17   45 1   
    33   18   19 ar  
    34   18   46 1   
    35   19   20 1   
    36   20   21 1   
    37   20   27 2   
    38   21   22 1   
    39   21   26 1   
    40   21   47 1   
    41   22   23 1   
    42   22   48 1   
    43   22   49 1   
    44   23   24 1   
    45   23   50 1   
    46   23   51 1   
    47   24   25 1   
    48   24   52 1   
    49   24   53 1   
    50   25   26 1   
    51   25   54 1   
    52   25   55 1   
    53   26   56 1   
    54   26   57 1   
    55   27   28 1   
    56   28   29 ar  
    57   28   33 ar  
    58   29   30 ar  
    59   29   58 1   
    60   30   31 ar  
    61   30   59 1   
    62   31   32 ar  
    63   31   60 1   
    64   32   33 ar  
    65   32   61 1   
    66   33   62 1   
@<TRIPOS>SUBSTRUCTURE
     1 CMF         1 TEMP              0 ****  ****    0 ROOT
