@<TRIPOS>MOLECULE
CMF
   62    66     1     0     0
SMALL
bcc


@<TRIPOS>ATOM
      1 C24        -0.5170    0.0090   -0.1750 c3        1 CMF      0.048500
      2 C26         0.3150   -1.0430    0.5680 c3        1 CMF      0.114900
      3 O4         -0.2160   -1.3260    1.8560 os        1 CMF     -0.412600
      4 C27        -0.3730   -0.1600    2.6550 c3        1 CMF      0.114900
      5 C25        -1.1800    0.9470    1.9570 c3        1 CMF      0.048500
      6 N2         -0.7100    1.2110    0.6150 n         1 CMF     -0.457800
      7 C23        -0.6140    2.4440    0.0080 c         1 CMF      0.641100
      8 O3         -0.2220    2.5110   -1.1800 o         1 CMF     -0.643100
      9 C22        -0.8930    3.7650    0.7600 c3        1 CMF     -0.005700
     10 N1         -2.0930    4.4390    0.3890 na        1 CMF     -0.071400
     11 C1         -3.3850    3.9370    0.6640 ca        1 CMF     -0.056200
     12 C6         -3.8000    2.9970    1.6130 ca        1 CMF     -0.136000
     13 C5         -5.1490    2.6730    1.6850 ca        1 CMF     -0.103600
     14 C8         -5.5810    1.5870    2.6620 c         1 CMF      0.910200
     15 O2         -4.6650    0.8910    3.1910 o         1 CMF     -0.831300
     16 O1         -6.8130    1.4330    2.8830 o         1 CMF     -0.831300
     17 C4         -6.0830    3.3230    0.8560 ca        1 CMF     -0.119000
     18 C3         -5.6930    4.2910   -0.0590 ca        1 CMF     -0.123000
     19 C2         -4.3380    4.6150   -0.1770 ca        1 CMF     -0.099800
     20 C7         -3.5770    5.5470   -0.9890 cc        1 CMF     -0.100400
     21 C16        -4.1120    6.4910   -1.9940 c3        1 CMF      0.009500
     22 C17        -4.8100    5.7470   -3.1280 c3        1 CMF     -0.072900
     23 C20        -5.3720    6.7120   -4.1510 c3        1 CMF     -0.074900
     24 C21        -6.3100    7.7130   -3.5100 c3        1 CMF     -0.075400
     25 C19        -5.6250    8.4560   -2.3810 c3        1 CMF     -0.074900
     26 C18        -5.0620    7.4980   -1.3520 c3        1 CMF     -0.072900
     27 C9         -2.2280    5.4010   -0.6470 cd        1 CMF     -0.029300
     28 C10        -1.1120    6.1900   -1.1580 ca        1 CMF     -0.026800
     29 C11        -0.0400    5.5950   -1.8340 ca        1 CMF     -0.116000
     30 C12         0.9990    6.3830   -2.3290 ca        1 CMF     -0.144500
     31 C13         0.9780    7.7660   -2.1560 ca        1 CMF     -0.137000
     32 C14        -0.0900    8.3650   -1.4860 ca        1 CMF     -0.144500
     33 C15        -1.1310    7.5830   -0.9900 ca        1 CMF     -0.116000
     34 H241       -1.5280   -0.4300   -0.4120 h1        1 CMF      0.079200
     35 H242       -0.0020    0.2660   -1.1430 h1        1 CMF      0.079200
     36 H261        0.2640   -2.0220    0.0230 h1        1 CMF      0.048450
     37 H262        1.3830   -0.7140    0.6670 h1        1 CMF      0.048450
     38 H271       -0.9400   -0.5160    3.5570 h1        1 CMF      0.048450
     39 H272        0.6410    0.2170    2.9540 h1        1 CMF      0.048450
     40 H251       -1.1020    1.8670    2.5970 h1        1 CMF      0.079200
     41 H252       -2.2690    0.6300    1.9220 h1        1 CMF      0.079200
     42 H221       -0.0160    4.4350    0.5160 h1        1 CMF      0.075200
     43 H222       -0.9250    3.6020    1.8730 h1        1 CMF      0.075200
     44 H6         -3.1000    2.5080    2.3040 ha        1 CMF      0.148000
     45 H4         -7.1430    3.0390    0.9650 ha        1 CMF      0.151000
     46 H3         -6.4380    4.8010   -0.6850 ha        1 CMF      0.114000
     47 H16        -3.2480    7.0680   -2.4390 hc        1 CMF      0.045700
     48 H171       -4.0780    5.0570   -3.6230 hc        1 CMF      0.048700
     49 H172       -5.6350    5.1160   -2.7060 hc        1 CMF      0.048700
     50 H201       -5.9210    6.1380   -4.9430 hc        1 CMF      0.030700
     51 H202       -4.5310    7.2580   -4.6540 hc        1 CMF      0.030700
     52 H211       -7.2110    7.1770   -3.1100 hc        1 CMF      0.032700
     53 H212       -6.6670    8.4440   -4.2800 hc        1 CMF      0.032700
     54 H191       -4.7970    9.0860   -2.7990 hc        1 CMF      0.030700
     55 H192       -6.3570    9.1470   -1.8870 hc        1 CMF      0.030700
     56 H181       -5.8970    6.9490   -0.8440 hc        1 CMF      0.048700
     57 H182       -4.5100    8.0750   -0.5640 hc        1 CMF      0.048700
     58 H11        -0.0250    4.5000   -1.9800 ha        1 CMF      0.159500
     59 H12         1.8350    5.9070   -2.8610 ha        1 CMF      0.124000
     60 H13         1.7980    8.3840   -2.5470 ha        1 CMF      0.119000
     61 H14        -0.1120    9.4550   -1.3490 ha        1 CMF      0.124000
     62 H15        -1.9770    8.0530   -0.4650 ha        1 CMF      0.159500
@<TRIPOS>BOND
     1    1    2 1   
     2    1    6 1   
     3    1   34 1   
     4    1   35 1   
     5    2    3 1   
     6    2   36 1   
     7    2   37 1   
     8    3    4 1   
     9    4    5 1   
    10    4   38 1   
    11    4   39 1   
    12    5    6 1   
    13    5   40 1   
    14    5   41 1   
    15    6    7 1   
    16    7    8 2   
    17    7    9 1   
    18    9   10 1   
    19    9   42 1   
    20    9   43 1   
    21   10   11 1   
    22   10   27 1   
    23   11   12 ar  
    24   11   19 ar  
    25   12   13 ar  
    26   12   44 1   
    27   13   14 1   
    28   13   17 ar  
    29   14   15 1   
    30   14   16 1   
    31   17   18 ar  
    32   17   45 1   
    33   18   19 ar  
    34   18   46 1   
    35   19   20 1   
    36   20   21 1   
    37   20   27 2   
    38   21   22 1   
    39   21   26 1   
    40   21   47 1   
    41   22   23 1   
    42   22   48 1   
    43   22   49 1   
    44   23   24 1   
    45   23   50 1   
    46   23   51 1   
    47   24   25 1   
    48   24   52 1   
    49   24   53 1   
    50   25   26 1   
    51   25   54 1   
    52   25   55 1   
    53   26   56 1   
    54   26   57 1   
    55   27   28 1   
    56   28   29 ar  
    57   28   33 ar  
    58   29   30 ar  
    59   29   58 1   
    60   30   31 ar  
    61   30   59 1   
    62   31   32 ar  
    63   31   60 1   
    64   32   33 ar  
    65   32   61 1   
    66   33   62 1   
@<TRIPOS>SUBSTRUCTURE
     1 CMF         1 TEMP              0 ****  ****    0 ROOT
