@<TRIPOS>MOLECULE
CMF
   62    66     1     0     0
SMALL
bcc


@<TRIPOS>ATOM
      1 C24        -0.5180    0.0080   -0.2080 c3        1 CMF      0.048500
      2 C26         0.3190   -1.0480    0.5230 c3        1 CMF      0.114900
      3 O4         -0.1980   -1.3340    1.8160 os        1 CMF     -0.412600
      4 C27        -0.3450   -0.1700    2.6190 c3        1 CMF      0.114900
      5 C25        -1.1580    0.9400    1.9330 c3        1 CMF      0.048500
      6 N2         -0.7010    1.2080    0.5870 n         1 CMF     -0.457800
      7 C23        -0.6100    2.4420   -0.0180 c         1 CMF      0.641100
      8 O3         -0.2290    2.5120   -1.2100 o         1 CMF     -0.643100
      9 C22        -0.8800    3.7620    0.7410 c3        1 CMF     -0.005700
     10 N1         -2.0830    4.4380    0.3840 na        1 CMF     -0.071400
     11 C1         -3.3730    3.9360    0.6710 ca        1 CMF     -0.056200
     12 C6         -3.7780    2.9940    1.6230 ca        1 CMF     -0.136000
     13 C5         -5.1270    2.6700    1.7070 ca        1 CMF     -0.103600
     14 C8         -5.5490    1.5820    2.6860 c         1 CMF      0.910200
     15 O2         -4.6280    0.8840    3.2040 o         1 CMF     -0.831300
     16 O1         -6.7790    1.4290    2.9200 o         1 CMF     -0.831300
     17 C4         -6.0690    3.3220    0.8880 ca        1 CMF     -0.119000
     18 C3         -5.6870    4.2920   -0.0280 ca        1 CMF     -0.123000
     19 C2         -4.3330    4.6150   -0.1590 ca        1 CMF     -0.099800
     20 C7         -3.5800    5.5490   -0.9770 cc        1 CMF     -0.100400
     21 C16        -4.1250    6.4950   -1.9740 c3        1 CMF      0.009500
     22 C17        -4.8340    5.7540   -3.1030 c3        1 CMF     -0.072900
     23 C20        -5.4060    6.7210   -4.1190 c3        1 CMF     -0.074900
     24 C21        -6.3380    7.7210   -3.4660 c3        1 CMF     -0.075400
     25 C19        -5.6410    8.4610   -2.3420 c3        1 CMF     -0.074900
     26 C18        -5.0680    7.5020   -1.3210 c3        1 CMF     -0.072900
     27 C9         -2.2280    5.4010   -0.6490 cd        1 CMF     -0.029300
     28 C10        -1.1170    6.1910   -1.1690 ca        1 CMF     -0.026800
     29 C11        -0.0520    5.5970   -1.8570 ca        1 CMF     -0.116000
     30 C12         0.9820    6.3860   -2.3610 ca        1 CMF     -0.144500
     31 C13         0.9630    7.7690   -2.1840 ca        1 CMF     -0.137000
     32 C14        -0.0970    8.3660   -1.5030 ca        1 CMF     -0.144500
     33 C15        -1.1330    7.5840   -0.9970 ca        1 CMF     -0.116000
     34 H241       -0.0130    0.2660   -1.1810 h1        1 CMF      0.079200
     35 H242       -1.5330   -0.4300   -0.4360 h1        1 CMF      0.079200
     36 H261        1.3890   -0.7200    0.6120 h1        1 CMF      0.048450
     37 H262        0.2620   -2.0260   -0.0240 h1        1 CMF      0.048450
     38 H271       -0.9030   -0.5270    3.5260 h1        1 CMF      0.048450
     39 H272        0.6720    0.2050    2.9090 h1        1 CMF      0.048450
     40 H251       -2.2480    0.6250    1.9090 h1        1 CMF      0.079200
     41 H252       -1.0720    1.8580    2.5740 h1        1 CMF      0.079200
     42 H221       -0.9000    3.5950    1.8540 h1        1 CMF      0.075200
     43 H222       -0.0050    4.4310    0.4890 h1        1 CMF      0.075200
     44 H6         -3.0720    2.5030    2.3060 ha        1 CMF      0.148000
     45 H4         -7.1270    3.0390    1.0080 ha        1 CMF      0.151000
     46 H3         -6.4380    4.8030   -0.6460 ha        1 CMF      0.114000
     47 H16        -3.2650    7.0730   -2.4270 hc        1 CMF      0.045700
     48 H171       -5.6550    5.1220   -2.6740 hc        1 CMF      0.048700
     49 H172       -4.1070    5.0650   -3.6070 hc        1 CMF      0.048700
     50 H201       -4.5700    7.2680   -4.6280 hc        1 CMF      0.030700
     51 H202       -5.9630    6.1490   -4.9060 hc        1 CMF      0.030700
     52 H211       -7.2340    7.1840   -3.0580 hc        1 CMF      0.032700
     53 H212       -6.7020    8.4540   -4.2310 hc        1 CMF      0.032700
     54 H191       -4.8170    9.0920   -2.7680 hc        1 CMF      0.030700
     55 H192       -6.3680    9.1510   -1.8400 hc        1 CMF      0.030700
     56 H181       -4.5080    8.0760   -0.5370 hc        1 CMF      0.048700
     57 H182       -5.8980    6.9510   -0.8060 hc        1 CMF      0.048700
     58 H11        -0.0390    4.5020   -2.0060 ha        1 CMF      0.159500
     59 H12         1.8130    5.9110   -2.9020 ha        1 CMF      0.124000
     60 H13         1.7800    8.3870   -2.5820 ha        1 CMF      0.119000
     61 H14        -0.1170    9.4560   -1.3630 ha        1 CMF      0.124000
     62 H15        -1.9740    8.0530   -0.4630 ha        1 CMF      0.159500
@<TRIPOS>BOND
     1    1    2 1   
     2    1    6 1   
     3    1   34 1   
     4    1   35 1   
     5    2    3 1   
     6    2   36 1   
     7    2   37 1   
     8    3    4 1   
     9    4    5 1   
    10    4   38 1   
    11    4   39 1   
    12    5    6 1   
    13    5   40 1   
    14    5   41 1   
    15    6    7 1   
    16    7    8 2   
    17    7    9 1   
    18    9   10 1   
    19    9   42 1   
    20    9   43 1   
    21   10   11 1   
    22   10   27 1   
    23   11   12 ar  
    24   11   19 ar  
    25   12   13 ar  
    26   12   44 1   
    27   13   14 1   
    28   13   17 ar  
    29   14   15 1   
    30   14   16 1   
    31   17   18 ar  
    32   17   45 1   
    33   18   19 ar  
    34   18   46 1   
    35   19   20 1   
    36   20   21 1   
    37   20   27 2   
    38   21   22 1   
    39   21   26 1   
    40   21   47 1   
    41   22   23 1   
    42   22   48 1   
    43   22   49 1   
    44   23   24 1   
    45   23   50 1   
    46   23   51 1   
    47   24   25 1   
    48   24   52 1   
    49   24   53 1   
    50   25   26 1   
    51   25   54 1   
    52   25   55 1   
    53   26   56 1   
    54   26   57 1   
    55   27   28 1   
    56   28   29 ar  
    57   28   33 ar  
    58   29   30 ar  
    59   29   58 1   
    60   30   31 ar  
    61   30   59 1   
    62   31   32 ar  
    63   31   60 1   
    64   32   33 ar  
    65   32   61 1   
    66   33   62 1   
@<TRIPOS>SUBSTRUCTURE
     1 CMF         1 TEMP              0 ****  ****    0 ROOT
