@<TRIPOS>MOLECULE
CMG
   35    30     1     0     0
SMALL
bcc


@<TRIPOS>ATOM
      1 N1          2.3200   -0.1630   -0.5870 n1        1 CMG     -0.313000
      2 C2          3.6850   -0.1630   -0.5870 c1        1 CMG      0.197000
      3 N3          4.3680   -0.1630    0.5940 n1        1 CMG     -0.255000
      4 C4          3.6890   -0.1630    1.7750 c1        1 CMG     -0.072500
      5 C5          2.3400   -0.1630    1.7770 c1        1 CMG     -0.072500
      6 C6          1.6480   -0.1630    0.5760 c1        1 CMG      0.262000
      7 O6          0.4340   -0.8360    0.3550 os        1 CMG     -0.179000
      8 C9         -0.5770   -0.0230   -0.1950 c3        1 CMG     -0.013000
      9 N7          1.9220   -0.1630    3.0700 n1        1 CMG     -0.153500
     10 C8          3.0170   -0.1630    3.8640 c1        1 CMG     -0.070000
     11 N9          4.1100   -0.1630    3.0690 n1        1 CMG     -0.153500
     12 N2          4.9170   -0.2370   -1.2900 n3        1 CMG     -0.324000
     13 C10        -1.8450   -0.8520   -0.3920 c3        1 CMG     -0.108000
     14 C11        -2.9520   -0.2630    0.4620 c3        1 CMG     -0.152000
     15 C12        -3.4090    1.0900   -0.0370 c3        1 CMG     -0.157000
     16 C13        -3.7610    1.0760   -1.5140 c3        1 CMG     -0.156000
     17 C14        -2.6550    0.4870   -2.3680 c3        1 CMG     -0.157000
     18 C15        -2.1980   -0.8660   -1.8690 c3        1 CMG     -0.152000
     19 H92        -0.2800    0.3260   -1.0570 h1        1 CMG      0.095000
     20 H91        -0.7640    0.7190    0.4100 h1        1 CMG      0.095000
     21 H8          3.0180   -0.1510    4.8400 DU        1 CMG      0.234500
     22 H9          4.9780   -0.1630    3.3500 DU        1 CMG      0.234500
     23 H22         5.4660    0.4900   -1.3250 hn        1 CMG      0.223500
     24 H21         5.1340   -0.9950   -1.7500 hn        1 CMG      0.223500
     25 H10        -1.6740   -1.7670   -0.1000 hc        1 CMG      0.106000
     26 H112       -2.6280   -0.1690    1.3770 hc        1 CMG      0.086000
     27 H111       -3.7130   -0.8740    0.4570 hc        1 CMG      0.086000
     28 H122       -4.1950    1.3650    0.4720 hc        1 CMG      0.079250
     29 H121       -2.6950    1.7390    0.1100 hc        1 CMG      0.079250
     30 H132       -3.9320    1.9910   -1.8060 hc        1 CMG      0.078500
     31 H131       -4.5720    0.5470   -1.6390 hc        1 CMG      0.078500
     32 H142       -1.8940    1.0990   -2.3630 hc        1 CMG      0.079250
     33 H141       -2.9800    0.3930   -3.2830 hc        1 CMG      0.079250
     34 H152       -2.9120   -1.5150   -2.0170 hc        1 CMG      0.086000
     35 H151       -1.4110   -1.1410   -2.3790 hc        1 CMG      0.086000
@<TRIPOS>BOND
     1    1    6 1   
     2    2    3 1   
     3    2   12 1   
     4    4    5 1   
     5    6    7 1   
     6    7    8 1   
     7    8   13 1   
     8    8   19 1   
     9    8   20 1   
    10    9   10 1   
    11   10   11 1   
    12   12   23 1   
    13   12   24 1   
    14   13   14 1   
    15   13   18 1   
    16   13   25 1   
    17   14   15 1   
    18   14   26 1   
    19   14   27 1   
    20   15   16 1   
    21   15   28 1   
    22   15   29 1   
    23   16   17 1   
    24   16   30 1   
    25   16   31 1   
    26   17   18 1   
    27   17   32 1   
    28   17   33 1   
    29   18   34 1   
    30   18   35 1   
@<TRIPOS>SUBSTRUCTURE
     1 CMG         1 TEMP              0 ****  ****    0 ROOT
