@<TRIPOS>MOLECULE
CMG
   35    37     1     0     0
SMALL
bcc


@<TRIPOS>ATOM
      1 N1          0.2870   -0.1040   -0.1780 nb        1 CMG     -0.839000
      2 C2          1.6670   -0.0620    0.0560 ca        1 CMG      0.915900
      3 N3          2.2970    0.0010    1.2870 nb        1 CMG     -0.781000
      4 C4          1.4290    0.0760    2.3320 ca        1 CMG      0.476800
      5 C5         -0.0290    0.0680    2.2160 ca        1 CMG     -0.221200
      6 C6         -0.5320   -0.0300    0.8890 ca        1 CMG      0.759600
      7 O6         -1.8940   -0.0560    0.7630 os        1 CMG     -0.420100
      8 C9         -2.4400   -0.1440   -0.5700 c3        1 CMG      0.137400
      9 N7         -0.6130    0.1540    3.4880 nc        1 CMG     -0.500100
     10 C8          0.4210    0.2120    4.3390 cd        1 CMG      0.385700
     11 N9          1.6860    0.1660    3.7040 na        1 CMG     -0.386000
     12 N2          2.4850   -0.0260   -1.0780 nh        1 CMG     -0.926500
     13 C10        -3.9550   -0.1340   -0.3900 c3        1 CMG     -0.071700
     14 C11        -4.6170    0.1740   -1.7250 c3        1 CMG     -0.073900
     15 C12        -6.1270    0.1560   -1.5960 c3        1 CMG     -0.075400
     16 C13        -6.6200   -1.1620   -1.0340 c3        1 CMG     -0.077400
     17 C14        -5.9530   -1.4790    0.2890 c3        1 CMG     -0.075400
     18 C15        -4.4440   -1.4640    0.1610 c3        1 CMG     -0.073900
     19 H92        -2.1000    0.7410   -1.1670 h1        1 CMG      0.054700
     20 H91        -2.0910   -1.0920   -1.0540 h1        1 CMG      0.054700
     21 H8          0.3410    0.2860    5.4300 h5        1 CMG      0.072800
     22 H9          2.5730    0.2050    4.1300 hn        1 CMG      0.316700
     23 H22         3.4440   -0.2500   -0.9440 hn        1 CMG      0.428300
     24 H21         2.0770   -0.3250   -1.9330 hn        1 CMG      0.428300
     25 H10        -4.2200    0.6760    0.3470 hc        1 CMG      0.070700
     26 H112       -4.2840    1.1810   -2.0880 hc        1 CMG      0.044450
     27 H111       -4.2950   -0.5850   -2.4850 hc        1 CMG      0.044450
     28 H122       -6.5870    0.3310   -2.6030 hc        1 CMG      0.041200
     29 H121       -6.4530    0.9930   -0.9250 hc        1 CMG      0.041200
     30 H132       -7.7310   -1.1170   -0.8940 hc        1 CMG      0.038700
     31 H131       -6.4060   -1.9840   -1.7670 hc        1 CMG      0.038700
     32 H142       -6.2700   -0.7260    1.0580 hc        1 CMG      0.041200
     33 H141       -6.2880   -2.4870    0.6470 hc        1 CMG      0.041200
     34 H152       -4.1170   -2.2950   -0.5180 hc        1 CMG      0.044450
     35 H151       -3.9730   -1.6390    1.1640 hc        1 CMG      0.044450
@<TRIPOS>BOND
     1    1    2 ar  
     2    1    6 ar  
     3    2    3 ar  
     4    2   12 1   
     5    3    4 ar  
     6    4    5 ar  
     7    4   11 1   
     8    5    6 ar  
     9    5    9 1   
    10    6    7 1   
    11    7    8 1   
    12    8   13 1   
    13    8   19 1   
    14    8   20 1   
    15    9   10 2   
    16   10   11 1   
    17   10   21 1   
    18   11   22 1   
    19   12   23 1   
    20   12   24 1   
    21   13   14 1   
    22   13   18 1   
    23   13   25 1   
    24   14   15 1   
    25   14   26 1   
    26   14   27 1   
    27   15   16 1   
    28   15   28 1   
    29   15   29 1   
    30   16   17 1   
    31   16   30 1   
    32   16   31 1   
    33   17   18 1   
    34   17   32 1   
    35   17   33 1   
    36   18   34 1   
    37   18   35 1   
@<TRIPOS>SUBSTRUCTURE
     1 CMG         1 TEMP              0 ****  ****    0 ROOT
