@<TRIPOS>MOLECULE
CMG
   35    37     1     0     0
SMALL
bcc


@<TRIPOS>ATOM
      1 N1          0.2880   -0.0970   -0.1770 nb        1 CMG     -0.839000
      2 C2          1.6680   -0.0540    0.0560 ca        1 CMG      0.915900
      3 N3          2.2980    0.0030    1.2870 nb        1 CMG     -0.781000
      4 C4          1.4310    0.0700    2.3330 ca        1 CMG      0.476800
      5 C5         -0.0280    0.0610    2.2180 ca        1 CMG     -0.221200
      6 C6         -0.5320   -0.0300    0.8910 ca        1 CMG      0.759600
      7 O6         -1.8940   -0.0570    0.7650 os        1 CMG     -0.420100
      8 C9         -2.4400   -0.1380   -0.5680 c3        1 CMG      0.137400
      9 N7         -0.6110    0.1390    3.4900 nc        1 CMG     -0.500100
     10 C8          0.4230    0.1930    4.3410 cd        1 CMG      0.385700
     11 N9          1.6880    0.1520    3.7050 na        1 CMG     -0.386000
     12 N2          2.4850   -0.0110   -1.0790 nv        1 CMG     -0.926500
     13 C10        -3.9550   -0.1310   -0.3870 c3        1 CMG     -0.071700
     14 C11        -4.6190    0.1860   -1.7190 c3        1 CMG     -0.073900
     15 C12        -6.1280    0.1650   -1.5900 c3        1 CMG     -0.075400
     16 C13        -6.6190   -1.1580   -1.0380 c3        1 CMG     -0.077400
     17 C14        -5.9510   -1.4840    0.2820 c3        1 CMG     -0.075400
     18 C15        -4.4420   -1.4660    0.1540 c3        1 CMG     -0.073900
     19 H92        -2.1020    0.7520   -1.1600 h1        1 CMG      0.054700
     20 H91        -2.0900   -1.0820   -1.0580 h1        1 CMG      0.054700
     21 H8          0.3440    0.2610    5.4330 h5        1 CMG      0.072800
     22 H9          2.5750    0.1910    4.1310 hn        1 CMG      0.316700
     23 H22         2.0760   -0.3050   -1.9350 hn        1 CMG      0.428300
     24 H21         3.4440   -0.2340   -0.9460 hn        1 CMG      0.428300
     25 H10        -4.2210    0.6730    0.3560 hc        1 CMG      0.070700
     26 H112       -4.2870    1.1960   -2.0740 hc        1 CMG      0.044450
     27 H111       -4.2950   -0.5660   -2.4850 hc        1 CMG      0.044450
     28 H122       -6.5890    0.3470   -2.5950 hc        1 CMG      0.041200
     29 H121       -6.4550    0.9960   -0.9120 hc        1 CMG      0.041200
     30 H132       -6.4040   -1.9740   -1.7770 hc        1 CMG      0.038700
     31 H131       -7.7300   -1.1160   -0.8970 hc        1 CMG      0.038700
     32 H142       -6.2840   -2.4950    0.6330 hc        1 CMG      0.041200
     33 H141       -6.2690   -0.7380    1.0570 hc        1 CMG      0.041200
     34 H152       -3.9700   -1.6490    1.1550 hc        1 CMG      0.044450
     35 H151       -4.1140   -2.2910   -0.5320 hc        1 CMG      0.044450
@<TRIPOS>BOND
     1    1    2 ar  
     2    1    6 ar  
     3    2    3 ar  
     4    2   12 1   
     5    3    4 ar  
     6    4    5 ar  
     7    4   11 1   
     8    5    6 ar  
     9    5    9 1   
    10    6    7 1   
    11    7    8 1   
    12    8   13 1   
    13    8   19 1   
    14    8   20 1   
    15    9   10 2   
    16   10   11 1   
    17   10   21 1   
    18   11   22 1   
    19   12   23 1   
    20   12   24 1   
    21   13   14 1   
    22   13   18 1   
    23   13   25 1   
    24   14   15 1   
    25   14   26 1   
    26   14   27 1   
    27   15   16 1   
    28   15   28 1   
    29   15   29 1   
    30   16   17 1   
    31   16   30 1   
    32   16   31 1   
    33   17   18 1   
    34   17   32 1   
    35   17   33 1   
    36   18   34 1   
    37   18   35 1   
@<TRIPOS>SUBSTRUCTURE
     1 CMG         1 TEMP              0 ****  ****    0 ROOT
