@<TRIPOS>MOLECULE
CMG
   36    38     1     0     0
SMALL
bcc


@<TRIPOS>ATOM
      1 N1          0.3020   -0.1020   -0.1800 nb        1 CMG     -0.794000
      2 C2          1.6500   -0.0670    0.1120 ca        1 CMG      0.731900
      3 N3          2.2920    0.0420    1.3040 nb        1 CMG     -0.671000
      4 C4          1.4180    0.1270    2.3550 ca        1 CMG      0.416800
      5 C5         -0.0420    0.1030    2.2100 ca        1 CMG     -0.121200
      6 C6         -0.5490   -0.0160    0.8770 ca        1 CMG      0.772600
      7 O6         -1.8920   -0.0370    0.7390 os        1 CMG     -0.385100
      8 C9         -2.4530   -0.1570   -0.5960 c3        1 CMG      0.135400
      9 N7         -0.6420    0.2080    3.4640 nc        1 CMG     -0.485100
     10 C8          0.3830    0.2910    4.3370 cd        1 CMG      0.452700
     11 N9          1.6530    0.2470    3.7250 na        1 CMG     -0.343000
     12 N2          2.5400   -0.1650   -1.0880 n4        1 CMG     -0.814300
     13 C10        -3.9640   -0.1620   -0.3880 c3        1 CMG     -0.073700
     14 C11        -4.6470    0.1990   -1.7000 c3        1 CMG     -0.073900
     15 C12        -6.1540    0.1720   -1.5450 c3        1 CMG     -0.076900
     16 C13        -6.6360   -1.1670   -1.0280 c3        1 CMG     -0.080400
     17 C14        -5.9450   -1.5380    0.2680 c3        1 CMG     -0.076900
     18 C15        -4.4390   -1.5170    0.1140 c3        1 CMG     -0.073900
     19 H92        -2.1260    0.7260   -1.2020 h1        1 CMG      0.060700
     20 H91        -2.0930   -1.1110   -1.0590 h1        1 CMG      0.060700
     21 H8          0.2750    0.3850    5.4290 h5        1 CMG      0.108800
     22 H9          2.5380    0.2920    4.1670 hn        1 CMG      0.342700
     23 H22         2.3370    0.6210   -1.7180 hn        1 CMG      0.479467
     24 H21         2.3480   -1.0500   -1.5730 hn        1 CMG      0.479467
     25 H10        -4.2220    0.6170    0.3850 hc        1 CMG      0.079700
     26 H112       -4.3380   -0.5300   -2.4950 hc        1 CMG      0.043450
     27 H111       -4.3220    1.2200   -2.0280 hc        1 CMG      0.043450
     28 H122       -6.6310    0.3880   -2.5370 hc        1 CMG      0.049950
     29 H121       -6.4700    0.9830   -0.8360 hc        1 CMG      0.049950
     30 H132       -6.4380   -1.9590   -1.7980 hc        1 CMG      0.048200
     31 H131       -7.7440   -1.1280   -0.8640 hc        1 CMG      0.048200
     32 H142       -6.2500   -0.8200    1.0740 hc        1 CMG      0.049950
     33 H141       -6.2710   -2.5620    0.5890 hc        1 CMG      0.049950
     34 H152       -4.1250   -2.3170   -0.6070 hc        1 CMG      0.043450
     35 H151       -3.9510   -1.7360    1.1000 hc        1 CMG      0.043450
     36 H23         3.5260   -0.1330   -0.8010 hn        1 CMG      0.479467
@<TRIPOS>BOND
     1    1    2 ar  
     2    1    6 ar  
     3    2    3 ar  
     4    2   12 1   
     5    3    4 ar  
     6    4    5 ar  
     7    4   11 1   
     8    5    6 ar  
     9    5    9 1   
    10    6    7 1   
    11    7    8 1   
    12    8   13 1   
    13    8   19 1   
    14    8   20 1   
    15    9   10 2   
    16   10   11 1   
    17   10   21 1   
    18   11   22 1   
    19   12   23 1   
    20   12   24 1   
    21   12   36 1   
    22   13   14 1   
    23   13   18 1   
    24   13   25 1   
    25   14   15 1   
    26   14   26 1   
    27   14   27 1   
    28   15   16 1   
    29   15   28 1   
    30   15   29 1   
    31   16   17 1   
    32   16   30 1   
    33   16   31 1   
    34   17   18 1   
    35   17   32 1   
    36   17   33 1   
    37   18   34 1   
    38   18   35 1   
@<TRIPOS>SUBSTRUCTURE
     1 CMG         1 TEMP              0 ****  ****    0 ROOT
