@<TRIPOS>MOLECULE
CMG
   35    37     1     0     0
SMALL
bcc


@<TRIPOS>ATOM
      1 N1          1.5670    0.1610   -1.3080 nb        1 CMG     -0.839000
      2 C2          1.9040    0.3200   -2.6570 ca        1 CMG      0.915900
      3 N3          1.0510    0.2150   -3.7410 nb        1 CMG     -0.781000
      4 C4         -0.2420   -0.0200   -3.3880 ca        1 CMG      0.476800
      5 C5         -0.7220   -0.1780   -2.0160 ca        1 CMG     -0.221200
      6 C6          0.2750   -0.0740   -1.0070 ca        1 CMG      0.759600
      7 O6         -0.1540   -0.2390    0.2810 os        1 CMG     -0.420100
      8 C9          0.8280   -0.1200    1.3320 c3        1 CMG      0.137400
      9 N7         -2.1050   -0.4110   -2.0150 nc        1 CMG     -0.500100
     10 C8         -2.4580   -0.4000   -3.3080 cd        1 CMG      0.385700
     11 N9         -1.3760   -0.1700   -4.1930 na        1 CMG     -0.386000
     12 N2          3.2310    0.6750   -2.9250 nh        1 CMG     -0.926500
     13 C10         0.0570   -0.3270    2.6330 c3        1 CMG     -0.071700
     14 C11         1.0390   -0.6210    3.7570 c3        1 CMG     -0.074400
     15 C12         0.3150   -0.7950    5.0760 c3        1 CMG     -0.075400
     16 C13        -0.5410    0.4110    5.4020 c3        1 CMG     -0.077400
     17 C14        -1.5120    0.7160    4.2790 c3        1 CMG     -0.075400
     18 C15        -0.7890    0.8940    2.9610 c3        1 CMG     -0.074400
     19 H92         1.6080   -0.9130    1.1970 h1        1 CMG      0.054700
     20 H91         1.2990    0.8950    1.2910 h1        1 CMG      0.054700
     21 H8         -3.4750   -0.5500   -3.6890 h5        1 CMG      0.072800
     22 H9         -1.4070   -0.1110   -5.1750 hn        1 CMG      0.316700
     23 H22         3.8930    0.5030   -2.2050 hn        1 CMG      0.428300
     24 H21         3.5480    0.5450   -3.8570 hn        1 CMG      0.428300
     25 H10        -0.6280   -1.2120    2.5040 hc        1 CMG      0.070700
     26 H112        1.6160   -1.5520    3.5200 hc        1 CMG      0.044450
     27 H111        1.7750    0.2220    3.8400 hc        1 CMG      0.044450
     28 H122       -0.3330   -1.7100    5.0280 hc        1 CMG      0.041200
     29 H121        1.0650   -0.9560    5.8940 hc        1 CMG      0.041200
     30 H132       -1.1100    0.2220    6.3500 hc        1 CMG      0.038700
     31 H131        0.1190    1.3010    5.5770 hc        1 CMG      0.038700
     32 H142       -2.2540   -0.1210    4.1890 hc        1 CMG      0.041200
     33 H141       -2.0840    1.6490    4.5200 hc        1 CMG      0.041200
     34 H152       -0.1330    1.8020    3.0120 hc        1 CMG      0.044450
     35 H151       -1.5310    1.0560    2.1350 hc        1 CMG      0.044450
@<TRIPOS>BOND
     1    1    2 ar  
     2    1    6 ar  
     3    2    3 ar  
     4    2   12 1   
     5    3    4 ar  
     6    4    5 ar  
     7    4   11 1   
     8    5    6 ar  
     9    5    9 1   
    10    6    7 1   
    11    7    8 1   
    12    8   13 1   
    13    8   19 1   
    14    8   20 1   
    15    9   10 2   
    16   10   11 1   
    17   10   21 1   
    18   11   22 1   
    19   12   23 1   
    20   12   24 1   
    21   13   14 1   
    22   13   18 1   
    23   13   25 1   
    24   14   15 1   
    25   14   26 1   
    26   14   27 1   
    27   15   16 1   
    28   15   28 1   
    29   15   29 1   
    30   16   17 1   
    31   16   30 1   
    32   16   31 1   
    33   17   18 1   
    34   17   32 1   
    35   17   33 1   
    36   18   34 1   
    37   18   35 1   
@<TRIPOS>SUBSTRUCTURE
     1 CMG         1 TEMP              0 ****  ****    0 ROOT
