@<TRIPOS>MOLECULE
CMI
   60    63     1     0     0
SMALL
bcc


@<TRIPOS>ATOM
      1 C1         -3.9100   -0.0670   -3.0890 ca        1 CMI     -0.100000
      2 C2         -2.7380   -0.7190   -2.7540 ca        1 CMI     -0.150000
      3 C3         -2.0640   -0.2980   -1.5910 ca        1 CMI     -0.026200
      4 C4         -2.5870    0.7810   -0.7850 ca        1 CMI     -0.109800
      5 C5         -3.7820    1.4190   -1.1570 ca        1 CMI     -0.022300
      6 C6         -4.4270    0.9840   -2.3070 ca        1 CMI     -0.163000
      7 N7         -0.8950   -0.7770   -0.9890 na        1 CMI     -0.035400
      8 C8         -0.6520    0.0060    0.1560 cc        1 CMI     -0.122300
      9 C9         -1.6720    0.9500    0.3130 cd        1 CMI     -0.145200
     10 C10        -4.3250    2.5310   -0.3450 c3        1 CMI     -0.053800
     11 C11         0.5020   -0.2080    1.0640 c         1 CMI      0.690300
     12 N12         0.9150    0.8920    1.7970 n         1 CMI     -0.542900
     13 C13         1.8890    0.7730    2.8510 c3        1 CMI      0.129300
     14 C14         1.3100    0.5600    4.2220 ca        1 CMI     -0.122300
     15 C17        -0.0440   -1.8020   -1.5300 c3        1 CMI      0.077600
     16 C18         1.0680   -1.3080   -2.4130 ca        1 CMI     -0.126300
     17 C21         2.3760   -1.2630   -1.9210 ca        1 CMI     -0.095000
     18 C22         3.4190   -0.8580   -2.7520 ca        1 CMI     -0.142000
     19 C23         3.1630   -0.4840   -4.0710 ca        1 CMI     -0.100000
     20 C24         1.8520   -0.5120   -4.5580 ca        1 CMI     -0.147900
     21 C25         0.8050   -0.9300   -3.7320 ca        1 CMI     -0.072000
     22 C26         1.3630    1.5760    5.1770 ca        1 CMI     -0.121500
     23 C27         0.8490    1.3620    6.4610 ca        1 CMI     -0.075300
     24 C28         0.2770    0.1250    6.7760 ca        1 CMI     -0.125000
     25 C29         0.2190   -0.8970    5.8220 ca        1 CMI     -0.075300
     26 C30         0.7400   -0.6750    4.5440 ca        1 CMI     -0.121500
     27 C31         1.5630   -0.1070   -5.9710 ce        1 CMI      0.651800
     28 N32         2.1580    1.1160   -6.3550 nh        1 CMI     -0.956800
     29 C33         0.9230    2.4320    7.4830 c3        1 CMI     -0.054300
     30 C37        -0.4010   -2.1990    6.1610 c3        1 CMI     -0.054300
     31 O45         1.1070   -1.3000    1.1400 o         1 CMI     -0.624100
     32 N53         0.8720   -0.9150   -6.7170 n2        1 CMI     -0.827100
     33 HC1        -4.4600   -0.3740   -3.9920 ha        1 CMI      0.132000
     34 HC2        -2.3450   -1.5380   -3.3720 ha        1 CMI      0.139000
     35 HC6        -5.3650    1.4650   -2.6200 ha        1 CMI      0.131000
     36 HC9        -1.7860    1.6700    1.1190 ha        1 CMI      0.153000
     37 H101       -3.8140    3.4890   -0.6200 hc        1 CMI      0.045367
     38 H102       -5.4220    2.6570   -0.5180 hc        1 CMI      0.045367
     39 H103       -4.1550    2.3450    0.7440 hc        1 CMI      0.045367
     40 H12         0.3130    1.6810    1.8350 hn        1 CMI      0.310500
     41 H131        2.5020    1.7210    2.8450 h1        1 CMI      0.071200
     42 H132        2.5730   -0.0930    2.6090 h1        1 CMI      0.071200
     43 H171        0.3970   -2.3790   -0.6620 h1        1 CMI      0.086200
     44 H172       -0.6980   -2.5020   -2.1290 h1        1 CMI      0.086200
     45 H21         2.5740   -1.5480   -0.8730 ha        1 CMI      0.157000
     46 H22         4.4490   -0.8360   -2.3670 ha        1 CMI      0.137000
     47 H23         3.9930   -0.1780   -4.7260 ha        1 CMI      0.143000
     48 H25        -0.2260   -0.9680   -4.1210 ha        1 CMI      0.149000
     49 H26         1.8130    2.5480    4.9260 ha        1 CMI      0.140000
     50 H28        -0.1290   -0.0460    7.7840 ha        1 CMI      0.132000
     51 H30         0.7070   -1.4710    3.7820 ha        1 CMI      0.140000
     52 H321        1.7530    1.5820   -7.1340 hn        1 CMI      0.397800
     53 H322        2.4100    1.7180   -5.6070 hn        1 CMI      0.397800
     54 H331        1.8780    2.3420    8.0600 hc        1 CMI      0.045200
     55 H332        0.8970    3.4430    7.0070 hc        1 CMI      0.045200
     56 H333        0.0720    2.3580    8.2030 hc        1 CMI      0.045200
     57 H371       -1.5040   -2.1550    5.9740 hc        1 CMI      0.045200
     58 H372        0.0260   -3.0210    5.5360 hc        1 CMI      0.045200
     59 H373       -0.2390   -2.4510    7.2380 hc        1 CMI      0.045200
     60 H53         0.6950   -0.6150   -7.6530 hn        1 CMI      0.382400
@<TRIPOS>BOND
     1    1    2 ar  
     2    1    6 ar  
     3    1   33 1   
     4    2    3 ar  
     5    2   34 1   
     6    3    4 ar  
     7    3    7 1   
     8    4    5 ar  
     9    4    9 1   
    10    5    6 ar  
    11    5   10 1   
    12    6   35 1   
    13    7    8 1   
    14    7   15 1   
    15    8    9 2   
    16    8   11 1   
    17    9   36 1   
    18   10   37 1   
    19   10   38 1   
    20   10   39 1   
    21   11   12 1   
    22   11   31 2   
    23   12   13 1   
    24   12   40 1   
    25   13   14 1   
    26   13   41 1   
    27   13   42 1   
    28   14   22 ar  
    29   14   26 ar  
    30   15   16 1   
    31   15   43 1   
    32   15   44 1   
    33   16   17 ar  
    34   16   21 ar  
    35   17   18 ar  
    36   17   45 1   
    37   18   19 ar  
    38   18   46 1   
    39   19   20 ar  
    40   19   47 1   
    41   20   21 ar  
    42   20   27 1   
    43   21   48 1   
    44   22   23 ar  
    45   22   49 1   
    46   23   24 ar  
    47   23   29 1   
    48   24   25 ar  
    49   24   50 1   
    50   25   26 ar  
    51   25   30 1   
    52   26   51 1   
    53   27   28 1   
    54   27   32 2   
    55   28   52 1   
    56   28   53 1   
    57   29   54 1   
    58   29   55 1   
    59   29   56 1   
    60   30   57 1   
    61   30   58 1   
    62   30   59 1   
    63   32   60 1   
@<TRIPOS>SUBSTRUCTURE
     1 CMI         1 TEMP              0 ****  ****    0 ROOT
