@<TRIPOS>MOLECULE
CMI
   62    65     1     0     0
SMALL
bcc


@<TRIPOS>ATOM
      1 C1          0.7100   -0.7440    0.1730 ca        1 CMI     -0.039000
      2 C2          1.9610   -0.1600    0.2230 ca        1 CMI     -0.182000
      3 C3          2.4610    0.2070    1.4890 ca        1 CMI      0.020800
      4 C4          1.6860   -0.0370    2.6890 ca        1 CMI     -0.126800
      5 C5          0.4060   -0.6280    2.5950 ca        1 CMI      0.017700
      6 C6         -0.0590   -0.9690    1.3350 ca        1 CMI     -0.152000
      7 N7          3.6700    0.8060    1.8440 na        1 CMI     -0.037400
      8 C8          3.6920    0.9080    3.2600 cc        1 CMI     -0.226300
      9 C9          2.4790    0.4080    3.7860 cd        1 CMI     -0.046200
     10 C10        -0.4010   -0.8890    3.8060 c3        1 CMI     -0.071800
     11 C11         4.7960    1.4760    3.9920 c         1 CMI      0.584300
     12 N12         4.7730    1.2970    5.4880 ny        1 CMI     -0.670800
     13 C13         5.2170   -0.0880    5.8920 c3        1 CMI      0.185100
     14 C14         5.2470   -0.2110    7.3740 ca        1 CMI     -0.190300
     15 C17         4.7630    1.0400    0.9380 c3        1 CMI      0.076600
     16 C18         4.6680    2.3110    0.1350 ca        1 CMI     -0.103300
     17 C21         4.8710    3.5500    0.7520 ca        1 CMI     -0.056000
     18 C22         4.8640    4.7250   -0.0020 ca        1 CMI     -0.107000
     19 C23         4.6630    4.6710   -1.3800 ca        1 CMI     -0.088000
     20 C24         4.4590    3.4320   -2.0000 ca        1 CMI     -0.253900
     21 C25         4.4530    2.2520   -1.2460 ca        1 CMI     -0.072000
     22 C26         6.3830    0.2030    8.0790 ca        1 CMI     -0.115000
     23 C27         6.4360    0.0560    9.4680 ca        1 CMI     -0.047800
     24 C28         5.3430   -0.5070   10.1400 ca        1 CMI     -0.085000
     25 C29         4.2050   -0.9270    9.4400 ca        1 CMI     -0.047800
     26 C30         4.1600   -0.7740    8.0500 ca        1 CMI     -0.115000
     27 C31         4.3240    3.3460   -3.4700 ce        1 CMI      0.582800
     28 N32         3.1220    4.0970   -3.9820 nz        1 CMI     -0.822600
     29 C33         7.6380    0.4710   10.2270 c3        1 CMI     -0.071300
     30 C37         3.0720   -1.5420   10.1700 c3        1 CMI     -0.071300
     31 O45         5.7670    2.1000    3.5630 o         1 CMI     -0.481100
     32 N53         5.0390    2.7600   -4.3500 n2        1 CMI     -0.697100
     33 HC1         0.2920   -1.0520   -0.8010 ha        1 CMI      0.156000
     34 HC2         2.5550    0.0050   -0.6860 ha        1 CMI      0.135000
     35 HC6        -1.0540   -1.4340    1.2290 ha        1 CMI      0.166000
     36 HC9         2.1790    0.3690    4.8320 ha        1 CMI      0.163000
     37 H101       -1.4930   -0.7670    3.5900 hc        1 CMI      0.065033
     38 H102       -0.2340   -1.9410    4.1540 hc        1 CMI      0.065033
     39 H103       -0.1260   -0.1940    4.6360 hc        1 CMI      0.065033
     40 H12         5.4150    1.9800    5.9170 hn        1 CMI      0.461800
     41 H131        6.2420   -0.2510    5.4510 hx        1 CMI      0.109200
     42 H132        4.4930   -0.8210    5.4310 hx        1 CMI      0.109200
     43 H171        4.8160    0.1580    0.2300 h1        1 CMI      0.092200
     44 H172        5.7270    1.0730    1.5280 h1        1 CMI      0.092200
     45 H21         5.0610    3.5960    1.8380 ha        1 CMI      0.164000
     46 H22         5.0330    5.6970    0.4900 ha        1 CMI      0.174000
     47 H23         4.7020    5.6010   -1.9690 ha        1 CMI      0.147000
     48 H25         4.2940    1.2790   -1.7380 ha        1 CMI      0.150000
     49 H26         7.2470    0.6270    7.5430 ha        1 CMI      0.135500
     50 H28         5.3820   -0.6270   11.2360 ha        1 CMI      0.164000
     51 H30         3.2750   -1.1180    7.4940 ha        1 CMI      0.135500
     52 H321        3.1740    5.0630   -3.6390 hn        1 CMI      0.473800
     53 H322        3.0800    4.1010   -5.0110 hn        1 CMI      0.473800
     54 H331        8.2280   -0.4330   10.5290 hc        1 CMI      0.063867
     55 H332        7.3480    1.0220   11.1560 hc        1 CMI      0.063867
     56 H333        8.3000    1.1320    9.6150 hc        1 CMI      0.063867
     57 H371        2.1570   -1.5990    9.5320 hc        1 CMI      0.063867
     58 H372        2.8290   -0.9510   11.0880 hc        1 CMI      0.063867
     59 H373        3.3440   -2.5810   10.4880 hc        1 CMI      0.063867
     60 H53         5.8560    2.2620   -4.0610 hn        1 CMI      0.493400
     61 H122        3.8300    1.4680    5.8520 hn        1 CMI      0.461800
     62 H323        2.2760    3.6520   -3.6100 hn        1 CMI      0.473800
@<TRIPOS>BOND
     1    1    2 ar  
     2    1    6 ar  
     3    1   33 1   
     4    2    3 ar  
     5    2   34 1   
     6    3    4 ar  
     7    3    7 1   
     8    4    5 ar  
     9    4    9 1   
    10    5    6 ar  
    11    5   10 1   
    12    6   35 1   
    13    7    8 1   
    14    7   15 1   
    15    8    9 2   
    16    8   11 1   
    17    9   36 1   
    18   10   37 1   
    19   10   38 1   
    20   10   39 1   
    21   11   12 1   
    22   11   31 2   
    23   12   13 1   
    24   12   40 1   
    25   12   61 1   
    26   13   14 1   
    27   13   41 1   
    28   13   42 1   
    29   14   22 ar  
    30   14   26 ar  
    31   15   16 1   
    32   15   43 1   
    33   15   44 1   
    34   16   17 ar  
    35   16   21 ar  
    36   17   18 ar  
    37   17   45 1   
    38   18   19 ar  
    39   18   46 1   
    40   19   20 ar  
    41   19   47 1   
    42   20   21 ar  
    43   20   27 1   
    44   21   48 1   
    45   22   23 ar  
    46   22   49 1   
    47   23   24 ar  
    48   23   29 1   
    49   24   25 ar  
    50   24   50 1   
    51   25   26 ar  
    52   25   30 1   
    53   26   51 1   
    54   27   28 1   
    55   27   32 2   
    56   28   52 1   
    57   28   53 1   
    58   28   62 1   
    59   29   54 1   
    60   29   55 1   
    61   29   56 1   
    62   30   57 1   
    63   30   58 1   
    64   30   59 1   
    65   32   60 1   
@<TRIPOS>SUBSTRUCTURE
     1 CMI         1 TEMP              0 ****  ****    0 ROOT
