@<TRIPOS>MOLECULE
CMI
   62    65     1     0     0
SMALL
bcc


@<TRIPOS>ATOM
      1 C1          0.7150   -0.7470    0.1720 ca        1 CMI     -0.039000
      2 C2          1.9620   -0.1540    0.2210 ca        1 CMI     -0.182000
      3 C3          2.4630    0.2080    1.4890 ca        1 CMI      0.020800
      4 C4          1.6930   -0.0490    2.6900 ca        1 CMI     -0.126800
      5 C5          0.4170   -0.6480    2.5960 ca        1 CMI      0.017700
      6 C6         -0.0500   -0.9850    1.3350 ca        1 CMI     -0.152000
      7 N7          3.6680    0.8140    1.8430 na        1 CMI     -0.037400
      8 C8          3.6950    0.9070    3.2600 cc        1 CMI     -0.226300
      9 C9          2.4870    0.3950    3.7860 cd        1 CMI     -0.046200
     10 C10        -0.3840   -0.9230    3.8080 c3        1 CMI     -0.071800
     11 C11         4.7970    1.4790    3.9920 c         1 CMI      0.584300
     12 N12         4.7790    1.2910    5.4870 n4        1 CMI     -0.670800
     13 C13         5.2310   -0.0940    5.8820 c3        1 CMI      0.185100
     14 C14         5.2660   -0.2260    7.3630 ca        1 CMI     -0.190300
     15 C17         4.7570    1.0620    0.9350 c3        1 CMI      0.076600
     16 C18         4.6500    2.3370    0.1400 ca        1 CMI     -0.103300
     17 C21         4.8470    3.5740    0.7650 ca        1 CMI     -0.056000
     18 C22         4.8290    4.7530    0.0180 ca        1 CMI     -0.107000
     19 C23         4.6240    4.7070   -1.3590 ca        1 CMI     -0.088000
     20 C24         4.4260    3.4700   -1.9860 ca        1 CMI     -0.253900
     21 C25         4.4310    2.2850   -1.2390 ca        1 CMI     -0.072000
     22 C26         6.4020    0.1870    8.0670 ca        1 CMI     -0.115000
     23 C27         6.4580    0.0320    9.4560 ca        1 CMI     -0.047800
     24 C28         5.3690   -0.5380   10.1270 ca        1 CMI     -0.085000
     25 C29         4.2300   -0.9570    9.4270 ca        1 CMI     -0.047800
     26 C30         4.1820   -0.7950    8.0380 ca        1 CMI     -0.115000
     27 C31         4.2860    3.3930   -3.4570 ce        1 CMI      0.582800
     28 N32         3.0770    4.1390   -3.9590 n4        1 CMI     -0.822600
     29 C33         7.6610    0.4450   10.2140 c3        1 CMI     -0.071300
     30 C37         3.1010   -1.5790   10.1550 c3        1 CMI     -0.071300
     31 O45         5.7620    2.1120    3.5640 o         1 CMI     -0.481100
     32 N53         5.0030    2.8170   -4.3420 n2        1 CMI     -0.697100
     33 HC1         0.2960   -1.0520   -0.8020 ha        1 CMI      0.156000
     34 HC2         2.5510    0.0210   -0.6880 ha        1 CMI      0.135000
     35 HC6        -1.0410   -1.4570    1.2290 ha        1 CMI      0.166000
     36 HC9         2.1900    0.3480    4.8330 ha        1 CMI      0.163000
     37 H101       -1.4770   -0.8070    3.5960 hc        1 CMI      0.065033
     38 H102       -0.2080   -1.9760    4.1490 hc        1 CMI      0.065033
     39 H103       -0.1110   -0.2310    4.6410 hc        1 CMI      0.065033
     40 H12         5.4180    1.9750    5.9180 hn        1 CMI      0.461800
     41 H131        6.2570   -0.2480    5.4370 hx        1 CMI      0.109200
     42 H132        4.5110   -0.8280    5.4180 hx        1 CMI      0.109200
     43 H171        4.8140    0.1850    0.2220 h1        1 CMI      0.092200
     44 H172        5.7230    1.0980    1.5220 h1        1 CMI      0.092200
     45 H21         5.0400    3.6140    1.8510 ha        1 CMI      0.164000
     46 H22         4.9930    5.7240    0.5160 ha        1 CMI      0.174000
     47 H23         4.6540    5.6410   -1.9420 ha        1 CMI      0.147000
     48 H25         4.2770    1.3140   -1.7380 ha        1 CMI      0.150000
     49 H26         7.2630    0.6170    7.5330 ha        1 CMI      0.135500
     50 H28         5.4100   -0.6650   11.2220 ha        1 CMI      0.164000
     51 H30         3.2960   -1.1390    7.4820 ha        1 CMI      0.135500
     52 H321        3.1240    5.1030   -3.6110 hn        1 CMI      0.473800
     53 H322        3.0320    4.1490   -4.9880 hn        1 CMI      0.473800
     54 H331        8.2540   -0.4590   10.5090 hc        1 CMI      0.063867
     55 H332        7.3710    0.9890   11.1480 hc        1 CMI      0.063867
     56 H333        8.3200    1.1130    9.6050 hc        1 CMI      0.063867
     57 H371        2.1840   -1.6350    9.5190 hc        1 CMI      0.063867
     58 H372        2.8570   -0.9940   11.0780 hc        1 CMI      0.063867
     59 H373        3.3760   -2.6190   10.4670 hc        1 CMI      0.063867
     60 H53         5.8240    2.3230   -4.0590 hn        1 CMI      0.493400
     61 H122        3.8360    1.4540    5.8550 hn        1 CMI      0.461800
     62 H323        2.2360    3.6850   -3.5870 hn        1 CMI      0.473800
@<TRIPOS>BOND
     1    1    2 ar  
     2    1    6 ar  
     3    1   33 1   
     4    2    3 ar  
     5    2   34 1   
     6    3    4 ar  
     7    3    7 1   
     8    4    5 ar  
     9    4    9 1   
    10    5    6 ar  
    11    5   10 1   
    12    6   35 1   
    13    7    8 1   
    14    7   15 1   
    15    8    9 2   
    16    8   11 1   
    17    9   36 1   
    18   10   37 1   
    19   10   38 1   
    20   10   39 1   
    21   11   12 1   
    22   11   31 2   
    23   12   13 1   
    24   12   40 1   
    25   12   61 1   
    26   13   14 1   
    27   13   41 1   
    28   13   42 1   
    29   14   22 ar  
    30   14   26 ar  
    31   15   16 1   
    32   15   43 1   
    33   15   44 1   
    34   16   17 ar  
    35   16   21 ar  
    36   17   18 ar  
    37   17   45 1   
    38   18   19 ar  
    39   18   46 1   
    40   19   20 ar  
    41   19   47 1   
    42   20   21 ar  
    43   20   27 1   
    44   21   48 1   
    45   22   23 ar  
    46   22   49 1   
    47   23   24 ar  
    48   23   29 1   
    49   24   25 ar  
    50   24   50 1   
    51   25   26 ar  
    52   25   30 1   
    53   26   51 1   
    54   27   28 1   
    55   27   32 2   
    56   28   52 1   
    57   28   53 1   
    58   28   62 1   
    59   29   54 1   
    60   29   55 1   
    61   29   56 1   
    62   30   57 1   
    63   30   58 1   
    64   30   59 1   
    65   32   60 1   
@<TRIPOS>SUBSTRUCTURE
     1 CMI         1 TEMP              0 ****  ****    0 ROOT
