@<TRIPOS>MOLECULE
CMI
   60    50     1     0     0
SMALL
bcc


@<TRIPOS>ATOM
      1 C1         -4.6410    0.2400   -3.0170 c1        1 CMI     -0.130000
      2 C2         -3.2400    0.2190   -3.0410 c1        1 CMI     -0.145000
      3 C3         -2.5070    0.4110   -1.8420 c1        1 CMI      0.023000
      4 C4         -3.1760    0.6190   -0.6530 c1        1 CMI     -0.097000
      5 C5         -4.5910    0.6400   -0.6310 c1        1 CMI     -0.015000
      6 C6         -5.3140    0.4500   -1.8160 c1        1 CMI     -0.130000
      7 N7         -1.1400    0.4390   -1.5790 n1        1 CMI     -0.133000
      8 C8         -0.9700    0.6640   -0.2270 c1        1 CMI     -0.082000
      9 C9         -2.2290    0.7760    0.3500 c1        1 CMI     -0.155000
     10 C10        -5.3970    1.2750    0.5060 c3        1 CMI     -0.179000
     11 C11        -0.4130    1.6100    0.8350 c1        1 CMI      0.363000
     12 N12        -0.5450    1.2800    2.2410 n3        1 CMI     -0.351000
     13 C13         0.4590    1.7290    3.1880 c3        1 CMI      0.005000
     14 C14         0.9170    0.5380    4.0590 c2        1 CMI     -0.114000
     15 C17        -0.1780    1.0330   -2.4850 c2        1 CMI      0.020000
     16 C18         0.5690   -0.0910   -3.2610 c2        1 CMI     -0.114000
     17 C21         0.7960   -1.3180   -2.6530 c2        1 CMI     -0.087000
     18 C22         1.5900   -2.2740   -3.2870 c1        1 CMI     -0.138000
     19 C23         2.1530   -2.0000   -4.5220 c1        1 CMI     -0.105000
     20 C24         1.9270   -0.7710   -5.1330 c1        1 CMI     -0.122000
     21 C25         1.1370    0.1840   -4.5040 c1        1 CMI     -0.083000
     22 C26         1.4020    0.9070    5.3070 c2        1 CMI     -0.125000
     23 C27         2.1580    0.0150    6.0480 c1        1 CMI     -0.069000
     24 C28         2.4300   -1.2410    5.5470 c1        1 CMI     -0.125000
     25 C29         1.9470   -1.6110    4.3000 c1        1 CMI     -0.066000
     26 C30         1.1880   -0.7160    3.5580 c1        1 CMI     -0.118000
     27 C31         2.5860   -0.4560   -6.4560 c2        1 CMI      0.114000
     28 N32         3.8870    0.0580   -6.4860 n3        1 CMI     -0.331000
     29 C33         2.7100    0.4330    7.4340 c3        1 CMI     -0.179000
     30 C37         2.1690   -3.0230    3.7900 c3        1 CMI     -0.180000
     31 O45         0.0940    2.6650    0.5040 o         1 CMI     -0.386000
     32 N53         1.9530   -0.6630   -7.5530 n1        1 CMI     -0.303000
     33 HC1        -5.1530    0.1070   -3.8530 ha        1 CMI      0.132500
     34 HC2        -2.7680    0.0710   -3.8840 ha        1 CMI      0.138000
     35 HC6        -6.3000    0.4650   -1.7990 ha        1 CMI      0.132500
     36 HC9        -2.4170    0.9390    1.3050 DU        1 CMI      0.153500
     37 H101       -5.1320    2.2140    0.6090 hc        1 CMI      0.085000
     38 H102       -6.3590    1.2260    0.2950 hc        1 CMI      0.085000
     39 H103       -5.2210    0.7940    1.3380 hc        1 CMI      0.085000
     40 H12        -1.2370    0.7510    2.5240 hn        1 CMI      0.226000
     41 H131        0.0810    2.4220    3.7580 h1        1 CMI      0.111500
     42 H132        1.2250    2.0890    2.7020 h1        1 CMI      0.111500
     43 H171       -0.6470    1.6170   -3.1250 ha        1 CMI      0.117500
     44 H172        0.4750    1.5670   -1.9690 ha        1 CMI      0.117500
     45 H21         0.3950   -1.5140   -1.7720 ha        1 CMI      0.167000
     46 H22         1.7500   -3.1460   -2.8560 ha        1 CMI      0.138000
     47 H23         2.7210   -2.6850   -4.9750 ha        1 CMI      0.138000
     48 H25         0.9770    1.0580   -4.9390 ha        1 CMI      0.145000
     49 H26         1.2100    1.8000    5.6640 ha        1 CMI      0.130000
     50 H28         2.9650   -1.8730    6.0720 ha        1 CMI      0.132000
     51 H30         0.8470   -0.9770    2.6790 ha        1 CMI      0.148000
     52 H321        4.2360    0.3690   -7.2680 hn        1 CMI      0.192000
     53 H322        4.3760    0.0990   -5.7220 hn        1 CMI      0.192000
     54 H331        3.4200    1.1000    7.3160 hc        1 CMI      0.083667
     55 H332        1.9840    0.8200    7.9730 hc        1 CMI      0.083667
     56 H333        3.0760   -0.3600    7.8960 hc        1 CMI      0.083667
     57 H371        2.8460   -3.0110    3.0830 hc        1 CMI      0.085000
     58 H372        2.4760   -3.5900    4.5260 hc        1 CMI      0.085000
     59 H373        1.3290   -3.3770    3.4320 hc        1 CMI      0.085000
     60 H53         1.1150   -0.9950   -7.5340 DU        1 CMI      0.153500
@<TRIPOS>BOND
     1    1    6 1   
     2    1   33 1   
     3    2    3 1   
     4    2   34 1   
     5    4    5 1   
     6    5   10 1   
     7    6   35 1   
     8    7    8 1   
     9    8    9 1   
    10   10   37 1   
    11   10   38 1   
    12   10   39 1   
    13   11   12 1   
    14   11   31 1   
    15   12   13 1   
    16   12   40 1   
    17   13   14 1   
    18   13   41 1   
    19   13   42 1   
    20   14   22 1   
    21   14   26 1   
    22   15   16 1   
    23   15   43 1   
    24   15   44 1   
    25   16   17 1   
    26   16   21 1   
    27   17   18 1   
    28   17   45 1   
    29   18   46 1   
    30   19   20 1   
    31   19   47 1   
    32   20   27 1   
    33   21   48 1   
    34   22   23 1   
    35   22   49 1   
    36   23   29 1   
    37   24   25 1   
    38   24   50 1   
    39   25   30 1   
    40   26   51 1   
    41   27   28 1   
    42   27   32 1   
    43   28   52 1   
    44   28   53 1   
    45   29   54 1   
    46   29   55 1   
    47   29   56 1   
    48   30   57 1   
    49   30   58 1   
    50   30   59 1   
@<TRIPOS>SUBSTRUCTURE
     1 CMI         1 TEMP              0 ****  ****    0 ROOT
