@<TRIPOS>MOLECULE
CMI
   62    65     1     0     0
SMALL
bcc


@<TRIPOS>ATOM
      1 C1          0.7270   -0.7570    0.1580 ca        1 CMI     -0.039000
      2 C2          1.9740   -0.1640    0.2130 ca        1 CMI     -0.182000
      3 C3          2.4680    0.2020    1.4820 ca        1 CMI      0.020800
      4 C4          1.6920   -0.0530    2.6800 ca        1 CMI     -0.126800
      5 C5          0.4170   -0.6530    2.5800 ca        1 CMI      0.017700
      6 C6         -0.0430   -0.9930    1.3180 ca        1 CMI     -0.152000
      7 N7          3.6710    0.8080    1.8420 na        1 CMI     -0.037400
      8 C8          3.6900    0.9050    3.2590 cc        1 CMI     -0.226300
      9 C9          2.4790    0.3940    3.7800 cd        1 CMI     -0.046200
     10 C10        -0.3910   -0.9250    3.7880 c3        1 CMI     -0.071800
     11 C11         4.7880    1.4790    3.9950 c         1 CMI      0.584300
     12 N12         4.7620    1.2940    5.4900 n4        1 CMI     -0.670800
     13 C13         5.2180   -0.0880    5.8900 c3        1 CMI      0.185100
     14 C14         5.2480   -0.2170    7.3710 ca        1 CMI     -0.190300
     15 C17         4.7650    1.0540    0.9390 c3        1 CMI      0.076600
     16 C18         4.6620    2.3280    0.1400 ca        1 CMI     -0.103300
     17 C21         4.8540    3.5660    0.7630 ca        1 CMI     -0.056000
     18 C22         4.8390    4.7430    0.0130 ca        1 CMI     -0.107000
     19 C23         4.6430    4.6930   -1.3660 ca        1 CMI     -0.088000
     20 C24         4.4500    3.4540   -1.9910 ca        1 CMI     -0.253900
     21 C25         4.4510    2.2720   -1.2400 ca        1 CMI     -0.072000
     22 C26         6.3770    0.2100    8.0800 ca        1 CMI     -0.115000
     23 C27         6.4290    0.0570    9.4690 ca        1 CMI     -0.047800
     24 C28         5.3420   -0.5220   10.1360 ca        1 CMI     -0.085000
     25 C29         4.2110   -0.9540    9.4320 ca        1 CMI     -0.047800
     26 C30         4.1670   -0.7960    8.0430 ca        1 CMI     -0.115000
     27 C31         4.3200    3.3730   -3.4620 ce        1 CMI      0.582800
     28 N32         3.1130    4.1160   -3.9740 n4        1 CMI     -0.822600
     29 C33         7.6240    0.4850   10.2320 c3        1 CMI     -0.071300
     30 C37         3.0850   -1.5860   10.1580 c3        1 CMI     -0.071300
     31 O45         5.7540    2.1130    3.5710 o         1 CMI     -0.481100
     32 N53         5.0430    2.7960   -4.3410 n2        1 CMI     -0.697100
     33 HC1         0.3140   -1.0650   -0.8180 ha        1 CMI      0.156000
     34 HC2         2.5680    0.0090   -0.6930 ha        1 CMI      0.135000
     35 HC6        -1.0330   -1.4660    1.2070 ha        1 CMI      0.166000
     36 HC9         2.1770    0.3490    4.8250 ha        1 CMI      0.163000
     37 H101       -0.1220   -0.2320    4.6220 hc        1 CMI      0.065033
     38 H102       -0.2170   -1.9780    4.1330 hc        1 CMI      0.065033
     39 H103       -1.4830   -0.8100    3.5710 hc        1 CMI      0.065033
     40 H12         5.3960    1.9810    5.9240 hn        1 CMI      0.461800
     41 H131        4.5030   -0.8260    5.4250 hx        1 CMI      0.109200
     42 H132        6.2470   -0.2390    5.4500 hx        1 CMI      0.109200
     43 H171        4.8260    0.1750    0.2290 h1        1 CMI      0.092200
     44 H172        5.7270    1.0930    1.5320 h1        1 CMI      0.092200
     45 H21         5.0400    3.6090    1.8500 ha        1 CMI      0.164000
     46 H22         5.0000    5.7150    0.5090 ha        1 CMI      0.174000
     47 H23         4.6760    5.6250   -1.9510 ha        1 CMI      0.147000
     48 H25         4.3010    1.2990   -1.7370 ha        1 CMI      0.150000
     49 H26         7.2360    0.6470    7.5480 ha        1 CMI      0.135500
     50 H28         5.3810   -0.6460   11.2320 ha        1 CMI      0.164000
     51 H30         3.2870   -1.1490    7.4840 ha        1 CMI      0.135500
     52 H321        3.0740    4.1240   -5.0030 hn        1 CMI      0.473800
     53 H322        3.1570    5.0810   -3.6280 hn        1 CMI      0.473800
     54 H331        7.3250    1.0280   11.1630 hc        1 CMI      0.063867
     55 H332        8.2780    1.1570    9.6240 hc        1 CMI      0.063867
     56 H333        8.2250   -0.4120   10.5310 hc        1 CMI      0.063867
     57 H371        2.8310   -1.0010   11.0770 hc        1 CMI      0.063867
     58 H372        2.1720   -1.6550    9.5170 hc        1 CMI      0.063867
     59 H373        3.3710   -2.6220   10.4740 hc        1 CMI      0.063867
     60 H53         5.8630    2.3040   -4.0520 hn        1 CMI      0.493400
     61 H122        3.8170    1.4540    5.8530 hn        1 CMI      0.461800
     62 H323        2.2710    3.6630   -3.6060 hn        1 CMI      0.473800
@<TRIPOS>BOND
     1    1    2 ar  
     2    1    6 ar  
     3    1   33 1   
     4    2    3 ar  
     5    2   34 1   
     6    3    4 ar  
     7    3    7 1   
     8    4    5 ar  
     9    4    9 1   
    10    5    6 ar  
    11    5   10 1   
    12    6   35 1   
    13    7    8 1   
    14    7   15 1   
    15    8    9 2   
    16    8   11 1   
    17    9   36 1   
    18   10   37 1   
    19   10   38 1   
    20   10   39 1   
    21   11   12 1   
    22   11   31 2   
    23   12   13 1   
    24   12   40 1   
    25   12   61 1   
    26   13   14 1   
    27   13   41 1   
    28   13   42 1   
    29   14   22 ar  
    30   14   26 ar  
    31   15   16 1   
    32   15   43 1   
    33   15   44 1   
    34   16   17 ar  
    35   16   21 ar  
    36   17   18 ar  
    37   17   45 1   
    38   18   19 ar  
    39   18   46 1   
    40   19   20 ar  
    41   19   47 1   
    42   20   21 ar  
    43   20   27 1   
    44   21   48 1   
    45   22   23 ar  
    46   22   49 1   
    47   23   24 ar  
    48   23   29 1   
    49   24   25 ar  
    50   24   50 1   
    51   25   26 ar  
    52   25   30 1   
    53   26   51 1   
    54   27   28 1   
    55   27   32 2   
    56   28   52 1   
    57   28   53 1   
    58   28   62 1   
    59   29   54 1   
    60   29   55 1   
    61   29   56 1   
    62   30   57 1   
    63   30   58 1   
    64   30   59 1   
    65   32   60 1   
@<TRIPOS>SUBSTRUCTURE
     1 CMI         1 TEMP              0 ****  ****    0 ROOT
