@<TRIPOS>MOLECULE
CMJ
  131   130     1     0     0
SMALL
bcc


@<TRIPOS>ATOM
      1 C2          4.4830    9.4660  -10.2820 c3        1 CMJ     -0.080400
      2 C4          2.6850   10.8490   -9.3040 c3        1 CMJ     -0.079400
      3 C5          1.2620   10.8390   -8.7900 c3        1 CMJ     -0.079400
      4 C6          1.0670   11.9850   -7.8230 c3        1 CMJ     -0.078400
      5 C43         9.7500  -17.2350    9.4070 c3        1 CMJ     -0.092100
      6 C42         9.5780  -15.9630    8.6060 c3        1 CMJ     -0.080400
      7 C41         8.1530  -15.4720    8.7390 c3        1 CMJ     -0.079400
      8 C40         7.9140  -14.3470    7.7560 c3        1 CMJ     -0.079400
      9 C39         6.4660  -13.9130    7.8290 c3        1 CMJ     -0.079400
     10 C38         6.1750  -12.9390    6.7090 c3        1 CMJ     -0.079400
     11 C37         4.7880  -12.3620    6.8900 c3        1 CMJ     -0.079400
     12 C36         4.3680  -11.6500    5.6230 c3        1 CMJ     -0.079400
     13 C35         3.2560  -10.6740    5.9380 c3        1 CMJ     -0.079400
     14 C34         2.7210  -10.0870    4.6510 c3        1 CMJ     -0.079400
     15 C33         1.7860   -8.9400    4.9700 c3        1 CMJ     -0.079400
     16 C32         1.1920   -8.4020    3.6870 c3        1 CMJ     -0.079400
     17 C31         0.3660   -7.1720    3.9910 c3        1 CMJ     -0.079400
     18 C30        -0.3360   -6.7120    2.7320 c3        1 CMJ     -0.079400
     19 C29        -0.7990   -5.2820    2.9050 c3        1 CMJ     -0.079400
     20 C28        -1.8630   -4.9680    1.8770 c3        1 CMJ     -0.079400
     21 C27        -1.7890   -3.5030    1.5080 c3        1 CMJ     -0.079400
     22 C26        -3.1740   -2.9990    1.1650 c3        1 CMJ     -0.079400
     23 C25        -3.0650   -1.6710    0.4490 c3        1 CMJ     -0.079400
     24 C24        -4.3930   -0.9490    0.5200 c3        1 CMJ     -0.079400
     25 C23        -4.3040    0.3480   -0.2530 c3        1 CMJ     -0.079400
     26 C22        -5.5080    1.2070    0.0630 c3        1 CMJ     -0.076400
     27 C20        -5.5640    2.3720   -0.9010 c3        1 CMJ     -0.064700
     28 C21        -6.4260    2.0040   -2.0880 c3        1 CMJ     -0.089100
     29 C19        -6.1550    3.5770   -0.2030 c3        1 CMJ     -0.076400
     30 C18        -5.3720    4.8140   -0.5810 c3        1 CMJ     -0.079400
     31 C17        -6.3000    6.0080   -0.6160 c3        1 CMJ     -0.078400
     32 C16        -5.5210    7.2630   -0.2890 c3        1 CMJ     -0.078400
     33 C15        -5.8840    8.3530   -1.2730 c3        1 CMJ     -0.079400
     34 C14        -4.9500    9.5290   -1.0900 c3        1 CMJ     -0.079400
     35 C13        -4.9950   10.4050   -2.3230 c3        1 CMJ     -0.079400
     36 C12        -3.7020   11.1820   -2.4370 c3        1 CMJ     -0.079400
     37 C11        -3.5910   11.7760   -3.8240 c3        1 CMJ     -0.079400
     38 C10        -2.1420   12.0920   -4.1230 c3        1 CMJ     -0.079400
     39 C9         -1.9890   12.4130   -5.5940 c3        1 CMJ     -0.079400
     40 C8         -0.5250   12.3610   -5.9720 c3        1 CMJ     -0.079400
     41 C7         -0.3970   12.0900   -7.4540 c3        1 CMJ     -0.078400
     42 C3          3.0950    9.4420   -9.6800 c3        1 CMJ     -0.079400
     43 C1          5.0100    8.0520  -10.3900 c3        1 CMJ     -0.092100
     44 H2          5.0780    9.9920   -9.7100 hc        1 CMJ      0.038700
     45 H2A         4.4460    9.8680  -11.1720 hc        1 CMJ      0.038700
     46 H4          2.7430   11.4270  -10.0910 hc        1 CMJ      0.038700
     47 H4A         3.2810   11.1870   -8.6060 hc        1 CMJ      0.038700
     48 H5          1.0870    9.9920   -8.3330 hc        1 CMJ      0.040200
     49 H5A         0.6430   10.9370   -9.5420 hc        1 CMJ      0.040200
     50 H6          1.3590   12.8190   -8.2420 hc        1 CMJ      0.039200
     51 H6A         1.5950   11.8240   -7.0150 hc        1 CMJ      0.039200
     52 H43         9.3980  -17.9930    8.8950 hc        1 CMJ      0.032700
     53 H43A       10.7020  -17.3790    9.5910 hc        1 CMJ      0.032700
     54 H43B        9.2620  -17.1570   10.2530 hc        1 CMJ      0.032700
     55 H42         9.7750  -16.1410    7.6650 hc        1 CMJ      0.038700
     56 H42A       10.1910  -15.2800    8.9440 hc        1 CMJ      0.038700
     57 H41         7.5360  -16.2070    8.5510 hc        1 CMJ      0.039700
     58 H41A        8.0040  -15.1460    9.6500 hc        1 CMJ      0.039700
     59 H40         8.1160  -14.6570    6.8510 hc        1 CMJ      0.039700
     60 H40A        8.4920  -13.5910    7.9790 hc        1 CMJ      0.039700
     61 H39         6.2990  -13.4800    8.6900 hc        1 CMJ      0.039700
     62 H39A        5.8860  -14.6960    7.7400 hc        1 CMJ      0.039700
     63 H38         6.2240  -13.4050    5.8500 hc        1 CMJ      0.039700
     64 H38A        6.8330  -12.2160    6.7260 hc        1 CMJ      0.039700
     65 H37         4.7930  -11.7280    7.6350 hc        1 CMJ      0.039700
     66 H37A        4.1570  -13.0850    7.0830 hc        1 CMJ      0.039700
     67 H36         4.0510  -12.3060    4.9700 hc        1 CMJ      0.039700
     68 H36A        5.1320  -11.1650    5.2540 hc        1 CMJ      0.039700
     69 H35         3.6020   -9.9560    6.5050 hc        1 CMJ      0.039700
     70 H35A        2.5360  -11.1410    6.4080 hc        1 CMJ      0.039700
     71 H34         2.2340  -10.7760    4.1560 hc        1 CMJ      0.039700
     72 H34A        3.4650   -9.7590    4.1080 hc        1 CMJ      0.039700
     73 H33         2.2840   -8.2300    5.4220 hc        1 CMJ      0.039700
     74 H33A        1.0680   -9.2580    5.5530 hc        1 CMJ      0.039700
     75 H32         1.9120   -8.1670    3.0680 hc        1 CMJ      0.039700
     76 H32A        0.6220   -9.0850    3.2800 hc        1 CMJ      0.039700
     77 H31        -0.2980   -7.3860    4.6750 hc        1 CMJ      0.039700
     78 H31A        0.9510   -6.4580    4.3160 hc        1 CMJ      0.039700
     79 H30         0.2810   -6.7660    1.9750 hc        1 CMJ      0.039700
     80 H30A       -1.1100   -7.2870    2.5620 hc        1 CMJ      0.039700
     81 H29        -0.0400   -4.6770    2.7850 hc        1 CMJ      0.039700
     82 H29A       -1.1690   -5.1660    3.8030 hc        1 CMJ      0.039700
     83 H28        -2.7450   -5.1670    2.2490 hc        1 CMJ      0.039700
     84 H28A       -1.7150   -5.5130    1.0780 hc        1 CMJ      0.039700
     85 H27        -1.2010   -3.3900    0.7340 hc        1 CMJ      0.039700
     86 H27A       -1.4350   -2.9930    2.2640 hc        1 CMJ      0.039700
     87 H26        -3.6220   -3.6470    0.5840 hc        1 CMJ      0.039700
     88 H26A       -3.6920   -2.8850    1.9870 hc        1 CMJ      0.039700
     89 H25        -2.8270   -1.8240   -0.4870 hc        1 CMJ      0.039700
     90 H25A       -2.3750   -1.1260    0.8760 hc        1 CMJ      0.039700
     91 H24        -4.6110   -0.7580    1.4540 hc        1 CMJ      0.039700
     92 H24A       -5.0920   -1.5130    0.1310 hc        1 CMJ      0.039700
     93 H23        -3.4880    0.8240    0.0010 hc        1 CMJ      0.040200
     94 H23A       -4.2830    0.1560   -1.2120 hc        1 CMJ      0.040200
     95 H22        -5.4370    1.5450    0.9780 hc        1 CMJ      0.039700
     96 H22A       -6.3230    0.6720   -0.0250 hc        1 CMJ      0.039700
     97 H20        -4.6610    2.5840   -1.2070 hc        1 CMJ      0.047700
     98 H21        -6.3950    2.7250   -2.7510 hc        1 CMJ      0.033700
     99 H21A       -7.3510    1.8720   -1.7920 hc        1 CMJ      0.033700
    100 H21B       -6.0900    1.1760   -2.4910 hc        1 CMJ      0.033700
    101 H19        -6.1110    3.4470    0.7660 hc        1 CMJ      0.039700
    102 H19A       -7.0880    3.6860   -0.4750 hc        1 CMJ      0.039700
    103 H18        -4.6670    4.9690    0.0790 hc        1 CMJ      0.040700
    104 H18A       -4.9700    4.6880   -1.4640 hc        1 CMJ      0.040700
    105 H17        -7.0130    5.8860    0.0430 hc        1 CMJ      0.039200
    106 H17A       -6.6920    6.0910   -1.5090 hc        1 CMJ      0.039200
    107 H16        -4.5630    7.0760   -0.3480 hc        1 CMJ      0.039200
    108 H16A       -5.7410    7.5560    0.6180 hc        1 CMJ      0.039200
    109 H15        -6.8060    8.6410   -1.1160 hc        1 CMJ      0.040200
    110 H15A       -5.8010    8.0090   -2.1860 hc        1 CMJ      0.040200
    111 H14        -4.0380    9.2030   -0.9550 hc        1 CMJ      0.039200
    112 H14A       -5.2300   10.0490   -0.3100 hc        1 CMJ      0.039200
    113 H13        -5.7450   11.0290   -2.2520 hc        1 CMJ      0.039700
    114 H13A       -5.1110    9.8460   -3.1170 hc        1 CMJ      0.039700
    115 H12        -2.9460   10.5820   -2.2780 hc        1 CMJ      0.039700
    116 H12A       -3.6930   11.9000   -1.7730 hc        1 CMJ      0.039700
    117 H11        -4.1210   12.5970   -3.8710 hc        1 CMJ      0.039700
    118 H11A       -3.9270   11.1340   -4.4820 hc        1 CMJ      0.039700
    119 H10        -1.5870   11.3190   -3.8990 hc        1 CMJ      0.039700
    120 H10A       -1.8600   12.8620   -3.5900 hc        1 CMJ      0.039700
    121 H9         -2.3400   13.3100   -5.7700 hc        1 CMJ      0.039200
    122 H9A        -2.4870   11.7590   -6.1240 hc        1 CMJ      0.039200
    123 H8         -0.0840   11.6470   -5.4700 hc        1 CMJ      0.040200
    124 H8A        -0.1030   13.2170   -5.7590 hc        1 CMJ      0.040200
    125 H7         -0.8490   11.2510   -7.6730 hc        1 CMJ      0.039200
    126 H7A        -0.8070   12.8230   -7.9560 hc        1 CMJ      0.039200
    127 H3          2.4630    9.0810  -10.3330 hc        1 CMJ      0.039700
    128 H3A         3.0960    8.8780   -8.8810 hc        1 CMJ      0.039700
    129 H1          4.3150    7.4720  -10.7650 hc        1 CMJ      0.032700
    130 H1A         5.2610    7.7270   -9.4990 hc        1 CMJ      0.032700
    131 H1B         5.7960    8.0400  -10.9750 hc        1 CMJ      0.032700
@<TRIPOS>BOND
     1    1   42 1   
     2    1   43 1   
     3    1   44 1   
     4    1   45 1   
     5    2    3 1   
     6    2   42 1   
     7    2   46 1   
     8    2   47 1   
     9    3    4 1   
    10    3   48 1   
    11    3   49 1   
    12    4   41 1   
    13    4   50 1   
    14    4   51 1   
    15    5    6 1   
    16    5   52 1   
    17    5   53 1   
    18    5   54 1   
    19    6    7 1   
    20    6   55 1   
    21    6   56 1   
    22    7    8 1   
    23    7   57 1   
    24    7   58 1   
    25    8    9 1   
    26    8   59 1   
    27    8   60 1   
    28    9   10 1   
    29    9   61 1   
    30    9   62 1   
    31   10   11 1   
    32   10   63 1   
    33   10   64 1   
    34   11   12 1   
    35   11   65 1   
    36   11   66 1   
    37   12   13 1   
    38   12   67 1   
    39   12   68 1   
    40   13   14 1   
    41   13   69 1   
    42   13   70 1   
    43   14   15 1   
    44   14   71 1   
    45   14   72 1   
    46   15   16 1   
    47   15   73 1   
    48   15   74 1   
    49   16   17 1   
    50   16   75 1   
    51   16   76 1   
    52   17   18 1   
    53   17   77 1   
    54   17   78 1   
    55   18   19 1   
    56   18   79 1   
    57   18   80 1   
    58   19   20 1   
    59   19   81 1   
    60   19   82 1   
    61   20   21 1   
    62   20   83 1   
    63   20   84 1   
    64   21   22 1   
    65   21   85 1   
    66   21   86 1   
    67   22   23 1   
    68   22   87 1   
    69   22   88 1   
    70   23   24 1   
    71   23   89 1   
    72   23   90 1   
    73   24   25 1   
    74   24   91 1   
    75   24   92 1   
    76   25   26 1   
    77   25   93 1   
    78   25   94 1   
    79   26   27 1   
    80   26   95 1   
    81   26   96 1   
    82   27   28 1   
    83   27   29 1   
    84   27   97 1   
    85   28   98 1   
    86   28   99 1   
    87   28  100 1   
    88   29   30 1   
    89   29  101 1   
    90   29  102 1   
    91   30   31 1   
    92   30  103 1   
    93   30  104 1   
    94   31   32 1   
    95   31  105 1   
    96   31  106 1   
    97   32   33 1   
    98   32  107 1   
    99   32  108 1   
   100   33   34 1   
   101   33  109 1   
   102   33  110 1   
   103   34   35 1   
   104   34  111 1   
   105   34  112 1   
   106   35   36 1   
   107   35  113 1   
   108   35  114 1   
   109   36   37 1   
   110   36  115 1   
   111   36  116 1   
   112   37   38 1   
   113   37  117 1   
   114   37  118 1   
   115   38   39 1   
   116   38  119 1   
   117   38  120 1   
   118   39   40 1   
   119   39  121 1   
   120   39  122 1   
   121   40   41 1   
   122   40  123 1   
   123   40  124 1   
   124   41  125 1   
   125   41  126 1   
   126   42  127 1   
   127   42  128 1   
   128   43  129 1   
   129   43  130 1   
   130   43  131 1   
@<TRIPOS>SUBSTRUCTURE
     1 CMJ         1 TEMP              0 ****  ****    0 ROOT
