@<TRIPOS>MOLECULE
CMJ
  131   130     1     0     0
SMALL
bcc


@<TRIPOS>ATOM
      1 C2          0.5350    1.5140    0.3040 c3        1 CMJ     -0.080400
      2 C4          2.4820    1.1770   -1.2280 c3        1 CMJ     -0.079400
      3 C5          3.9720    0.9270   -1.3170 c3        1 CMJ     -0.079400
      4 C6          4.4290    0.8400   -2.7580 c3        1 CMJ     -0.079400
      5 C43        40.6350    4.1620  -28.2040 c3        1 CMJ     -0.092100
      6 C42        40.0850    3.8470  -26.8370 c3        1 CMJ     -0.080400
      7 C41        38.5840    3.6510  -26.8740 c3        1 CMJ     -0.079400
      8 C40        38.0360    3.3350  -25.4990 c3        1 CMJ     -0.079400
      9 C39        36.5350    3.1390  -25.5380 c3        1 CMJ     -0.079400
     10 C38        35.9870    2.8220  -24.1630 c3        1 CMJ     -0.079400
     11 C37        34.4860    2.6270  -24.2010 c3        1 CMJ     -0.079400
     12 C36        33.9390    2.3090  -22.8260 c3        1 CMJ     -0.079400
     13 C35        32.4380    2.1130  -22.8640 c3        1 CMJ     -0.079400
     14 C34        31.8910    1.7940  -21.4900 c3        1 CMJ     -0.079400
     15 C33        30.3900    1.5980  -21.5270 c3        1 CMJ     -0.079400
     16 C32        29.8430    1.2760  -20.1530 c3        1 CMJ     -0.079400
     17 C31        28.3430    1.0800  -20.1910 c3        1 CMJ     -0.079400
     18 C30        27.7970    0.7560  -18.8170 c3        1 CMJ     -0.079400
     19 C29        26.2970    0.5590  -18.8540 c3        1 CMJ     -0.079400
     20 C28        25.7510    0.2330  -17.4800 c3        1 CMJ     -0.079400
     21 C27        24.2510    0.0360  -17.5170 c3        1 CMJ     -0.079400
     22 C26        23.7060   -0.2940  -16.1430 c3        1 CMJ     -0.079400
     23 C25        22.2060   -0.4900  -16.1800 c3        1 CMJ     -0.079400
     24 C24        21.6620   -0.8240  -14.8070 c3        1 CMJ     -0.079400
     25 C23        20.1610   -1.0170  -14.8420 c3        1 CMJ     -0.079400
     26 C22        19.6240   -1.3650  -13.4700 c3        1 CMJ     -0.076400
     27 C20        18.1060   -1.4930  -13.4560 c3        1 CMJ     -0.064700
     28 C21        17.6630   -2.7590  -14.1580 c3        1 CMJ     -0.089100
     29 C19        17.6010   -1.4640  -12.0190 c3        1 CMJ     -0.076400
     30 C18        16.1120   -1.2000  -11.9350 c3        1 CMJ     -0.079400
     31 C17        15.6550   -1.1110  -10.4940 c3        1 CMJ     -0.079400
     32 C16        14.1650   -0.8580  -10.4050 c3        1 CMJ     -0.079400
     33 C15        13.7080   -0.7670   -8.9650 c3        1 CMJ     -0.079400
     34 C14        12.2180   -0.5150   -8.8760 c3        1 CMJ     -0.079400
     35 C13        11.7610   -0.4260   -7.4360 c3        1 CMJ     -0.079400
     36 C12        10.2710   -0.1750   -7.3470 c3        1 CMJ     -0.079400
     37 C11         9.8140   -0.0860   -5.9070 c3        1 CMJ     -0.079400
     38 C10         8.3240    0.1640   -5.8170 c3        1 CMJ     -0.079400
     39 C9          7.8670    0.2520   -4.3770 c3        1 CMJ     -0.079400
     40 C8          6.3770    0.5030   -4.2870 c3        1 CMJ     -0.079400
     41 C7          5.9200    0.5900   -2.8470 c3        1 CMJ     -0.079400
     42 C3          2.0250    1.2640    0.2130 c3        1 CMJ     -0.079400
     43 C1          0.0750    1.6010    1.7360 c3        1 CMJ     -0.092100
     44 H2         -0.0150    0.6880   -0.2190 hc        1 CMJ      0.038700
     45 H2A         0.2830    2.4680   -0.2310 hc        1 CMJ      0.038700
     46 H4          1.9300    0.3510   -1.7480 hc        1 CMJ      0.039700
     47 H4A         2.2280    2.1310   -1.7610 hc        1 CMJ      0.039700
     48 H5          4.2260   -0.0270   -0.7840 hc        1 CMJ      0.039700
     49 H5A         4.5240    1.7530   -0.7970 hc        1 CMJ      0.039700
     50 H6          4.1760    1.7940   -3.2910 hc        1 CMJ      0.039700
     51 H6A         3.8770    0.0140   -3.2780 hc        1 CMJ      0.039700
     52 H43        41.7420    4.3030  -28.1540 hc        1 CMJ      0.032700
     53 H43A       40.4170    3.3320  -28.9180 hc        1 CMJ      0.032700
     54 H43B       40.1790    5.0980  -28.6070 hc        1 CMJ      0.032700
     55 H42        40.3350    4.6810  -26.1290 hc        1 CMJ      0.038700
     56 H42A       40.5730    2.9190  -26.4390 hc        1 CMJ      0.038700
     57 H41        38.0940    4.5800  -27.2700 hc        1 CMJ      0.039700
     58 H41A       38.3320    2.8170  -27.5810 hc        1 CMJ      0.039700
     59 H40        38.2880    4.1690  -24.7930 hc        1 CMJ      0.039700
     60 H40A       38.5260    2.4070  -25.1030 hc        1 CMJ      0.039700
     61 H39        36.0450    4.0670  -25.9330 hc        1 CMJ      0.039700
     62 H39A       36.2830    2.3050  -26.2440 hc        1 CMJ      0.039700
     63 H38        36.2390    3.6560  -23.4560 hc        1 CMJ      0.039700
     64 H38A       36.4770    1.8940  -23.7670 hc        1 CMJ      0.039700
     65 H37        34.2340    1.7930  -24.9080 hc        1 CMJ      0.039700
     66 H37A       33.9960    3.5550  -24.5960 hc        1 CMJ      0.039700
     67 H36        34.4290    1.3800  -22.4310 hc        1 CMJ      0.039700
     68 H36A       34.1910    3.1420  -22.1190 hc        1 CMJ      0.039700
     69 H35        31.9480    3.0420  -23.2580 hc        1 CMJ      0.039700
     70 H35A       32.1850    1.2800  -23.5730 hc        1 CMJ      0.039700
     71 H34        32.3820    0.8650  -21.0960 hc        1 CMJ      0.039700
     72 H34A       32.1440    2.6260  -20.7820 hc        1 CMJ      0.039700
     73 H33        30.1370    0.7660  -22.2370 hc        1 CMJ      0.039700
     74 H33A       29.8990    2.5270  -21.9200 hc        1 CMJ      0.039700
     75 H32        30.0960    2.1080  -19.4440 hc        1 CMJ      0.039700
     76 H32A       30.3350    0.3470  -19.7610 hc        1 CMJ      0.039700
     77 H31        28.0900    0.2490  -20.9010 hc        1 CMJ      0.039700
     78 H31A       27.8520    2.0100  -20.5810 hc        1 CMJ      0.039700
     79 H30        28.2880   -0.1740  -18.4260 hc        1 CMJ      0.039700
     80 H30A       28.0500    1.5870  -18.1060 hc        1 CMJ      0.039700
     81 H29        26.0430   -0.2700  -19.5660 hc        1 CMJ      0.039700
     82 H29A       25.8050    1.4900  -19.2420 hc        1 CMJ      0.039700
     83 H28        26.0040    1.0620  -16.7680 hc        1 CMJ      0.039700
     84 H28A       26.2430   -0.6980  -17.0920 hc        1 CMJ      0.039700
     85 H27        23.7590    0.9680  -17.9030 hc        1 CMJ      0.039700
     86 H27A       23.9970   -0.7920  -18.2300 hc        1 CMJ      0.039700
     87 H26        23.9600    0.5340  -15.4300 hc        1 CMJ      0.039700
     88 H26A       24.1980   -1.2250  -15.7580 hc        1 CMJ      0.039700
     89 H25        21.9520   -1.3160  -16.8960 hc        1 CMJ      0.039700
     90 H25A       21.7130    0.4420  -16.5630 hc        1 CMJ      0.039700
     91 H24        21.9190    0.0010  -14.0900 hc        1 CMJ      0.039700
     92 H24A       22.1530   -1.7580  -14.4250 hc        1 CMJ      0.039700
     93 H23        19.6700   -0.0790  -15.2130 hc        1 CMJ      0.040200
     94 H23A       19.9070   -1.8330  -15.5700 hc        1 CMJ      0.040200
     95 H22        20.0810   -2.3260  -13.1180 hc        1 CMJ      0.039700
     96 H22A       19.9350   -0.5650  -12.7470 hc        1 CMJ      0.039700
     97 H20        17.6700   -0.6090  -14.0030 hc        1 CMJ      0.047700
     98 H21        18.0130   -2.7610  -15.2190 hc        1 CMJ      0.033700
     99 H21A       16.5490   -2.8380  -14.1580 hc        1 CMJ      0.033700
    100 H21B       18.0800   -3.6600  -13.6470 hc        1 CMJ      0.033700
    101 H19        18.1430   -0.6600  -11.4510 hc        1 CMJ      0.039700
    102 H19A       17.8400   -2.4390  -11.5200 hc        1 CMJ      0.039700
    103 H18        15.5490   -2.0180  -12.4550 hc        1 CMJ      0.040200
    104 H18A       15.8680   -0.2420  -12.4660 hc        1 CMJ      0.040200
    105 H17        15.9070   -2.0650   -9.9600 hc        1 CMJ      0.039700
    106 H17A       16.2080   -0.2850   -9.9730 hc        1 CMJ      0.039700
    107 H16        13.6120   -1.6840  -10.9250 hc        1 CMJ      0.039700
    108 H16A       13.9130    0.0960  -10.9410 hc        1 CMJ      0.039700
    109 H15        14.2610    0.0600   -8.4460 hc        1 CMJ      0.039700
    110 H15A       13.9610   -1.7200   -8.4300 hc        1 CMJ      0.039700
    111 H14        11.6650   -1.3420   -9.3960 hc        1 CMJ      0.039700
    112 H14A       11.9650    0.4380   -9.4110 hc        1 CMJ      0.039700
    113 H13        12.3140    0.4010   -6.9170 hc        1 CMJ      0.039700
    114 H13A       12.0140   -1.3800   -6.9020 hc        1 CMJ      0.039700
    115 H12        10.0180    0.7790   -7.8810 hc        1 CMJ      0.039700
    116 H12A        9.7180   -1.0010   -7.8670 hc        1 CMJ      0.039700
    117 H11        10.3660    0.7400   -5.3870 hc        1 CMJ      0.039700
    118 H11A       10.0670   -1.0400   -5.3720 hc        1 CMJ      0.039700
    119 H10         8.0700    1.1180   -6.3510 hc        1 CMJ      0.039700
    120 H10A        7.7710   -0.6620   -6.3380 hc        1 CMJ      0.039700
    121 H9          8.1200   -0.7020   -3.8430 hc        1 CMJ      0.039700
    122 H9A         8.4190    1.0790   -3.8570 hc        1 CMJ      0.039700
    123 H8          6.1230    1.4570   -4.8210 hc        1 CMJ      0.039700
    124 H8A         5.8240   -0.3240   -4.8080 hc        1 CMJ      0.039700
    125 H7          6.1730   -0.3640   -2.3140 hc        1 CMJ      0.039700
    126 H7A         6.4720    1.4160   -2.3270 hc        1 CMJ      0.039700
    127 H3          2.5770    2.0910    0.7340 hc        1 CMJ      0.039700
    128 H3A         2.2790    0.3100    0.7460 hc        1 CMJ      0.039700
    129 H1          0.5940    2.4350    2.2670 hc        1 CMJ      0.032700
    130 H1A        -1.0250    1.7860    1.7800 hc        1 CMJ      0.032700
    131 H1B         0.2950    0.6500    2.2790 hc        1 CMJ      0.032700
@<TRIPOS>BOND
     1    1   42 1   
     2    1   43 1   
     3    1   44 1   
     4    1   45 1   
     5    2    3 1   
     6    2   42 1   
     7    2   46 1   
     8    2   47 1   
     9    3    4 1   
    10    3   48 1   
    11    3   49 1   
    12    4   41 1   
    13    4   50 1   
    14    4   51 1   
    15    5    6 1   
    16    5   52 1   
    17    5   53 1   
    18    5   54 1   
    19    6    7 1   
    20    6   55 1   
    21    6   56 1   
    22    7    8 1   
    23    7   57 1   
    24    7   58 1   
    25    8    9 1   
    26    8   59 1   
    27    8   60 1   
    28    9   10 1   
    29    9   61 1   
    30    9   62 1   
    31   10   11 1   
    32   10   63 1   
    33   10   64 1   
    34   11   12 1   
    35   11   65 1   
    36   11   66 1   
    37   12   13 1   
    38   12   67 1   
    39   12   68 1   
    40   13   14 1   
    41   13   69 1   
    42   13   70 1   
    43   14   15 1   
    44   14   71 1   
    45   14   72 1   
    46   15   16 1   
    47   15   73 1   
    48   15   74 1   
    49   16   17 1   
    50   16   75 1   
    51   16   76 1   
    52   17   18 1   
    53   17   77 1   
    54   17   78 1   
    55   18   19 1   
    56   18   79 1   
    57   18   80 1   
    58   19   20 1   
    59   19   81 1   
    60   19   82 1   
    61   20   21 1   
    62   20   83 1   
    63   20   84 1   
    64   21   22 1   
    65   21   85 1   
    66   21   86 1   
    67   22   23 1   
    68   22   87 1   
    69   22   88 1   
    70   23   24 1   
    71   23   89 1   
    72   23   90 1   
    73   24   25 1   
    74   24   91 1   
    75   24   92 1   
    76   25   26 1   
    77   25   93 1   
    78   25   94 1   
    79   26   27 1   
    80   26   95 1   
    81   26   96 1   
    82   27   28 1   
    83   27   29 1   
    84   27   97 1   
    85   28   98 1   
    86   28   99 1   
    87   28  100 1   
    88   29   30 1   
    89   29  101 1   
    90   29  102 1   
    91   30   31 1   
    92   30  103 1   
    93   30  104 1   
    94   31   32 1   
    95   31  105 1   
    96   31  106 1   
    97   32   33 1   
    98   32  107 1   
    99   32  108 1   
   100   33   34 1   
   101   33  109 1   
   102   33  110 1   
   103   34   35 1   
   104   34  111 1   
   105   34  112 1   
   106   35   36 1   
   107   35  113 1   
   108   35  114 1   
   109   36   37 1   
   110   36  115 1   
   111   36  116 1   
   112   37   38 1   
   113   37  117 1   
   114   37  118 1   
   115   38   39 1   
   116   38  119 1   
   117   38  120 1   
   118   39   40 1   
   119   39  121 1   
   120   39  122 1   
   121   40   41 1   
   122   40  123 1   
   123   40  124 1   
   124   41  125 1   
   125   41  126 1   
   126   42  127 1   
   127   42  128 1   
   128   43  129 1   
   129   43  130 1   
   130   43  131 1   
@<TRIPOS>SUBSTRUCTURE
     1 CMJ         1 TEMP              0 ****  ****    0 ROOT
