@<TRIPOS>MOLECULE
CMJ
  131   130     1     0     0
SMALL
bcc


@<TRIPOS>ATOM
      1 C2          0.5090    1.5600    0.2480 c3        1 CMJ     -0.080400
      2 C4          2.4630    1.2100   -1.2720 c3        1 CMJ     -0.079400
      3 C5          3.9570    0.9800   -1.3530 c3        1 CMJ     -0.079400
      4 C6          4.4180    0.8600   -2.7900 c3        1 CMJ     -0.079400
      5 C43        40.5810    4.2370  -28.2410 c3        1 CMJ     -0.092100
      6 C42        40.0400    3.9130  -26.8730 c3        1 CMJ     -0.080400
      7 C41        38.5400    3.7070  -26.9030 c3        1 CMJ     -0.079400
      8 C40        38.0010    3.3820  -25.5270 c3        1 CMJ     -0.079400
      9 C39        36.5020    3.1770  -25.5590 c3        1 CMJ     -0.079400
     10 C38        35.9620    2.8510  -24.1820 c3        1 CMJ     -0.079400
     11 C37        34.4630    2.6460  -24.2140 c3        1 CMJ     -0.079400
     12 C36        33.9240    2.3200  -22.8380 c3        1 CMJ     -0.079400
     13 C35        32.4240    2.1150  -22.8690 c3        1 CMJ     -0.079400
     14 C34        31.8850    1.7900  -21.4930 c3        1 CMJ     -0.079400
     15 C33        30.3860    1.5840  -21.5250 c3        1 CMJ     -0.079400
     16 C32        29.8460    1.2590  -20.1480 c3        1 CMJ     -0.079400
     17 C31        28.3470    1.0530  -20.1800 c3        1 CMJ     -0.079400
     18 C30        27.8070    0.7280  -18.8040 c3        1 CMJ     -0.079400
     19 C29        26.3080    0.5220  -18.8360 c3        1 CMJ     -0.079400
     20 C28        25.7680    0.1970  -17.4600 c3        1 CMJ     -0.079400
     21 C27        24.2690   -0.0090  -17.4910 c3        1 CMJ     -0.079400
     22 C26        23.7300   -0.3340  -16.1150 c3        1 CMJ     -0.079400
     23 C25        22.2300   -0.5400  -16.1470 c3        1 CMJ     -0.079400
     24 C24        21.6910   -0.8660  -14.7710 c3        1 CMJ     -0.079400
     25 C23        20.1910   -1.0690  -14.8030 c3        1 CMJ     -0.079400
     26 C22        19.6570   -1.4050  -13.4270 c3        1 CMJ     -0.076400
     27 C20        18.1400   -1.5480  -13.4110 c3        1 CMJ     -0.064700
     28 C21        17.7120   -2.8330  -14.0880 c3        1 CMJ     -0.089100
     29 C19        17.6330   -1.4940  -11.9760 c3        1 CMJ     -0.076400
     30 C18        16.1410   -1.2510  -11.8990 c3        1 CMJ     -0.079400
     31 C17        15.6800   -1.1320  -10.4620 c3        1 CMJ     -0.079400
     32 C16        14.1870   -0.8990  -10.3810 c3        1 CMJ     -0.079400
     33 C15        13.7270   -0.7780   -8.9440 c3        1 CMJ     -0.079400
     34 C14        12.2330   -0.5460   -8.8630 c3        1 CMJ     -0.079400
     35 C13        11.7730   -0.4250   -7.4260 c3        1 CMJ     -0.079400
     36 C12        10.2790   -0.1940   -7.3450 c3        1 CMJ     -0.079400
     37 C11         9.8190   -0.0730   -5.9080 c3        1 CMJ     -0.079400
     38 C10         8.3250    0.1580   -5.8270 c3        1 CMJ     -0.079400
     39 C9          7.8650    0.2790   -4.3900 c3        1 CMJ     -0.079400
     40 C8          6.3720    0.5090   -4.3080 c3        1 CMJ     -0.079400
     41 C7          5.9110    0.6300   -2.8710 c3        1 CMJ     -0.079400
     42 C3          2.0030    1.3300    0.1650 c3        1 CMJ     -0.079400
     43 C1          0.0460    1.6800    1.6770 c3        1 CMJ     -0.092100
     44 H2         -0.0280    0.7110   -0.2520 hc        1 CMJ      0.038700
     45 H2A         0.2430    2.4940   -0.3140 hc        1 CMJ      0.038700
     46 H4          1.9250    0.3610   -1.7700 hc        1 CMJ      0.039700
     47 H4A         2.1960    2.1450   -1.8320 hc        1 CMJ      0.039700
     48 H5          4.2250    0.0450   -0.7930 hc        1 CMJ      0.039700
     49 H5A         4.4960    1.8290   -0.8550 hc        1 CMJ      0.039700
     50 H6          4.1500    1.7950   -3.3500 hc        1 CMJ      0.039700
     51 H6A         3.8790    0.0110   -3.2880 hc        1 CMJ      0.039700
     52 H43        41.6870    4.3850  -28.1960 hc        1 CMJ      0.032700
     53 H43A       40.3650    3.4080  -28.9580 hc        1 CMJ      0.032700
     54 H43B       40.1170    5.1720  -28.6380 hc        1 CMJ      0.032700
     55 H42        40.2880    4.7460  -26.1630 hc        1 CMJ      0.038700
     56 H42A       40.5360    2.9860  -26.4810 hc        1 CMJ      0.038700
     57 H41        38.0420    4.6340  -27.2940 hc        1 CMJ      0.039700
     58 H41A       38.2900    2.8740  -27.6120 hc        1 CMJ      0.039700
     59 H40        38.2510    4.2150  -24.8180 hc        1 CMJ      0.039700
     60 H40A       38.4990    2.4560  -25.1370 hc        1 CMJ      0.039700
     61 H39        36.0030    4.1030  -25.9490 hc        1 CMJ      0.039700
     62 H39A       36.2510    2.3440  -26.2670 hc        1 CMJ      0.039700
     63 H38        36.2130    3.6840  -23.4740 hc        1 CMJ      0.039700
     64 H38A       36.4610    1.9250  -23.7920 hc        1 CMJ      0.039700
     65 H37        34.2130    1.8120  -24.9220 hc        1 CMJ      0.039700
     66 H37A       33.9650    3.5720  -24.6040 hc        1 CMJ      0.039700
     67 H36        34.4220    1.3940  -22.4470 hc        1 CMJ      0.039700
     68 H36A       34.1740    3.1540  -22.1290 hc        1 CMJ      0.039700
     69 H35        31.9260    3.0410  -23.2590 hc        1 CMJ      0.039700
     70 H35A       32.1740    1.2820  -23.5780 hc        1 CMJ      0.039700
     71 H34        32.3830    0.8630  -21.1030 hc        1 CMJ      0.039700
     72 H34A       32.1350    2.6230  -20.7840 hc        1 CMJ      0.039700
     73 H33        30.1350    0.7510  -22.2330 hc        1 CMJ      0.039700
     74 H33A       29.8870    2.5100  -21.9150 hc        1 CMJ      0.039700
     75 H32        30.0960    2.0920  -19.4400 hc        1 CMJ      0.039700
     76 H32A       30.3450    0.3320  -19.7580 hc        1 CMJ      0.039700
     77 H31        28.0960    0.2200  -20.8890 hc        1 CMJ      0.039700
     78 H31A       27.8480    1.9790  -20.5700 hc        1 CMJ      0.039700
     79 H30        28.3060   -0.1980  -18.4140 hc        1 CMJ      0.039700
     80 H30A       28.0580    1.5610  -18.0950 hc        1 CMJ      0.039700
     81 H29        26.0580   -0.3110  -19.5440 hc        1 CMJ      0.039700
     82 H29A       25.8100    1.4490  -19.2260 hc        1 CMJ      0.039700
     83 H28        26.0190    1.0300  -16.7510 hc        1 CMJ      0.039700
     84 H28A       26.2670   -0.7290  -17.0690 hc        1 CMJ      0.039700
     85 H27        23.7710    0.9180  -17.8810 hc        1 CMJ      0.039700
     86 H27A       24.0190   -0.8420  -18.2000 hc        1 CMJ      0.039700
     87 H26        23.9800    0.4990  -15.4060 hc        1 CMJ      0.039700
     88 H26A       24.2280   -1.2600  -15.7250 hc        1 CMJ      0.039700
     89 H25        21.9800   -1.3720  -16.8560 hc        1 CMJ      0.039700
     90 H25A       21.7320    0.3870  -16.5370 hc        1 CMJ      0.039700
     91 H24        21.9430   -0.0340  -14.0620 hc        1 CMJ      0.039700
     92 H24A       22.1880   -1.7930  -14.3820 hc        1 CMJ      0.039700
     93 H23        19.6940   -0.1380  -15.1840 hc        1 CMJ      0.040200
     94 H23A       19.9420   -1.8940  -15.5210 hc        1 CMJ      0.040200
     95 H22        20.1240   -2.3570  -13.0620 hc        1 CMJ      0.039700
     96 H22A       19.9600   -0.5920  -12.7130 hc        1 CMJ      0.039700
     97 H20        17.6960   -0.6800  -13.9770 hc        1 CMJ      0.047700
     98 H21        18.0690   -2.8560  -15.1460 hc        1 CMJ      0.033700
     99 H21A       16.5980   -2.9200  -14.0930 hc        1 CMJ      0.033700
    100 H21B       18.1330   -3.7190  -13.5540 hc        1 CMJ      0.033700
    101 H19        18.1620   -0.6700  -11.4260 hc        1 CMJ      0.039700
    102 H19A       17.8860   -2.4550  -11.4550 hc        1 CMJ      0.039700
    103 H18        15.5900   -2.0910  -12.3990 hc        1 CMJ      0.040200
    104 H18A       15.8830   -0.3100  -12.4540 hc        1 CMJ      0.040200
    105 H17        15.9460   -2.0690   -9.9030 hc        1 CMJ      0.039700
    106 H17A       16.2200   -0.2850   -9.9620 hc        1 CMJ      0.039700
    107 H16        13.6460   -1.7470  -10.8780 hc        1 CMJ      0.039700
    108 H16A       13.9210    0.0360  -10.9410 hc        1 CMJ      0.039700
    109 H15        14.2670    0.0700   -8.4460 hc        1 CMJ      0.039700
    110 H15A       13.9930   -1.7130   -8.3830 hc        1 CMJ      0.039700
    111 H14        11.6930   -1.3950   -9.3600 hc        1 CMJ      0.039700
    112 H14A       11.9670    0.3890   -9.4230 hc        1 CMJ      0.039700
    113 H13        12.3130    0.4230   -6.9280 hc        1 CMJ      0.039700
    114 H13A       12.0400   -1.3600   -6.8650 hc        1 CMJ      0.039700
    115 H12        10.0130    0.7410   -7.9050 hc        1 CMJ      0.039700
    116 H12A        9.7400   -1.0420   -7.8420 hc        1 CMJ      0.039700
    117 H11        10.3590    0.7760   -5.4100 hc        1 CMJ      0.039700
    118 H11A       10.0860   -1.0070   -5.3470 hc        1 CMJ      0.039700
    119 H10         8.0590    1.0930   -6.3870 hc        1 CMJ      0.039700
    120 H10A        7.7860   -0.6910   -6.3240 hc        1 CMJ      0.039700
    121 H9          8.1330   -0.6560   -3.8290 hc        1 CMJ      0.039700
    122 H9A         8.4050    1.1280   -3.8920 hc        1 CMJ      0.039700
    123 H8          6.1040    1.4440   -4.8680 hc        1 CMJ      0.039700
    124 H8A         5.8320   -0.3390   -4.8060 hc        1 CMJ      0.039700
    125 H7          6.1790   -0.3050   -2.3110 hc        1 CMJ      0.039700
    126 H7A         6.4500    1.4790   -2.3740 hc        1 CMJ      0.039700
    127 H3          2.5420    2.1790    0.6630 hc        1 CMJ      0.039700
    128 H3A         2.2710    0.3950    0.7250 hc        1 CMJ      0.039700
    129 H1          0.5520    2.5360    2.1850 hc        1 CMJ      0.032700
    130 H1A        -1.0570    1.8490    1.7150 hc        1 CMJ      0.032700
    131 H1B         0.2800    0.7480    2.2470 hc        1 CMJ      0.032700
@<TRIPOS>BOND
     1    1   42 1   
     2    1   43 1   
     3    1   44 1   
     4    1   45 1   
     5    2    3 1   
     6    2   42 1   
     7    2   46 1   
     8    2   47 1   
     9    3    4 1   
    10    3   48 1   
    11    3   49 1   
    12    4   41 1   
    13    4   50 1   
    14    4   51 1   
    15    5    6 1   
    16    5   52 1   
    17    5   53 1   
    18    5   54 1   
    19    6    7 1   
    20    6   55 1   
    21    6   56 1   
    22    7    8 1   
    23    7   57 1   
    24    7   58 1   
    25    8    9 1   
    26    8   59 1   
    27    8   60 1   
    28    9   10 1   
    29    9   61 1   
    30    9   62 1   
    31   10   11 1   
    32   10   63 1   
    33   10   64 1   
    34   11   12 1   
    35   11   65 1   
    36   11   66 1   
    37   12   13 1   
    38   12   67 1   
    39   12   68 1   
    40   13   14 1   
    41   13   69 1   
    42   13   70 1   
    43   14   15 1   
    44   14   71 1   
    45   14   72 1   
    46   15   16 1   
    47   15   73 1   
    48   15   74 1   
    49   16   17 1   
    50   16   75 1   
    51   16   76 1   
    52   17   18 1   
    53   17   77 1   
    54   17   78 1   
    55   18   19 1   
    56   18   79 1   
    57   18   80 1   
    58   19   20 1   
    59   19   81 1   
    60   19   82 1   
    61   20   21 1   
    62   20   83 1   
    63   20   84 1   
    64   21   22 1   
    65   21   85 1   
    66   21   86 1   
    67   22   23 1   
    68   22   87 1   
    69   22   88 1   
    70   23   24 1   
    71   23   89 1   
    72   23   90 1   
    73   24   25 1   
    74   24   91 1   
    75   24   92 1   
    76   25   26 1   
    77   25   93 1   
    78   25   94 1   
    79   26   27 1   
    80   26   95 1   
    81   26   96 1   
    82   27   28 1   
    83   27   29 1   
    84   27   97 1   
    85   28   98 1   
    86   28   99 1   
    87   28  100 1   
    88   29   30 1   
    89   29  101 1   
    90   29  102 1   
    91   30   31 1   
    92   30  103 1   
    93   30  104 1   
    94   31   32 1   
    95   31  105 1   
    96   31  106 1   
    97   32   33 1   
    98   32  107 1   
    99   32  108 1   
   100   33   34 1   
   101   33  109 1   
   102   33  110 1   
   103   34   35 1   
   104   34  111 1   
   105   34  112 1   
   106   35   36 1   
   107   35  113 1   
   108   35  114 1   
   109   36   37 1   
   110   36  115 1   
   111   36  116 1   
   112   37   38 1   
   113   37  117 1   
   114   37  118 1   
   115   38   39 1   
   116   38  119 1   
   117   38  120 1   
   118   39   40 1   
   119   39  121 1   
   120   39  122 1   
   121   40   41 1   
   122   40  123 1   
   123   40  124 1   
   124   41  125 1   
   125   41  126 1   
   126   42  127 1   
   127   42  128 1   
   128   43  129 1   
   129   43  130 1   
   130   43  131 1   
@<TRIPOS>SUBSTRUCTURE
     1 CMJ         1 TEMP              0 ****  ****    0 ROOT
