@<TRIPOS>MOLECULE
CMJ
  131   130     1     0     0
SMALL
bcc


@<TRIPOS>ATOM
      1 C2         23.9120    1.2430    1.8580 c3        1 CMJ     -0.080400
      2 C4         21.4640    0.8850    1.4960 c3        1 CMJ     -0.079400
      3 C5         20.2160    1.3910    0.8040 c3        1 CMJ     -0.079400
      4 C6         19.0170    0.5280    1.1330 c3        1 CMJ     -0.079400
      5 C43       -25.3040    1.2410    1.7690 c3        1 CMJ     -0.092100
      6 C42       -24.0540    1.7720    1.1170 c3        1 CMJ     -0.080400
      7 C41       -22.8410    0.9430    1.4820 c3        1 CMJ     -0.079400
      8 C40       -21.5880    1.4800    0.8250 c3        1 CMJ     -0.079400
      9 C39       -20.3770    0.6500    1.1910 c3        1 CMJ     -0.079400
     10 C38       -19.1230    1.1870    0.5340 c3        1 CMJ     -0.079400
     11 C37       -17.9120    0.3570    0.9010 c3        1 CMJ     -0.079400
     12 C36       -16.6580    0.8940    0.2430 c3        1 CMJ     -0.079400
     13 C35       -15.4470    0.0650    0.6100 c3        1 CMJ     -0.079400
     14 C34       -14.1930    0.6020   -0.0470 c3        1 CMJ     -0.079400
     15 C33       -12.9820   -0.2270    0.3210 c3        1 CMJ     -0.079400
     16 C32       -11.7280    0.3100   -0.3360 c3        1 CMJ     -0.079400
     17 C31       -10.5160   -0.5190    0.0320 c3        1 CMJ     -0.079400
     18 C30        -9.2630    0.0190   -0.6240 c3        1 CMJ     -0.079400
     19 C29        -8.0510   -0.8090   -0.2560 c3        1 CMJ     -0.079400
     20 C28        -6.7970   -0.2710   -0.9110 c3        1 CMJ     -0.079400
     21 C27        -5.5850   -1.0990   -0.5420 c3        1 CMJ     -0.079400
     22 C26        -4.3310   -0.5600   -1.1970 c3        1 CMJ     -0.079400
     23 C25        -3.1190   -1.3870   -0.8270 c3        1 CMJ     -0.079400
     24 C24        -1.8650   -0.8480   -1.4820 c3        1 CMJ     -0.079400
     25 C23        -0.6520   -1.6750   -1.1090 c3        1 CMJ     -0.079400
     26 C22         0.5980   -1.1370   -1.7730 c3        1 CMJ     -0.076400
     27 C20         1.8490   -1.9050   -1.3640 c3        1 CMJ     -0.064700
     28 C21         1.8780   -3.2750   -2.0090 c3        1 CMJ     -0.089100
     29 C19         3.0900   -1.1030   -1.7340 c3        1 CMJ     -0.076400
     30 C18         4.3330   -1.6070   -1.0340 c3        1 CMJ     -0.079400
     31 C17         5.5340   -0.7460   -1.3670 c3        1 CMJ     -0.079400
     32 C16         6.7820   -1.2530   -0.6760 c3        1 CMJ     -0.079400
     33 C15         7.9810   -0.3910   -1.0060 c3        1 CMJ     -0.079400
     34 C14         9.2290   -0.8970   -0.3150 c3        1 CMJ     -0.079400
     35 C13        10.4280   -0.0350   -0.6450 c3        1 CMJ     -0.079400
     36 C12        11.6760   -0.5410    0.0460 c3        1 CMJ     -0.079400
     37 C11        12.8760    0.3210   -0.2830 c3        1 CMJ     -0.079400
     38 C10        14.1230   -0.1850    0.4080 c3        1 CMJ     -0.079400
     39 C9         15.3220    0.6780    0.0790 c3        1 CMJ     -0.079400
     40 C8         16.5700    0.1710    0.7700 c3        1 CMJ     -0.079400
     41 C7         17.7690    1.0340    0.4420 c3        1 CMJ     -0.079400
     42 C3         22.6630    1.7480    1.1670 c3        1 CMJ     -0.079400
     43 C1         25.1080    2.0990    1.5340 c3        1 CMJ     -0.092100
     44 H2         23.7460    1.2320    2.9680 hc        1 CMJ      0.038700
     45 H2A        24.1100    0.1840    1.5440 hc        1 CMJ      0.038700
     46 H4         21.3010    0.8750    2.6060 hc        1 CMJ      0.039700
     47 H4A        21.6650   -0.1730    1.1810 hc        1 CMJ      0.039700
     48 H5         20.0150    2.4500    1.1180 hc        1 CMJ      0.039700
     49 H5A        20.3790    1.4020   -0.3060 hc        1 CMJ      0.039700
     50 H6         19.2180   -0.5300    0.8190 hc        1 CMJ      0.039700
     51 H6A        18.8540    0.5180    2.2430 hc        1 CMJ      0.039700
     52 H43       -25.2050    1.2550    2.8810 hc        1 CMJ      0.032700
     53 H43A      -26.1850    1.8670    1.4860 hc        1 CMJ      0.032700
     54 H43B      -25.5010    0.1900    1.4480 hc        1 CMJ      0.032700
     55 H42       -24.1830    1.7740    0.0020 hc        1 CMJ      0.038700
     56 H42A      -23.8870    2.8360    1.4310 hc        1 CMJ      0.038700
     57 H41       -22.7100    0.9410    2.5970 hc        1 CMJ      0.039700
     58 H41A      -23.0060   -0.1210    1.1670 hc        1 CMJ      0.039700
     59 H40       -21.7200    1.4810   -0.2900 hc        1 CMJ      0.039700
     60 H40A      -21.4240    2.5440    1.1400 hc        1 CMJ      0.039700
     61 H39       -20.2450    0.6480    2.3060 hc        1 CMJ      0.039700
     62 H39A      -20.5400   -0.4140    0.8760 hc        1 CMJ      0.039700
     63 H38       -19.2550    1.1880   -0.5810 hc        1 CMJ      0.039700
     64 H38A      -18.9600    2.2510    0.8490 hc        1 CMJ      0.039700
     65 H37       -17.7800    0.3550    2.0150 hc        1 CMJ      0.039700
     66 H37A      -18.0750   -0.7070    0.5860 hc        1 CMJ      0.039700
     67 H36       -16.7890    0.8960   -0.8710 hc        1 CMJ      0.039700
     68 H36A      -16.4950    1.9580    0.5580 hc        1 CMJ      0.039700
     69 H35       -15.3160    0.0630    1.7250 hc        1 CMJ      0.039700
     70 H35A      -15.6100   -1.0000    0.2950 hc        1 CMJ      0.039700
     71 H34       -14.3240    0.6030   -1.1610 hc        1 CMJ      0.039700
     72 H34A      -14.0300    1.6660    0.2680 hc        1 CMJ      0.039700
     73 H33       -12.8510   -0.2290    1.4350 hc        1 CMJ      0.039700
     74 H33A      -13.1440   -1.2920    0.0050 hc        1 CMJ      0.039700
     75 H32       -11.8580    0.3120   -1.4500 hc        1 CMJ      0.039700
     76 H32A      -11.5650    1.3750   -0.0210 hc        1 CMJ      0.039700
     77 H31       -10.3860   -0.5200    1.1460 hc        1 CMJ      0.039700
     78 H31A      -10.6790   -1.5830   -0.2830 hc        1 CMJ      0.039700
     79 H30        -9.3930    0.0210   -1.7390 hc        1 CMJ      0.039700
     80 H30A       -9.1010    1.0840   -0.3090 hc        1 CMJ      0.039700
     81 H29        -7.9210   -0.8110    0.8590 hc        1 CMJ      0.039700
     82 H29A       -8.2130   -1.8730   -0.5710 hc        1 CMJ      0.039700
     83 H28        -6.9260   -0.2690   -2.0260 hc        1 CMJ      0.039700
     84 H28A       -6.6350    0.7940   -0.5960 hc        1 CMJ      0.039700
     85 H27        -5.4560   -1.1000    0.5730 hc        1 CMJ      0.039700
     86 H27A       -5.7460   -2.1630   -0.8580 hc        1 CMJ      0.039700
     87 H26        -4.4600   -0.5580   -2.3120 hc        1 CMJ      0.039700
     88 H26A       -4.1700    0.5050   -0.8820 hc        1 CMJ      0.039700
     89 H25        -2.9900   -1.3890    0.2870 hc        1 CMJ      0.039700
     90 H25A       -3.2800   -2.4520   -1.1430 hc        1 CMJ      0.039700
     91 H24        -1.9920   -0.8490   -2.5970 hc        1 CMJ      0.039700
     92 H24A       -1.7060    0.2170   -1.1680 hc        1 CMJ      0.039700
     93 H23        -0.5210   -1.6670    0.0050 hc        1 CMJ      0.040200
     94 H23A       -0.8190   -2.7410   -1.4150 hc        1 CMJ      0.040200
     95 H22         0.4830   -1.1820   -2.8880 hc        1 CMJ      0.039700
     96 H22A        0.7190   -0.0560   -1.4950 hc        1 CMJ      0.039700
     97 H20         1.8330   -2.0380   -0.2440 hc        1 CMJ      0.047700
     98 H21         2.7850   -3.8400   -1.6860 hc        1 CMJ      0.033700
     99 H21A        0.9760   -3.8650   -1.7160 hc        1 CMJ      0.033700
    100 H21B        1.8950   -3.1850   -3.1220 hc        1 CMJ      0.033700
    101 H19         3.2400   -1.1420   -2.8450 hc        1 CMJ      0.039700
    102 H19A        2.9310   -0.0260   -1.4580 hc        1 CMJ      0.039700
    103 H18         4.1680   -1.6070    0.0760 hc        1 CMJ      0.040200
    104 H18A        4.5400   -2.6670   -1.3370 hc        1 CMJ      0.040200
    105 H17         5.6950   -0.7400   -2.4770 hc        1 CMJ      0.039700
    106 H17A        5.3360    0.3130   -1.0550 hc        1 CMJ      0.039700
    107 H16         6.6190   -1.2620    0.4340 hc        1 CMJ      0.039700
    108 H16A        6.9820   -2.3120   -0.9890 hc        1 CMJ      0.039700
    109 H15         8.1430   -0.3810   -2.1160 hc        1 CMJ      0.039700
    110 H15A        7.7810    0.6680   -0.6920 hc        1 CMJ      0.039700
    111 H14         9.0670   -0.9070    0.7950 hc        1 CMJ      0.039700
    112 H14A        9.4290   -1.9560   -0.6290 hc        1 CMJ      0.039700
    113 H13        10.5910   -0.0250   -1.7550 hc        1 CMJ      0.039700
    114 H13A       10.2280    1.0240   -0.3310 hc        1 CMJ      0.039700
    115 H12        11.5140   -0.5510    1.1560 hc        1 CMJ      0.039700
    116 H12A       11.8770   -1.6000   -0.2680 hc        1 CMJ      0.039700
    117 H11        13.0380    0.3310   -1.3930 hc        1 CMJ      0.039700
    118 H11A       12.6750    1.3800    0.0310 hc        1 CMJ      0.039700
    119 H10        13.9600   -0.1950    1.5180 hc        1 CMJ      0.039700
    120 H10A       14.3240   -1.2430    0.0940 hc        1 CMJ      0.039700
    121 H9         15.4850    0.6880   -1.0310 hc        1 CMJ      0.039700
    122 H9A        15.1220    1.7360    0.3930 hc        1 CMJ      0.039700
    123 H8         16.4070    0.1610    1.8800 hc        1 CMJ      0.039700
    124 H8A        16.7710   -0.8870    0.4560 hc        1 CMJ      0.039700
    125 H7         17.5690    2.0930    0.7560 hc        1 CMJ      0.039700
    126 H7A        17.9320    1.0450   -0.6680 hc        1 CMJ      0.039700
    127 H3         22.4620    2.8060    1.4810 hc        1 CMJ      0.039700
    128 H3A        22.8260    1.7590    0.0570 hc        1 CMJ      0.039700
    129 H1         26.0170    1.7100    2.0530 hc        1 CMJ      0.032700
    130 H1A        25.3050    2.1030    0.4340 hc        1 CMJ      0.032700
    131 H1B        24.9400    3.1540    1.8620 hc        1 CMJ      0.032700
@<TRIPOS>BOND
     1    1   42 1   
     2    1   43 1   
     3    1   44 1   
     4    1   45 1   
     5    2    3 1   
     6    2   42 1   
     7    2   46 1   
     8    2   47 1   
     9    3    4 1   
    10    3   48 1   
    11    3   49 1   
    12    4   41 1   
    13    4   50 1   
    14    4   51 1   
    15    5    6 1   
    16    5   52 1   
    17    5   53 1   
    18    5   54 1   
    19    6    7 1   
    20    6   55 1   
    21    6   56 1   
    22    7    8 1   
    23    7   57 1   
    24    7   58 1   
    25    8    9 1   
    26    8   59 1   
    27    8   60 1   
    28    9   10 1   
    29    9   61 1   
    30    9   62 1   
    31   10   11 1   
    32   10   63 1   
    33   10   64 1   
    34   11   12 1   
    35   11   65 1   
    36   11   66 1   
    37   12   13 1   
    38   12   67 1   
    39   12   68 1   
    40   13   14 1   
    41   13   69 1   
    42   13   70 1   
    43   14   15 1   
    44   14   71 1   
    45   14   72 1   
    46   15   16 1   
    47   15   73 1   
    48   15   74 1   
    49   16   17 1   
    50   16   75 1   
    51   16   76 1   
    52   17   18 1   
    53   17   77 1   
    54   17   78 1   
    55   18   19 1   
    56   18   79 1   
    57   18   80 1   
    58   19   20 1   
    59   19   81 1   
    60   19   82 1   
    61   20   21 1   
    62   20   83 1   
    63   20   84 1   
    64   21   22 1   
    65   21   85 1   
    66   21   86 1   
    67   22   23 1   
    68   22   87 1   
    69   22   88 1   
    70   23   24 1   
    71   23   89 1   
    72   23   90 1   
    73   24   25 1   
    74   24   91 1   
    75   24   92 1   
    76   25   26 1   
    77   25   93 1   
    78   25   94 1   
    79   26   27 1   
    80   26   95 1   
    81   26   96 1   
    82   27   28 1   
    83   27   29 1   
    84   27   97 1   
    85   28   98 1   
    86   28   99 1   
    87   28  100 1   
    88   29   30 1   
    89   29  101 1   
    90   29  102 1   
    91   30   31 1   
    92   30  103 1   
    93   30  104 1   
    94   31   32 1   
    95   31  105 1   
    96   31  106 1   
    97   32   33 1   
    98   32  107 1   
    99   32  108 1   
   100   33   34 1   
   101   33  109 1   
   102   33  110 1   
   103   34   35 1   
   104   34  111 1   
   105   34  112 1   
   106   35   36 1   
   107   35  113 1   
   108   35  114 1   
   109   36   37 1   
   110   36  115 1   
   111   36  116 1   
   112   37   38 1   
   113   37  117 1   
   114   37  118 1   
   115   38   39 1   
   116   38  119 1   
   117   38  120 1   
   118   39   40 1   
   119   39  121 1   
   120   39  122 1   
   121   40   41 1   
   122   40  123 1   
   123   40  124 1   
   124   41  125 1   
   125   41  126 1   
   126   42  127 1   
   127   42  128 1   
   128   43  129 1   
   129   43  130 1   
   130   43  131 1   
@<TRIPOS>SUBSTRUCTURE
     1 CMJ         1 TEMP              0 ****  ****    0 ROOT
