@<TRIPOS>MOLECULE
CML
   23    22     1     0     0
SMALL
bcc


@<TRIPOS>ATOM
      1 O5          3.5720    0.8260   -1.8890 o         1 CML     -0.892800
      2 C4          3.7120    0.8240   -0.6300 c         1 CML      0.906600
      3 O4          4.7140    1.3970   -0.0840 o         1 CML     -0.892800
      4 C3          2.7200    0.1240    0.3040 c3        1 CML     -0.159400
      5 C2          1.4390   -0.3860   -0.3090 c3        1 CML     -0.013600
      6 C1          1.1900   -1.8860   -0.0930 c         1 CML      0.913600
      7 O1          0.3920   -2.4780   -0.8870 o         1 CML     -0.873800
      8 O2          1.7830   -2.5180    0.8340 o         1 CML     -0.873800
      9 SG          0.1360    0.6240    0.4680 ss        1 CML     -0.467200
     10 CB         -1.4090    0.2480   -0.3450 c3        1 CML     -0.000300
     11 CA         -2.5590    0.6110    0.5980 c3        1 CML      0.060500
     12 C          -3.8900    0.7180   -0.2100 c         1 CML      0.915600
     13 O          -4.6440   -0.2950   -0.3200 o         1 CML     -0.872800
     14 N          -2.6880   -0.2620    1.7550 n3        1 CML     -0.911800
     15 OXT        -4.1900    1.8440   -0.7090 o         1 CML     -0.872800
     16 H31         3.2650   -0.7400    0.7720 hc        1 CML      0.043700
     17 H32         2.4880    0.8480    1.1330 hc        1 CML      0.043700
     18 H2          1.4230   -0.1810   -1.4080 h1        1 CML      0.084700
     19 HB1        -1.4940    0.8630   -1.2710 h1        1 CML      0.071200
     20 HB2        -1.4230   -0.8320   -0.6340 h1        1 CML      0.071200
     21 HA         -2.3480    1.6460    1.0040 h1        1 CML      0.041700
     22 H1         -3.2710   -1.0410    1.5020 hn        1 CML      0.338800
     23 HN2        -1.7780   -0.6200    1.9910 hn        1 CML      0.338800
@<TRIPOS>BOND
     1    1    2 1   
     2    2    3 1   
     3    2    4 1   
     4    4    5 1   
     5    4   16 1   
     6    4   17 1   
     7    5    6 1   
     8    5    9 1   
     9    5   18 1   
    10    6    7 1   
    11    6    8 1   
    12    9   10 1   
    13   10   11 1   
    14   10   19 1   
    15   10   20 1   
    16   11   12 1   
    17   11   14 1   
    18   11   21 1   
    19   12   13 1   
    20   12   15 1   
    21   14   22 1   
    22   14   23 1   
@<TRIPOS>SUBSTRUCTURE
     1 CML         1 TEMP              0 ****  ****    0 ROOT
