@<TRIPOS>MOLECULE
CMM
   77    80     1     0     0
SMALL
bcc


@<TRIPOS>ATOM
      1 O13         0.0000    0.0000    0.0000 o         1 CMM     -0.795800
      2 C11         1.2140    0.0000    0.0000 c         1 CMM      0.904600
      3 O12         1.8860    0.0000    1.1650 o         1 CMM     -0.795800
      4 C10         1.9590   -0.0010   -1.2920 c         1 CMM      0.567300
      5 O14         3.1730   -0.0020   -1.2920 o         1 CMM     -0.554100
      6 C7          1.2280   -0.0020   -2.5580 cc        1 CMM     -0.220400
      7 C8         -0.1440   -0.0030   -2.7240 cd        1 CMM     -0.214100
      8 C3          1.8050   -0.0110   -3.9150 ca        1 CMM     -0.048800
      9 C4          0.7130   -0.0080   -4.7970 ca        1 CMM     -0.251200
     10 N9         -0.4390   -0.0030   -4.0360 na        1 CMM      0.353600
     11 C2          3.1040   -0.0160   -4.4120 ca        1 CMM     -0.017000
     12 C1          3.3140   -0.0230   -5.7750 ca        1 CMM     -0.146000
     13 C6          2.2370   -0.0280   -6.6470 ca        1 CMM     -0.097000
     14 C5          0.9450   -0.0220   -6.1680 ca        1 CMM     -0.128300
     15 C15        -0.2160   -0.0250   -7.1290 c3        1 CMM      0.051900
     16 C16        -0.6120   -1.4680   -7.4460 c3        1 CMM      0.012900
     17 C17        -1.7730   -1.4710   -8.4060 ca        1 CMM     -0.040300
     18 C18        -1.5410   -1.4780   -9.7700 ca        1 CMM     -0.079000
     19 C19        -2.6060   -1.4810  -10.6510 ca        1 CMM     -0.101000
     20 C22        -3.0680   -1.4660   -7.9260 ca        1 CMM     -0.079000
     21 C21        -4.1320   -1.4630   -8.8070 ca        1 CMM     -0.101000
     22 C20        -3.9010   -1.4770  -10.1700 ca        1 CMM     -0.192300
     23 C23        -5.0620   -1.4800  -11.1310 c3        1 CMM      0.040900
     24 C24        -5.4570   -2.9240  -11.4480 c3        1 CMM     -0.082500
     25 C25        -6.6180   -2.9270  -12.4100 c         1 CMM      0.664100
     26 O26        -6.3940   -2.9340  -13.7330 os        1 CMM     -0.462900
     27 C27        -7.5120   -2.9370  -14.6590 c3        1 CMM      0.298700
     28 O28        -7.7510   -2.9230  -11.9890 o         1 CMM     -0.480000
     29 N29        -4.3200   -3.6180  -12.0550 ny        1 CMM      0.124200
     30 C30        -4.1700   -4.9470  -11.8790 c         1 CMM      0.282100
     31 O38        -4.9760   -5.5650  -11.2190 o         1 CMM     -0.511100
     32 C31        -3.0000   -5.6610  -12.5030 c3        1 CMM     -0.069400
     33 C32        -3.0650   -7.1490  -12.1520 c3        1 CMM     -0.051700
     34 C33        -3.0130   -7.3180  -10.6300 c3        1 CMM      0.155800
     35 C37        -1.8750   -7.8760  -12.7840 c3        1 CMM     -0.024400
     36 C36        -1.9580   -9.3700  -12.4610 c3        1 CMM     -0.031400
     37 C35        -1.8930   -9.5640  -10.9440 c3        1 CMM      0.167800
     38 N34        -2.9430   -8.7520  -10.3170 nh        1 CMM     -0.463600
     39 C39        -3.8480   -9.3230   -9.4530 c2        1 CMM      0.270100
     40 N41        -4.7100   -8.5750   -8.8240 n2        1 CMM     -0.617100
     41 N40        -3.8430  -10.6830   -9.2530 nz        1 CMM      0.185400
     42 H8         -0.8710   -0.0040   -1.9210 h4        1 CMM      0.200000
     43 H9         -1.3670   -0.0040   -4.4110 hn        1 CMM      0.097700
     44 H2          3.9470   -0.0120   -3.7320 ha        1 CMM      0.133000
     45 H1          4.3250   -0.0280   -6.1650 ha        1 CMM      0.103000
     46 H6          2.4130   -0.0330   -7.7160 ha        1 CMM      0.088000
     47 H151        0.0710    0.4800   -8.0430 hc        1 CMM      0.014700
     48 H152       -1.0570    0.4900   -6.6810 hc        1 CMM      0.014700
     49 H161        0.2290   -1.9830   -7.8940 hc        1 CMM      0.029700
     50 H162       -0.8990   -1.9730   -6.5310 hc        1 CMM      0.029700
     51 H18        -0.5260   -1.4810  -10.1470 ha        1 CMM      0.127000
     52 H19        -2.4250   -1.4890  -11.7190 ha        1 CMM      0.106000
     53 H22        -3.2490   -1.4880   -6.8580 ha        1 CMM      0.127000
     54 H21        -5.1480   -1.4600   -8.4300 ha        1 CMM      0.106000
     55 H231       -4.7750   -0.9750  -12.0460 hc        1 CMM      0.060700
     56 H232       -5.9030   -0.9650  -10.6830 hc        1 CMM      0.060700
     57 H24        -5.7440   -3.4290  -10.5340 hx        1 CMM      0.122700
     58 H271       -8.1750   -3.7600  -14.4210 h1        1 CMM      0.017700
     59 H272       -7.1430   -3.0510  -15.6710 h1        1 CMM      0.017700
     60 H273       -8.0530   -2.0020  -14.5750 h1        1 CMM      0.017700
     61 H29        -4.3740   -3.4590  -13.0410 hn        1 CMM      0.273800
     62 H311       -2.0760   -5.2410  -12.1250 hc        1 CMM      0.056200
     63 H312       -3.0360   -5.5420  -13.5800 hc        1 CMM      0.056200
     64 H32        -3.9880   -7.5740  -12.5290 hc        1 CMM      0.054700
     65 H331       -2.1340   -6.8190  -10.2400 h1        1 CMM      0.052700
     66 H332       -3.9050   -6.8930  -10.1870 h1        1 CMM      0.052700
     67 H371       -1.9000   -7.7390  -13.8590 hc        1 CMM      0.038700
     68 H372       -0.9530   -7.4720  -12.3850 hc        1 CMM      0.038700
     69 H361       -1.1270   -9.8860  -12.9260 hc        1 CMM      0.040200
     70 H362       -2.8930   -9.7680  -12.8350 hc        1 CMM      0.040200
     71 H351       -2.0520  -10.6090  -10.7050 h1        1 CMM      0.024700
     72 H352       -0.9230   -9.2460  -10.5790 h1        1 CMM      0.024700
     73 H41        -4.7150   -7.5840   -8.9690 hn        1 CMM      0.385400
     74 H401       -2.9410  -10.9700   -8.9270 hn        1 CMM      0.229133
     75 H402       -4.0500  -11.1490  -10.1140 hn        1 CMM      0.229133
     76 H292       -3.4910   -3.1830  -11.7020 hn        1 CMM      0.273800
     77 H403       -4.5340  -10.9230   -8.5690 hn        1 CMM      0.229133
@<TRIPOS>BOND
     1    1    2 1   
     2    2    3 1   
     3    2    4 1   
     4    4    5 2   
     5    4    6 1   
     6    6    7 2   
     7    6    8 1   
     8    7   10 1   
     9    7   42 1   
    10    8    9 ar  
    11    8   11 ar  
    12    9   10 1   
    13    9   14 ar  
    14   10   43 1   
    15   11   12 ar  
    16   11   44 1   
    17   12   13 ar  
    18   12   45 1   
    19   13   14 ar  
    20   13   46 1   
    21   14   15 1   
    22   15   16 1   
    23   15   47 1   
    24   15   48 1   
    25   16   17 1   
    26   16   49 1   
    27   16   50 1   
    28   17   18 ar  
    29   17   20 ar  
    30   18   19 ar  
    31   18   51 1   
    32   19   22 ar  
    33   19   52 1   
    34   20   21 ar  
    35   20   53 1   
    36   21   22 ar  
    37   21   54 1   
    38   22   23 1   
    39   23   24 1   
    40   23   55 1   
    41   23   56 1   
    42   24   25 1   
    43   24   29 1   
    44   24   57 1   
    45   25   26 1   
    46   25   28 2   
    47   26   27 1   
    48   27   58 1   
    49   27   59 1   
    50   27   60 1   
    51   29   30 1   
    52   29   61 1   
    53   29   76 1   
    54   30   31 2   
    55   30   32 1   
    56   32   33 1   
    57   32   62 1   
    58   32   63 1   
    59   33   34 1   
    60   33   35 1   
    61   33   64 1   
    62   34   38 1   
    63   34   65 1   
    64   34   66 1   
    65   35   36 1   
    66   35   67 1   
    67   35   68 1   
    68   36   37 1   
    69   36   69 1   
    70   36   70 1   
    71   37   38 1   
    72   37   71 1   
    73   37   72 1   
    74   38   39 1   
    75   39   40 2   
    76   39   41 1   
    77   40   73 1   
    78   41   74 1   
    79   41   75 1   
    80   41   77 1   
@<TRIPOS>SUBSTRUCTURE
     1 CMM         1 TEMP              0 ****  ****    0 ROOT
