@<TRIPOS>MOLECULE
CMM
   75    68     1     0     0
SMALL
bcc


@<TRIPOS>ATOM
      1 O13         4.7750   11.6050    0.9220 o         1 CMM     -0.525000
      2 C11         4.5070   10.7460    0.0950 c1        1 CMM      0.324000
      3 O12         4.8050   10.9180   -1.0940 os        1 CMM     -0.577000
      4 C10         3.8180    9.4530    0.5310 c2        1 CMM      0.234000
      5 O14         2.6430    9.3920    0.5540 o         1 CMM     -0.345000
      6 C7          4.6300    8.3140    1.0340 c2        1 CMM     -0.203000
      7 C8          4.7770    7.4860   -0.0610 c1        1 CMM     -0.010000
      8 C3          4.0850    7.5520    2.0810 c1        1 CMM     -0.040000
      9 C4          3.9020    6.2630    1.6170 c1        1 CMM     -0.022000
     10 N9          4.3270    6.2170    0.2960 n1        1 CMM     -0.231000
     11 C2          3.7600    7.8660    3.3870 c1        1 CMM     -0.071000
     12 C1          3.2450    6.8780    4.2410 c1        1 CMM     -0.152500
     13 C6          3.0600    5.5860    3.7750 c1        1 CMM     -0.152500
     14 C5          3.3840    5.2700    2.4720 c1        1 CMM     -0.102000
     15 C15         2.4340    4.5460    1.4850 c3        1 CMM     -0.105000
     16 C16         1.7280    3.4240    2.1950 c3        1 CMM     -0.126000
     17 C17         1.3140    2.3580    1.1760 c2        1 CMM     -0.056000
     18 C18         0.3610    2.6520    0.2240 c2        1 CMM     -0.125000
     19 C19        -0.0760    1.6690   -0.6510 c1        1 CMM     -0.119000
     20 C22         1.8320    1.0900    1.2610 c1        1 CMM     -0.128000
     21 C21         1.3870    0.0830    0.3680 c1        1 CMM     -0.121000
     22 C20         0.4470    0.3770   -0.5710 c1        1 CMM     -0.089000
     23 C23         0.0900   -0.6790   -1.6860 c3        1 CMM     -0.121000
     24 C24        -1.3250   -1.1550   -1.4900 c3        1 CMM      0.041000
     25 C25        -2.2040   -0.5550   -2.5470 c2        1 CMM      0.271000
     26 O26        -3.4000    0.0780   -2.1870 os        1 CMM     -0.270000
     27 C27        -4.0920    0.6690   -3.2920 c3        1 CMM     -0.064000
     28 O28        -1.8730   -0.5980   -3.6980 o         1 CMM     -0.365000
     29 N29        -1.3640   -2.5910   -1.5860 n         1 CMM     -0.359000
     30 C30        -2.5580   -3.2330   -1.9230 c2        1 CMM      0.308000
     31 O38        -3.5290   -2.5660   -2.2890 o         1 CMM     -0.362000
     32 C31        -2.6060   -4.7610   -2.0120 c3        1 CMM     -0.174000
     33 C32        -2.6600   -5.4070   -0.4790 c3        1 CMM     -0.119000
     34 C33        -1.6490   -6.5820   -0.3830 c3        1 CMM     -0.060000
     35 C37        -3.8590   -5.7950   -0.2360 c3        1 CMM     -0.169000
     36 C36        -4.4010   -6.9710   -0.6450 c3        1 CMM     -0.186000
     37 C35        -3.4050   -8.1070   -0.5470 c3        1 CMM     -0.070000
     38 N34        -2.1940   -7.7960    0.4240 n3        1 CMM     -0.266000
     39 C39        -1.3030   -8.8480    0.8250 c2        1 CMM      0.140000
     40 N41        -1.0220   -9.0180    2.0880 n1        1 CMM     -0.300000
     41 N40        -0.7210   -9.7060   -0.1550 n3        1 CMM     -0.350000
     42 H8          5.2020    7.7180   -0.8890 DU        1 CMM      0.206000
     43 H9          4.2990    5.5220   -0.2220 DU        1 CMM      0.206000
     44 H2          3.8950    8.7990    3.7240 ha        1 CMM      0.158000
     45 H1          3.0080    7.1100    5.2000 ha        1 CMM      0.113000
     46 H6          2.6840    4.8690    4.3960 ha        1 CMM      0.113000
     47 H151        2.9590    4.1790    0.7280 hc        1 CMM      0.081000
     48 H152        1.7630    5.1900    1.1390 hc        1 CMM      0.081000
     49 H161        2.3340    3.0240    2.8640 hc        1 CMM      0.094500
     50 H162        0.9340    3.7720    2.6430 hc        1 CMM      0.094500
     51 H18        -0.0020    3.5430    0.1660 ha        1 CMM      0.136000
     52 H19        -0.7130    1.8710   -1.2880 ha        1 CMM      0.130000
     53 H22         2.4740    0.8930    1.9020 ha        1 CMM      0.139000
     54 H21         1.7470   -0.8040    0.4240 ha        1 CMM      0.125000
     55 H231        0.7130   -1.4540   -1.6260 hc        1 CMM      0.103000
     56 H232        0.1720   -0.2710   -2.5460 hc        1 CMM      0.103000
     57 H24        -1.6290   -0.8910   -0.6460 h1        1 CMM      0.163000
     58 H271       -3.5320    1.3600   -3.7010 h1        1 CMM      0.090667
     59 H272       -4.9420    1.0800   -2.9710 h1        1 CMM      0.090667
     60 H273       -4.2900   -0.0180   -3.9520 h1        1 CMM      0.090667
     61 H29        -0.6000   -3.0720   -1.4980 hn        1 CMM      0.229000
     62 H311       -3.3910   -5.0250   -2.4960 hc        1 CMM      0.113000
     63 H312       -1.8040   -5.0890   -2.4820 hc        1 CMM      0.113000
     64 H32        -2.4160   -4.7380    0.1500 hc        1 CMM      0.113000
     65 H331       -1.4280   -6.8750   -1.2670 h1        1 CMM      0.095500
     66 H332       -0.8410   -6.2600    0.0500 h1        1 CMM      0.095500
     67 H371       -4.4760   -5.0560   -0.6070 hc        1 CMM      0.095000
     68 H372       -3.9610   -5.7790    0.7830 hc        1 CMM      0.095000
     69 H361       -5.1990   -7.1810   -0.0740 hc        1 CMM      0.084500
     70 H362       -4.6770   -6.8860   -1.5400 hc        1 CMM      0.084500
     71 H351       -3.8480   -8.8650   -0.2360 h1        1 CMM      0.094500
     72 H352       -3.0530   -8.2940   -1.4350 h1        1 CMM      0.094500
     73 H41        -1.3970   -8.4620    2.7240 DU        1 CMM      0.206000
     74 H401        0.0070  -10.3110    0.0980 hn        1 CMM      0.192500
     75 H402       -1.0630   -9.7210   -1.0320 hn        1 CMM      0.192500
@<TRIPOS>BOND
     1    1    2 1   
     2    2    4 1   
     3    4    5 1   
     4    4    6 1   
     5    6    7 1   
     6    6    8 1   
     7    7   10 1   
     8    8   11 1   
     9    9   14 1   
    10   11   44 1   
    11   12   13 1   
    12   12   45 1   
    13   13   46 1   
    14   14   15 1   
    15   15   16 1   
    16   15   47 1   
    17   15   48 1   
    18   16   17 1   
    19   16   49 1   
    20   16   50 1   
    21   17   18 1   
    22   17   20 1   
    23   18   19 1   
    24   18   51 1   
    25   19   52 1   
    26   20   53 1   
    27   21   22 1   
    28   21   54 1   
    29   22   23 1   
    30   23   24 1   
    31   23   55 1   
    32   23   56 1   
    33   24   25 1   
    34   24   29 1   
    35   24   57 1   
    36   25   26 1   
    37   25   28 1   
    38   26   27 1   
    39   27   58 1   
    40   27   59 1   
    41   27   60 1   
    42   29   30 1   
    43   29   61 1   
    44   30   31 1   
    45   30   32 1   
    46   32   33 1   
    47   32   62 1   
    48   32   63 1   
    49   33   34 1   
    50   33   35 1   
    51   33   64 1   
    52   34   38 1   
    53   34   65 1   
    54   34   66 1   
    55   35   36 1   
    56   35   67 1   
    57   35   68 1   
    58   36   37 1   
    59   36   69 1   
    60   36   70 1   
    61   37   38 1   
    62   37   71 1   
    63   37   72 1   
    64   38   39 1   
    65   39   40 1   
    66   39   41 1   
    67   41   74 1   
    68   41   75 1   
@<TRIPOS>SUBSTRUCTURE
     1 CMM         1 TEMP              0 ****  ****    0 ROOT
