@<TRIPOS>MOLECULE
CMM
   75    78     1     0     0
SMALL
bcc


@<TRIPOS>ATOM
      1 O13         0.3430   -2.1600   -9.6800 o         1 CMM     -0.815300
      2 C11        -0.4300   -1.1670   -9.8060 c         1 CMM      0.854600
      3 O12        -1.6110   -1.2170  -10.2330 o         1 CMM     -0.815300
      4 C10         0.1110    0.2040   -9.3530 c         1 CMM      0.492300
      5 O14         0.1620    1.2030  -10.0850 o         1 CMM     -0.584100
      6 C7          0.5750    0.2560   -7.9630 cc        1 CMM     -0.210400
      7 C8          0.8440   -0.8720   -7.1820 cd        1 CMM     -0.036100
      8 C3          0.8520    1.4150   -7.1390 ca        1 CMM     -0.052800
      9 C4          1.2830    0.9120   -5.8500 ca        1 CMM     -0.060200
     10 N9          1.2560   -0.4860   -5.9040 na        1 CMM     -0.209400
     11 C2          0.7820    2.7900   -7.3520 ca        1 CMM     -0.070000
     12 C1          1.1320    3.6460   -6.3150 ca        1 CMM     -0.175000
     13 C6          1.5480    3.1540   -5.0690 ca        1 CMM     -0.128000
     14 C5          1.6310    1.7880   -4.8070 ca        1 CMM     -0.117300
     15 C15         2.0800    1.2840   -3.4840 c3        1 CMM     -0.017100
     16 C16         0.9020    0.8620   -2.6180 c3        1 CMM     -0.045100
     17 C17         1.3360    0.4520   -1.2550 ca        1 CMM     -0.061300
     18 C18         1.8510    1.4020   -0.3640 ca        1 CMM     -0.127500
     19 C19         2.2500    1.0280    0.9170 ca        1 CMM     -0.121500
     20 C22         1.2260   -0.8800   -0.8370 ca        1 CMM     -0.127500
     21 C21         1.6250   -1.2550    0.4440 ca        1 CMM     -0.121500
     22 C20         2.1400   -0.3040    1.3320 ca        1 CMM     -0.102300
     23 C23         2.5890   -0.7030    2.6900 c3        1 CMM     -0.047100
     24 C24         1.4250   -1.1690    3.5880 c3        1 CMM      0.074700
     25 C25         2.0450   -1.5730    4.9290 c         1 CMM      0.606100
     26 O26         2.5060   -0.5180    5.6680 os        1 CMM     -0.441900
     27 C27         3.1000   -0.8260    6.9290 c3        1 CMM      0.125700
     28 O28         2.1870   -2.7100    5.3770 o         1 CMM     -0.533000
     29 N29         0.3840   -0.1940    3.7480 n         1 CMM     -0.562900
     30 C30        -0.9550   -0.4940    3.5710 c         1 CMM      0.667100
     31 O38        -1.3290   -1.6590    3.3300 o         1 CMM     -0.607100
     32 C31        -1.9480    0.6470    3.7090 c3        1 CMM     -0.145400
     33 C32        -2.4090    0.7770    5.1500 c3        1 CMM     -0.094700
     34 C33        -3.3430   -0.3910    5.5130 c3        1 CMM      0.166800
     35 C37        -3.1430    2.0910    5.3700 c3        1 CMM     -0.072400
     36 C36        -3.6480    2.1830    6.7950 c3        1 CMM     -0.108400
     37 C35        -4.4760    0.9570    7.1770 c3        1 CMM      0.186800
     38 N34        -3.8990   -0.3390    6.8560 nh        1 CMM     -0.694600
     39 C39        -2.9930   -0.9030    7.8570 c2        1 CMM      0.742100
     40 N41        -2.2590   -0.1380    8.6220 n2        1 CMM     -0.864100
     41 N40        -3.0810   -2.3250    7.9740 nh        1 CMM     -0.925800
     42 H8          0.7660   -1.9240   -7.4920 h4        1 CMM      0.219000
     43 H9          1.5770   -1.0830   -5.1930 hn        1 CMM      0.284700
     44 H2          0.4580    3.1650   -8.3360 ha        1 CMM      0.158000
     45 H1          1.0850    4.7330   -6.4690 ha        1 CMM      0.115000
     46 H6          1.8180    3.8680   -4.2770 ha        1 CMM      0.109000
     47 H151        2.6610    2.0830   -2.9490 hc        1 CMM      0.039700
     48 H152        2.7730    0.4110   -3.6210 hc        1 CMM      0.039700
     49 H161        0.3550    0.0210   -3.1230 hc        1 CMM      0.059200
     50 H162        0.1820    1.7200   -2.5330 hc        1 CMM      0.059200
     51 H18         1.9420    2.4510   -0.6830 ha        1 CMM      0.137000
     52 H19         2.6580    1.7850    1.6030 ha        1 CMM      0.128500
     53 H22         0.8190   -1.6370   -1.5250 ha        1 CMM      0.137000
     54 H21         1.5330   -2.3050    0.7600 ha        1 CMM      0.128500
     55 H231        3.1250    0.1470    3.1920 hc        1 CMM      0.064200
     56 H232        3.3120   -1.5600    2.6100 hc        1 CMM      0.064200
     57 H24         0.9700   -2.1130    3.1490 h1        1 CMM      0.122700
     58 H271        3.3840    0.1730    7.3400 h1        1 CMM      0.050033
     59 H272        2.3580   -1.3430    7.5840 h1        1 CMM      0.050033
     60 H273        3.9950   -1.4770    6.7780 h1        1 CMM      0.050033
     61 H29         0.6630    0.7400    3.9280 hn        1 CMM      0.321500
     62 H311       -1.5010    1.6160    3.3650 hc        1 CMM      0.074200
     63 H312       -2.8190    0.4170    3.0400 hc        1 CMM      0.074200
     64 H32        -1.5120    0.7530    5.8300 hc        1 CMM      0.067700
     65 H331       -4.2240   -0.3790    4.8090 h1        1 CMM      0.066700
     66 H332       -2.7930   -1.3610    5.3570 h1        1 CMM      0.066700
     67 H371       -2.4540    2.9500    5.1570 hc        1 CMM      0.041200
     68 H372       -4.0030    2.1630    4.6540 hc        1 CMM      0.041200
     69 H361       -2.7800    2.2890    7.4970 hc        1 CMM      0.056200
     70 H362       -4.2910    3.0940    6.9090 hc        1 CMM      0.056200
     71 H351       -4.7100    0.9970    8.2760 h1        1 CMM      0.056700
     72 H352       -5.4520    0.9920    6.6100 h1        1 CMM      0.056700
     73 H41        -1.7220   -0.6080    9.3190 hn        1 CMM      0.390400
     74 H401       -2.2000   -2.7730    8.1010 hn        1 CMM      0.395300
     75 H402       -3.6420   -2.7750    7.2830 hn        1 CMM      0.395300
@<TRIPOS>BOND
     1    1    2 1   
     2    2    3 1   
     3    2    4 1   
     4    4    5 2   
     5    4    6 1   
     6    6    7 2   
     7    6    8 1   
     8    7   10 1   
     9    7   42 1   
    10    8    9 ar  
    11    8   11 ar  
    12    9   10 1   
    13    9   14 ar  
    14   10   43 1   
    15   11   12 ar  
    16   11   44 1   
    17   12   13 ar  
    18   12   45 1   
    19   13   14 ar  
    20   13   46 1   
    21   14   15 1   
    22   15   16 1   
    23   15   47 1   
    24   15   48 1   
    25   16   17 1   
    26   16   49 1   
    27   16   50 1   
    28   17   18 ar  
    29   17   20 ar  
    30   18   19 ar  
    31   18   51 1   
    32   19   22 ar  
    33   19   52 1   
    34   20   21 ar  
    35   20   53 1   
    36   21   22 ar  
    37   21   54 1   
    38   22   23 1   
    39   23   24 1   
    40   23   55 1   
    41   23   56 1   
    42   24   25 1   
    43   24   29 1   
    44   24   57 1   
    45   25   26 1   
    46   25   28 2   
    47   26   27 1   
    48   27   58 1   
    49   27   59 1   
    50   27   60 1   
    51   29   30 1   
    52   29   61 1   
    53   30   31 2   
    54   30   32 1   
    55   32   33 1   
    56   32   62 1   
    57   32   63 1   
    58   33   34 1   
    59   33   35 1   
    60   33   64 1   
    61   34   38 1   
    62   34   65 1   
    63   34   66 1   
    64   35   36 1   
    65   35   67 1   
    66   35   68 1   
    67   36   37 1   
    68   36   69 1   
    69   36   70 1   
    70   37   38 1   
    71   37   71 1   
    72   37   72 1   
    73   38   39 1   
    74   39   40 2   
    75   39   41 1   
    76   40   73 1   
    77   41   74 1   
    78   41   75 1   
@<TRIPOS>SUBSTRUCTURE
     1 CMM         1 TEMP              0 ****  ****    0 ROOT
