@<TRIPOS>MOLECULE
CMM
   77    80     1     0     0
SMALL
bcc


@<TRIPOS>ATOM
      1 O13        -1.1650   -5.7450   -6.4440 o         1 CMM     -0.849800
      2 C11        -1.5450   -4.9910   -7.3770 c         1 CMM      0.827600
      3 O12        -2.7540   -5.0500   -7.8060 o         1 CMM     -0.849800
      4 C10        -0.6080   -4.0170   -8.0700 c         1 CMM      0.547300
      5 O14        -0.3280   -4.2140   -9.2700 o         1 CMM     -0.629100
      6 C7         -0.2610   -2.8370   -7.3370 cc        1 CMM     -0.270400
      7 C8         -0.8180   -2.4720   -6.0920 cd        1 CMM     -0.002100
      8 C3          0.5110   -1.7000   -7.8020 ca        1 CMM     -0.044800
      9 C4          0.2540   -0.6360   -6.8640 ca        1 CMM     -0.062200
     10 N9         -0.5320   -1.1520   -5.8170 na        1 CMM     -0.161400
     11 C2          1.3630   -1.4730   -8.8830 ca        1 CMM     -0.093000
     12 C1          1.9030   -0.2040   -9.0430 ca        1 CMM     -0.132000
     13 C6          1.5340    0.8620   -8.2040 ca        1 CMM     -0.114000
     14 C5          0.6600    0.6840   -7.1340 ca        1 CMM     -0.075300
     15 C15         0.0720    1.8320   -6.3980 c3        1 CMM     -0.034100
     16 C16        -1.4450    1.9430   -6.5750 c3        1 CMM     -0.041100
     17 C17        -1.9810    1.2120   -7.7580 ca        1 CMM     -0.052300
     18 C18        -1.4990    1.4900   -9.0460 ca        1 CMM     -0.107000
     19 C19        -1.8980    0.7180  -10.1300 ca        1 CMM     -0.125500
     20 C22        -2.9510    0.2140   -7.6070 ca        1 CMM     -0.107000
     21 C21        -3.3620   -0.5560   -8.6970 ca        1 CMM     -0.125500
     22 C20        -2.8070   -0.3400   -9.9600 ca        1 CMM     -0.122300
     23 C23        -3.1490   -1.1280  -11.1700 c3        1 CMM     -0.051100
     24 C24        -3.8020   -2.4980  -10.9440 c3        1 CMM      0.081500
     25 C25        -4.2190   -3.0000  -12.3240 c         1 CMM      0.605100
     26 O26        -3.4030   -3.9500  -12.8650 os        1 CMM     -0.467900
     27 C27        -3.7070   -4.3690  -14.2050 c3        1 CMM      0.125700
     28 O28        -5.1890   -2.5960  -12.9570 o         1 CMM     -0.463000
     29 N29        -2.9430   -3.4670  -10.1960 n4        1 CMM     -0.662800
     30 C30        -3.6380   -4.8090  -10.0250 c         1 CMM      0.612100
     31 O38        -4.7800   -4.7630   -9.5900 o         1 CMM     -0.459100
     32 C31        -2.8470   -6.0130  -10.4640 c3        1 CMM     -0.131400
     33 C32        -3.3850   -7.2660   -9.7890 c3        1 CMM     -0.090700
     34 C33        -2.2790   -7.9660   -8.9760 c3        1 CMM      0.146800
     35 C37        -3.9640   -8.2740  -10.7710 c3        1 CMM     -0.083400
     36 C36        -4.4860   -9.4840  -10.0200 c3        1 CMM     -0.113400
     37 C35        -3.4430  -10.0620   -9.0620 c3        1 CMM      0.164800
     38 N34        -2.7840   -9.0850   -8.1940 nh        1 CMM     -0.697600
     39 C39        -3.4350   -8.8190   -6.9450 c2        1 CMM      0.699100
     40 N41        -4.0260   -9.6430   -6.1390 n2        1 CMM     -0.796100
     41 N40        -3.3010   -7.4300   -6.3780 n4        1 CMM     -0.847600
     42 H8         -1.4010   -3.0980   -5.4060 h4        1 CMM      0.189000
     43 H9         -0.7740   -0.6550   -4.9990 hn        1 CMM      0.312700
     44 H2          1.5950   -2.2920   -9.5790 ha        1 CMM      0.153000
     45 H1          2.6160   -0.0140   -9.8600 ha        1 CMM      0.142000
     46 H6          1.9270    1.8690   -8.4170 ha        1 CMM      0.141000
     47 H151        0.3000    1.7430   -5.3020 hc        1 CMM      0.059700
     48 H152        0.5510    2.7840   -6.7530 hc        1 CMM      0.059700
     49 H161       -1.9470    1.5610   -5.6460 hc        1 CMM      0.056700
     50 H162       -1.7150    3.0300   -6.6670 hc        1 CMM      0.056700
     51 H18        -0.7710    2.3040   -9.1880 ha        1 CMM      0.143500
     52 H19        -1.4890    0.9310  -11.1300 ha        1 CMM      0.131500
     53 H22        -3.3910    0.0220   -6.6170 ha        1 CMM      0.143500
     54 H21        -4.1350   -1.3230   -8.5420 ha        1 CMM      0.131500
     55 H231       -2.2250   -1.2640  -11.7990 hc        1 CMM      0.094200
     56 H232       -3.8860   -0.5310  -11.7860 hc        1 CMM      0.094200
     57 H24        -4.7580   -2.3730  -10.3400 hx        1 CMM      0.147700
     58 H271       -2.9070   -5.1190  -14.4250 h1        1 CMM      0.070033
     59 H272       -4.7260   -4.8240  -14.2340 h1        1 CMM      0.070033
     60 H273       -3.6520   -3.4920  -14.8940 h1        1 CMM      0.070033
     61 H29        -2.0410   -3.6020  -10.6750 hn        1 CMM      0.484300
     62 H311       -2.9330   -6.0800  -11.5850 hc        1 CMM      0.113700
     63 H312       -1.7590   -5.8640  -10.2010 hc        1 CMM      0.113700
     64 H32        -4.2140   -6.9630   -9.0840 hc        1 CMM      0.069700
     65 H331       -1.5190   -8.4020   -9.6900 h1        1 CMM      0.094700
     66 H332       -1.7220   -7.2300   -8.3310 h1        1 CMM      0.094700
     67 H371       -3.1740   -8.5900  -11.5020 hc        1 CMM      0.059700
     68 H372       -4.7990   -7.8060  -11.3540 hc        1 CMM      0.059700
     69 H361       -4.7710  -10.2850  -10.7510 hc        1 CMM      0.067200
     70 H362       -5.4110   -9.2030   -9.4510 hc        1 CMM      0.067200
     71 H351       -3.9130  -10.8860   -8.4600 h1        1 CMM      0.077700
     72 H352       -2.6080  -10.5270   -9.6650 h1        1 CMM      0.077700
     73 H41        -4.1220  -10.5960   -6.4130 hn        1 CMM      0.455400
     74 H401       -3.8980   -7.3240   -5.5540 hn        1 CMM      0.489467
     75 H402       -2.3080   -7.2550   -6.1010 hn        1 CMM      0.489467
     76 H292       -2.7450   -3.0950   -9.2500 hn        1 CMM      0.484300
     77 H403       -3.5400   -6.6960   -7.0780 hn        1 CMM      0.489467
@<TRIPOS>BOND
     1    1    2 1   
     2    2    3 1   
     3    2    4 1   
     4    4    5 2   
     5    4    6 1   
     6    6    7 2   
     7    6    8 1   
     8    7   10 1   
     9    7   42 1   
    10    8    9 ar  
    11    8   11 ar  
    12    9   10 1   
    13    9   14 ar  
    14   10   43 1   
    15   11   12 ar  
    16   11   44 1   
    17   12   13 ar  
    18   12   45 1   
    19   13   14 ar  
    20   13   46 1   
    21   14   15 1   
    22   15   16 1   
    23   15   47 1   
    24   15   48 1   
    25   16   17 1   
    26   16   49 1   
    27   16   50 1   
    28   17   18 ar  
    29   17   20 ar  
    30   18   19 ar  
    31   18   51 1   
    32   19   22 ar  
    33   19   52 1   
    34   20   21 ar  
    35   20   53 1   
    36   21   22 ar  
    37   21   54 1   
    38   22   23 1   
    39   23   24 1   
    40   23   55 1   
    41   23   56 1   
    42   24   25 1   
    43   24   29 1   
    44   24   57 1   
    45   25   26 1   
    46   25   28 2   
    47   26   27 1   
    48   27   58 1   
    49   27   59 1   
    50   27   60 1   
    51   29   30 1   
    52   29   61 1   
    53   29   76 1   
    54   30   31 2   
    55   30   32 1   
    56   32   33 1   
    57   32   62 1   
    58   32   63 1   
    59   33   34 1   
    60   33   35 1   
    61   33   64 1   
    62   34   38 1   
    63   34   65 1   
    64   34   66 1   
    65   35   36 1   
    66   35   67 1   
    67   35   68 1   
    68   36   37 1   
    69   36   69 1   
    70   36   70 1   
    71   37   38 1   
    72   37   71 1   
    73   37   72 1   
    74   38   39 1   
    75   39   40 2   
    76   39   41 1   
    77   40   73 1   
    78   41   74 1   
    79   41   75 1   
    80   41   77 1   
@<TRIPOS>SUBSTRUCTURE
     1 CMM         1 TEMP              0 ****  ****    0 ROOT
