@<TRIPOS>MOLECULE
CMM
   77    80     1     0     0
SMALL
bcc


@<TRIPOS>ATOM
      1 O13        -0.1730   -6.4610   -4.8250 oh        1 CMM     -0.627100
      2 C11        -0.1350   -5.8050   -3.6300 c         1 CMM      0.537100
      3 O12        -0.8280   -6.2520   -2.7180 o         1 CMM     -0.500000
      4 C10         0.7620   -4.5870   -3.6320 c         1 CMM      0.588300
      5 O14         1.7960   -4.5870   -2.9630 o         1 CMM     -0.476100
      6 C7          0.2890   -3.5010   -4.4560 cc        1 CMM     -0.240400
      7 C8         -0.8680   -3.5130   -5.2520 cd        1 CMM     -0.032100
      8 C3          0.9300   -2.2150   -4.6570 ca        1 CMM     -0.044800
      9 C4          0.1150   -1.5020   -5.6090 ca        1 CMM     -0.064200
     10 N9         -0.9740   -2.3220   -5.9490 na        1 CMM     -0.179400
     11 C2          2.0780   -1.6110   -4.1430 ca        1 CMM     -0.071000
     12 C1          2.4020   -0.3320   -4.5750 ca        1 CMM     -0.137000
     13 C6          1.6150    0.3500   -5.5190 ca        1 CMM     -0.100000
     14 C5          0.4660   -0.2170   -6.0630 ca        1 CMM     -0.102300
     15 C15        -0.3540    0.4850   -7.0860 c3        1 CMM     -0.028100
     16 C16        -0.2160   -0.1830   -8.4470 c3        1 CMM     -0.057100
     17 C17        -1.4520   -0.2660   -9.2710 ca        1 CMM     -0.029300
     18 C18        -1.3290   -0.1970  -10.6680 ca        1 CMM     -0.131500
     19 C19        -2.4350   -0.3830  -11.4920 ca        1 CMM     -0.116500
     20 C22        -2.7200   -0.4870   -8.7200 ca        1 CMM     -0.131500
     21 C21        -3.8320   -0.6570   -9.5410 ca        1 CMM     -0.116500
     22 C20        -3.6960   -0.6320  -10.9340 ca        1 CMM     -0.179300
     23 C23        -4.8780   -0.8310  -11.8100 c3        1 CMM     -0.045100
     24 C24        -5.4410   -2.2600  -11.6710 c3        1 CMM      0.066500
     25 C25        -6.6190   -2.4010  -12.6230 c         1 CMM      0.608100
     26 O26        -6.3670   -3.1420  -13.7390 os        1 CMM     -0.476900
     27 C27        -7.4360   -3.2490  -14.6960 c3        1 CMM      0.130700
     28 O28        -7.7200   -1.8920  -12.4540 o         1 CMM     -0.448000
     29 N29        -4.3750   -3.3000  -11.8670 n4        1 CMM     -0.681800
     30 C30        -4.5660   -4.5580  -11.0330 c         1 CMM      0.551100
     31 O38        -5.0770   -4.4080   -9.9360 o         1 CMM     -0.403100
     32 C31        -4.1120   -5.8370  -11.6770 c3        1 CMM     -0.144400
     33 C32        -3.4820   -6.7690  -10.6490 c3        1 CMM     -0.111700
     34 C33        -1.9970   -6.4100  -10.4360 c3        1 CMM      0.191800
     35 C37        -3.5920   -8.2120  -11.1240 c3        1 CMM     -0.074400
     36 C36        -2.9040   -9.1430  -10.1480 c3        1 CMM     -0.114400
     37 C35        -1.4640   -8.7040   -9.8770 c3        1 CMM      0.165800
     38 N34        -1.2760   -7.3010   -9.5560 nh        1 CMM     -0.744600
     39 C39        -1.3400   -6.9470   -8.1340 c2        1 CMM      0.739100
     40 N41        -1.9810   -7.5840   -7.1930 n2        1 CMM     -0.859100
     41 N40        -0.6210   -5.7530   -7.8140 nh        1 CMM     -0.886800
     42 H8         -1.6120   -4.3100   -5.3610 h4        1 CMM      0.185000
     43 H9         -1.7080   -2.0640   -6.5530 hn        1 CMM      0.297700
     44 H2          2.7000   -2.1510   -3.4110 ha        1 CMM      0.167000
     45 H1          3.2990    0.1660   -4.1740 ha        1 CMM      0.146000
     46 H6          1.9200    1.3600   -5.8350 ha        1 CMM      0.139000
     47 H151       -0.0270    1.5570   -7.1680 hc        1 CMM      0.057700
     48 H152       -1.4230    0.5070   -6.7460 hc        1 CMM      0.057700
     49 H161        0.5810    0.3610   -9.0260 hc        1 CMM      0.070200
     50 H162        0.1570   -1.2380   -8.3120 hc        1 CMM      0.070200
     51 H18        -0.3450    0.0100  -11.1190 ha        1 CMM      0.152000
     52 H19        -2.3190   -0.3040  -12.5840 ha        1 CMM      0.141500
     53 H22        -2.8620   -0.5170   -7.6280 ha        1 CMM      0.152000
     54 H21        -4.8260   -0.8000   -9.0880 ha        1 CMM      0.141500
     55 H231       -5.7080   -0.1280  -11.5160 hc        1 CMM      0.101200
     56 H232       -4.6230   -0.6220  -12.8830 hc        1 CMM      0.101200
     57 H24        -5.8460   -2.3810  -10.6130 hx        1 CMM      0.154700
     58 H271       -6.9890   -3.8770  -15.5070 h1        1 CMM      0.074700
     59 H272       -8.3150   -3.7450  -14.2190 h1        1 CMM      0.074700
     60 H273       -7.7120   -2.2310  -15.0620 h1        1 CMM      0.074700
     61 H29        -3.4730   -2.8740  -11.5960 hn        1 CMM      0.473300
     62 H311       -5.0370   -6.3200  -12.1080 hc        1 CMM      0.103700
     63 H312       -3.3940   -5.6580  -12.5210 hc        1 CMM      0.103700
     64 H32        -4.0330   -6.6700   -9.6710 hc        1 CMM      0.088700
     65 H331       -1.9300   -5.3550  -10.0530 h1        1 CMM      0.053200
     66 H332       -1.4760   -6.4570  -11.4370 h1        1 CMM      0.053200
     67 H371       -4.6710   -8.5000  -11.2230 hc        1 CMM      0.053700
     68 H372       -3.1180   -8.3100  -12.1360 hc        1 CMM      0.053700
     69 H361       -3.4900   -9.1860   -9.1930 hc        1 CMM      0.064700
     70 H362       -2.8840  -10.1810  -10.5730 hc        1 CMM      0.064700
     71 H351       -1.0250   -9.3410   -9.0600 h1        1 CMM      0.074700
     72 H352       -0.8560   -8.8870  -10.8120 h1        1 CMM      0.074700
     73 H41        -2.5430   -8.3540   -7.4790 hn        1 CMM      0.401400
     74 H401       -0.7510   -7.2420   -4.7590 ho        1 CMM      0.464000
     75 H402       -0.4380   -5.6640   -6.8300 hn        1 CMM      0.409800
     76 H292       -4.3320   -3.5560  -12.8610 hn        1 CMM      0.473300
     77 H403        0.2180   -5.6540   -8.3500 hn        1 CMM      0.409800
@<TRIPOS>BOND
     1    1    2 1   
     2    1   74 1   
     3    2    3 2   
     4    2    4 1   
     5    4    5 2   
     6    4    6 1   
     7    6    7 2   
     8    6    8 1   
     9    7   10 1   
    10    7   42 1   
    11    8    9 ar  
    12    8   11 ar  
    13    9   10 1   
    14    9   14 ar  
    15   10   43 1   
    16   11   12 ar  
    17   11   44 1   
    18   12   13 ar  
    19   12   45 1   
    20   13   14 ar  
    21   13   46 1   
    22   14   15 1   
    23   15   16 1   
    24   15   47 1   
    25   15   48 1   
    26   16   17 1   
    27   16   49 1   
    28   16   50 1   
    29   17   18 ar  
    30   17   20 ar  
    31   18   19 ar  
    32   18   51 1   
    33   19   22 ar  
    34   19   52 1   
    35   20   21 ar  
    36   20   53 1   
    37   21   22 ar  
    38   21   54 1   
    39   22   23 1   
    40   23   24 1   
    41   23   55 1   
    42   23   56 1   
    43   24   25 1   
    44   24   29 1   
    45   24   57 1   
    46   25   26 1   
    47   25   28 2   
    48   26   27 1   
    49   27   58 1   
    50   27   59 1   
    51   27   60 1   
    52   29   30 1   
    53   29   61 1   
    54   29   76 1   
    55   30   31 2   
    56   30   32 1   
    57   32   33 1   
    58   32   62 1   
    59   32   63 1   
    60   33   34 1   
    61   33   35 1   
    62   33   64 1   
    63   34   38 1   
    64   34   65 1   
    65   34   66 1   
    66   35   36 1   
    67   35   67 1   
    68   35   68 1   
    69   36   37 1   
    70   36   69 1   
    71   36   70 1   
    72   37   38 1   
    73   37   71 1   
    74   37   72 1   
    75   38   39 1   
    76   39   40 2   
    77   39   41 1   
    78   40   73 1   
    79   41   75 1   
    80   41   77 1   
@<TRIPOS>SUBSTRUCTURE
     1 CMM         1 TEMP              0 ****  ****    0 ROOT
