@<TRIPOS>MOLECULE
CMN
   26    26     1     0     0
SMALL
bcc


@<TRIPOS>ATOM
      1 C1          0.0050   -0.0110   -0.0040 c3        1 CMN      0.184700
      2 C2          1.5480   -0.0450    0.0590 c3        1 CMN      0.091100
      3 C3          2.0480    0.0770    1.5070 c3        1 CMN      0.081100
      4 C4          1.5820    1.4130    2.1220 c3        1 CMN      0.161300
      5 C5          0.1320    1.6840    1.8350 c2        1 CMN      0.001600
      6 C6         -0.4810    2.7470    2.6920 c3        1 CMN      0.152600
      7 C7         -0.5530    1.0660    0.8590 c2        1 CMN     -0.275200
      8 N1         -0.5970   -1.3410    0.3910 n4        1 CMN     -0.838600
      9 O2          1.9790   -1.2790   -0.4920 oh        1 CMN     -0.633800
     10 O3          3.4630    0.1210    1.5100 oh        1 CMN     -0.582800
     11 O4          1.7550    1.3630    3.5270 oh        1 CMN     -0.583800
     12 O6         -1.8670    2.8240    2.4030 oh        1 CMN     -0.611800
     13 H1         -0.3020    0.1530   -1.0830 hx        1 CMN      0.120700
     14 H2          1.9330    0.8240   -0.5460 h1        1 CMN      0.106700
     15 H3          1.6800   -0.7830    2.1300 h1        1 CMN      0.055700
     16 H4          2.2010    2.2510    1.6830 h1        1 CMN      0.092700
     17 H62        -0.3200    2.4800    3.7750 h1        1 CMN      0.075700
     18 H61         0.0200    3.7310    2.4750 h1        1 CMN      0.075700
     19 H7         -1.5930    1.3690    0.6380 ha        1 CMN      0.186000
     20 H12        -0.4100   -1.5250    1.3800 hn        1 CMN      0.462133
     21 H11        -1.6080   -1.3190    0.2400 hn        1 CMN      0.462133
     22 H2O1        2.8660   -1.1450   -0.8520 ho        1 CMN      0.457000
     23 H3O1        3.7820   -0.7900    1.4630 ho        1 CMN      0.427000
     24 H4O1        2.7100    1.3410    3.6870 ho        1 CMN      0.440000
     25 H6         -2.2250    3.5300    2.9560 ho        1 CMN      0.432000
     26 H13        -0.1690   -2.0830   -0.1760 hn        1 CMN      0.462133
@<TRIPOS>BOND
     1    1    2 1   
     2    1    7 1   
     3    1    8 1   
     4    1   13 1   
     5    2    3 1   
     6    2    9 1   
     7    2   14 1   
     8    3    4 1   
     9    3   10 1   
    10    3   15 1   
    11    4    5 1   
    12    4   11 1   
    13    4   16 1   
    14    5    6 1   
    15    5    7 2   
    16    6   12 1   
    17    6   17 1   
    18    6   18 1   
    19    7   19 1   
    20    8   20 1   
    21    8   21 1   
    22    8   26 1   
    23    9   22 1   
    24   10   23 1   
    25   11   24 1   
    26   12   25 1   
@<TRIPOS>SUBSTRUCTURE
     1 CMN         1 TEMP              0 ****  ****    0 ROOT
