@<TRIPOS>MOLECULE
CMN
   25    25     1     0     0
SMALL
bcc


@<TRIPOS>ATOM
      1 C1         -1.7830    0.1370   -0.5020 c3        1 CMN      0.197700
      2 C2         -0.6450    0.6460   -1.4280 c3        1 CMN      0.107100
      3 C3          0.6650   -0.0910   -1.1200 c3        1 CMN      0.114100
      4 C4          1.1220    0.2530    0.3090 c3        1 CMN      0.148300
      5 C5         -0.0070    0.1390    1.2880 c2        1 CMN     -0.179400
      6 C6          0.4140    0.1040    2.7230 c3        1 CMN      0.170600
      7 C7         -1.2930    0.1070    0.9200 c2        1 CMN     -0.104200
      8 N1         -2.3860   -1.1280   -0.8790 n3        1 CMN     -0.886800
      9 O2         -1.0440    0.4280   -2.7700 oh        1 CMN     -0.605800
     10 O3          1.6200    0.3600   -2.0670 oh        1 CMN     -0.612800
     11 O4          2.1950   -0.6430    0.5770 oh        1 CMN     -0.604800
     12 O6         -0.6950    0.4200    3.5490 oh        1 CMN     -0.592800
     13 H1         -2.6100    0.9100   -0.5660 h1        1 CMN      0.080700
     14 H2         -0.4950    1.7500   -1.2610 h1        1 CMN      0.053700
     15 H3          0.5310   -1.2030   -1.2220 h1        1 CMN      0.062700
     16 H4          1.5160    1.3120    0.3270 h1        1 CMN      0.055700
     17 H62         0.8020   -0.9240    2.9710 h1        1 CMN      0.028200
     18 H61         1.2350    0.8550    2.9010 h1        1 CMN      0.028200
     19 H7         -2.0930    0.0530    1.6800 ha        1 CMN      0.161000
     20 H12        -2.7000   -1.0730   -1.8300 hn        1 CMN      0.356300
     21 H11        -1.7200   -1.8720   -0.8020 hn        1 CMN      0.356300
     22 H2O1       -0.2860    0.6550   -3.3250 ho        1 CMN      0.427000
     23 H3O1        2.4500   -0.0860   -1.8520 ho        1 CMN      0.424000
     24 H4O1        2.5310   -0.4340    1.4560 ho        1 CMN      0.406000
     25 H6         -0.4140    0.2540    4.4570 ho        1 CMN      0.405000
@<TRIPOS>BOND
     1    1    2 1   
     2    1    7 1   
     3    1    8 1   
     4    1   13 1   
     5    2    3 1   
     6    2    9 1   
     7    2   14 1   
     8    3    4 1   
     9    3   10 1   
    10    3   15 1   
    11    4    5 1   
    12    4   11 1   
    13    4   16 1   
    14    5    6 1   
    15    5    7 2   
    16    6   12 1   
    17    6   17 1   
    18    6   18 1   
    19    7   19 1   
    20    8   20 1   
    21    8   21 1   
    22    9   22 1   
    23   10   23 1   
    24   11   24 1   
    25   12   25 1   
@<TRIPOS>SUBSTRUCTURE
     1 CMN         1 TEMP              0 ****  ****    0 ROOT
