@<TRIPOS>MOLECULE
CMN
   26    26     1     0     0
SMALL
bcc


@<TRIPOS>ATOM
      1 C1         -0.0180    0.0080   -0.0620 c3        1 CMN      0.179700
      2 C2          1.5250   -0.0730   -0.0360 c3        1 CMN      0.130100
      3 C3          2.0520   -0.0120    1.4060 c3        1 CMN      0.115100
      4 C4          1.6510    1.3280    2.0510 c3        1 CMN      0.122300
      5 C5          0.1930    1.6260    1.8380 c2        1 CMN     -0.045400
      6 C6         -0.3840    2.6550    2.7590 c3        1 CMN      0.150600
      7 C7         -0.5360    1.0500    0.8710 c2        1 CMN     -0.253200
      8 N1         -0.6460   -1.3280    0.2640 nz        1 CMN     -0.838600
      9 O2          1.8980   -1.2900   -0.6560 oh        1 CMN     -0.631800
     10 O3          3.4570   -0.1190    1.3000 oh        1 CMN     -0.594800
     11 O4          1.9780    1.1870    3.4230 oh        1 CMN     -0.585800
     12 O6         -1.7600    2.8180    2.4640 oh        1 CMN     -0.602800
     13 H1         -0.3380    0.2440   -1.1250 hx        1 CMN      0.124700
     14 H2          1.9290    0.8000   -0.6250 h1        1 CMN      0.103700
     15 H3          1.6530   -0.8650    2.0220 h1        1 CMN      0.055700
     16 H4          2.2570    2.1600    1.5850 h1        1 CMN      0.088700
     17 H62        -0.2600    2.3050    3.8240 h1        1 CMN      0.062700
     18 H61         0.1660    3.6280    2.6210 h1        1 CMN      0.062700
     19 H7         -1.5840    1.3620    0.7040 ha        1 CMN      0.183000
     20 H12        -1.6580   -1.2800    0.1230 hn        1 CMN      0.463800
     21 H11        -0.2340   -2.0450   -0.3470 hn        1 CMN      0.463800
     22 H2O1        2.8670   -1.3450   -0.6220 ho        1 CMN      0.472000
     23 H3O1        3.8160   -0.0560    2.1970 ho        1 CMN      0.448000
     24 H4O1        2.0540    2.0730    3.8000 ho        1 CMN      0.428000
     25 H6         -2.0820    3.5380    3.0230 ho        1 CMN      0.433000
     26 H13        -0.4530   -1.5730    1.2400 hn        1 CMN      0.463800
@<TRIPOS>BOND
     1    1    2 1   
     2    1    7 1   
     3    1    8 1   
     4    1   13 1   
     5    2    3 1   
     6    2    9 1   
     7    2   14 1   
     8    3    4 1   
     9    3   10 1   
    10    3   15 1   
    11    4    5 1   
    12    4   11 1   
    13    4   16 1   
    14    5    6 1   
    15    5    7 2   
    16    6   12 1   
    17    6   17 1   
    18    6   18 1   
    19    7   19 1   
    20    8   20 1   
    21    8   21 1   
    22    8   26 1   
    23    9   22 1   
    24   10   23 1   
    25   11   24 1   
    26   12   25 1   
@<TRIPOS>SUBSTRUCTURE
     1 CMN         1 TEMP              0 ****  ****    0 ROOT
