@<TRIPOS>MOLECULE
CMN
   25    25     1     0     0
SMALL
bcc


@<TRIPOS>ATOM
      1 C1         -0.9080   -0.4650   -1.4790 c3        1 CMN      0.202700
      2 C2          0.7490   -0.4650   -1.4790 c3        1 CMN      0.108100
      3 C3          1.3090   -0.4650   -0.3130 c3        1 CMN      0.111100
      4 C4          0.8920    0.7800    0.6770 c3        1 CMN      0.161300
      5 C5         -0.5630    0.9420    0.7840 c2        1 CMN     -0.150400
      6 C6         -1.2320    0.8880    2.1380 c3        1 CMN      0.165600
      7 C7         -1.4590    0.5790   -0.6290 c2        1 CMN     -0.141200
      8 N1         -1.4460   -1.7810   -1.1320 n3        1 CMN     -0.888800
      9 O2          1.2140   -1.6850   -2.2180 oh        1 CMN     -0.607800
     10 O3          2.8020   -0.4240   -0.5120 oh        1 CMN     -0.613800
     11 O4          1.5110    0.6550    1.9790 oh        1 CMN     -0.612800
     12 O6         -1.3480    2.1940    2.6570 oh        1 CMN     -0.615800
     13 H1         -1.2420   -0.3660   -2.3900 h1        1 CMN      0.077700
     14 H2          1.0550    0.3240   -1.9650 h1        1 CMN      0.053700
     15 H3          1.0810   -1.3010    0.1360 h1        1 CMN      0.060700
     16 H4          1.2990    1.6100    0.3600 h1        1 CMN      0.067700
     17 H62        -2.1200    0.4940    2.0460 h1        1 CMN      0.039700
     18 H61        -0.6950    0.3440    2.7440 h1        1 CMN      0.039700
     19 H7         -2.0690    1.2420   -1.0040 ha        1 CMN      0.139000
     20 H12        -2.2830   -1.6850   -0.7830 hn        1 CMN      0.357300
     21 H11        -1.4860   -2.3000   -1.8810 hn        1 CMN      0.357300
     22 H2O1        1.5190   -1.4480   -3.0180 ho        1 CMN      0.428000
     23 H3O1        3.1780   -1.0960   -0.0720 ho        1 CMN      0.426000
     24 H4O1        2.1860    1.2290    2.0430 ho        1 CMN      0.426000
     25 H6         -1.9470    2.2000    3.3110 ho        1 CMN      0.411000
@<TRIPOS>BOND
     1    1    2 1   
     2    1    7 1   
     3    1    8 1   
     4    1   13 1   
     5    2    3 1   
     6    2    9 1   
     7    2   14 1   
     8    3    4 1   
     9    3   10 1   
    10    3   15 1   
    11    4    5 1   
    12    4   11 1   
    13    4   16 1   
    14    5    6 1   
    15    5    7 2   
    16    6   12 1   
    17    6   17 1   
    18    6   18 1   
    19    7   19 1   
    20    8   20 1   
    21    8   21 1   
    22    9   22 1   
    23   10   23 1   
    24   11   24 1   
    25   12   25 1   
@<TRIPOS>SUBSTRUCTURE
     1 CMN         1 TEMP              0 ****  ****    0 ROOT
