@<TRIPOS>MOLECULE
CMN
   26    26     1     0     0
SMALL
bcc


@<TRIPOS>ATOM
      1 C1         -0.0400    0.0040   -0.0520 c3        1 CMN      0.179700
      2 C2          1.5040   -0.0810   -0.0430 c3        1 CMN      0.130100
      3 C3          2.0470   -0.0130    1.3930 c3        1 CMN      0.115100
      4 C4          1.6560    1.3310    2.0350 c3        1 CMN      0.122300
      5 C5          0.1970    1.6320    1.8370 c2        1 CMN     -0.045400
      6 C6         -0.3670    2.6680    2.7580 c3        1 CMN      0.150600
      7 C7         -0.5440    1.0520    0.8800 c2        1 CMN     -0.253200
      8 N1         -0.6680   -1.3290    0.2890 n4        1 CMN     -0.838600
      9 O2          1.8670   -1.3020   -0.6600 oh        1 CMN     -0.631800
     10 O3          3.4510   -0.1250    1.2720 oh        1 CMN     -0.594800
     11 O4          1.9990    1.1960    3.4040 oh        1 CMN     -0.585800
     12 O6         -1.7460    2.8320    2.4780 oh        1 CMN     -0.602800
     13 H1         -0.3700    0.2350   -1.1130 hx        1 CMN      0.124700
     14 H2          1.9030    0.7870   -0.6410 h1        1 CMN      0.103700
     15 H3          1.6530   -0.8620    2.0180 h1        1 CMN      0.055700
     16 H4          2.2600    2.1590    1.5570 h1        1 CMN      0.088700
     17 H62        -0.2310    2.3240    3.8230 h1        1 CMN      0.062700
     18 H61         0.1830    3.6390    2.6080 h1        1 CMN      0.062700
     19 H7         -1.5930    1.3670    0.7230 ha        1 CMN      0.183000
     20 H12        -1.6800   -1.2780    0.1580 hn        1 CMN      0.463800
     21 H11        -0.2640   -2.0500   -0.3240 hn        1 CMN      0.463800
     22 H2O1        2.8360   -1.3600   -0.6360 ho        1 CMN      0.472000
     23 H3O1        3.8200   -0.0590    2.1650 ho        1 CMN      0.448000
     24 H4O1        2.0810    2.0850    3.7750 ho        1 CMN      0.428000
     25 H6         -2.0600    3.5560    3.0360 ho        1 CMN      0.433000
     26 H13        -0.4640   -1.5680    1.2630 hn        1 CMN      0.463800
@<TRIPOS>BOND
     1    1    2 1   
     2    1    7 1   
     3    1    8 1   
     4    1   13 1   
     5    2    3 1   
     6    2    9 1   
     7    2   14 1   
     8    3    4 1   
     9    3   10 1   
    10    3   15 1   
    11    4    5 1   
    12    4   11 1   
    13    4   16 1   
    14    5    6 1   
    15    5    7 2   
    16    6   12 1   
    17    6   17 1   
    18    6   18 1   
    19    7   19 1   
    20    8   20 1   
    21    8   21 1   
    22    8   26 1   
    23    9   22 1   
    24   10   23 1   
    25   11   24 1   
    26   12   25 1   
@<TRIPOS>SUBSTRUCTURE
     1 CMN         1 TEMP              0 ****  ****    0 ROOT
