@<TRIPOS>MOLECULE
CMP
   34    37     1     0     0
SMALL
bcc


@<TRIPOS>ATOM
      1 P           0.2960    0.4100    0.1920 p5        1 CMP      1.607500
      2 O1P        -0.0980    1.6830    0.7700 o         1 CMP     -0.804300
      3 O2P         0.0710    0.2950   -1.3710 oh        1 CMP     -0.730400
      4 O5'         1.8350   -0.0050    0.3980 os        1 CMP     -0.551200
      5 C5'         2.2350   -0.3830    1.7030 c3        1 CMP      0.170400
      6 C4'         1.3500   -1.5560    2.1080 c3        1 CMP      0.047100
      7 O4'         1.5730   -2.0570    3.4200 os        1 CMP     -0.402600
      8 C3'        -0.1220   -1.0770    2.1110 c3        1 CMP      0.060100
      9 O3'        -0.5360   -0.8610    0.7890 os        1 CMP     -0.521200
     10 C2'        -0.8180   -2.2080    2.8770 c3        1 CMP      0.130100
     11 O2'        -1.1070   -3.3310    2.0770 oh        1 CMP     -0.582800
     12 C1'         0.3180   -2.6630    3.8800 c3        1 CMP      0.245800
     13 N9          0.0750   -2.2690    5.2340 na        1 CMP     -0.280000
     14 C8         -0.1680   -0.9560    5.7280 cc        1 CMP      0.409700
     15 N7         -0.1630   -0.8740    7.0620 nd        1 CMP     -0.531100
     16 C5          0.1290   -2.1730    7.5100 ca        1 CMP     -0.238200
     17 C6          0.2730   -2.7400    8.8200 ca        1 CMP      0.766200
     18 N6          0.0980   -1.9640    9.9330 nv        1 CMP     -0.959500
     19 N1          0.5780   -4.0800    8.9300 nb        1 CMP     -0.792000
     20 C2          0.7160   -4.7890    7.7810 ca        1 CMP      0.692900
     21 N3          0.6040   -4.3930    6.4890 nb        1 CMP     -0.734000
     22 C4          0.3080   -3.0670    6.3720 ca        1 CMP      0.479800
     23 HOP2       -0.2770    1.0770   -1.7980 ho        1 CMP      0.492000
     24 H5'1        2.1120    0.4940    2.3920 h1        1 CMP      0.083200
     25 H5'2        3.3150   -0.6780    1.6340 h1        1 CMP      0.083200
     26 H4'         1.4890   -2.4160    1.3890 h1        1 CMP      0.094700
     27 H3'        -0.2410   -0.1120    2.6880 h1        1 CMP      0.078700
     28 H2'        -1.7480   -1.8610    3.3950 h1        1 CMP      0.082700
     29 HO2'       -1.4740   -2.9970    1.2440 ho        1 CMP      0.436000
     30 H1'         0.4630   -3.7830    3.8260 h2        1 CMP      0.140700
     31 H8         -0.3550   -0.1220    5.0410 h5        1 CMP      0.071800
     32 HN61       -0.0790   -0.9980    9.8200 hn        1 CMP      0.450800
     33 HN62        0.2240   -2.3420   10.8390 hn        1 CMP      0.450800
     34 H2          0.9620   -5.8640    7.9260 h5        1 CMP      0.055100
@<TRIPOS>BOND
     1    1    2 2   
     2    1    3 1   
     3    1    4 1   
     4    1    9 1   
     5    3   23 1   
     6    4    5 1   
     7    5    6 1   
     8    5   24 1   
     9    5   25 1   
    10    6    7 1   
    11    6    8 1   
    12    6   26 1   
    13    7   12 1   
    14    8    9 1   
    15    8   10 1   
    16    8   27 1   
    17   10   11 1   
    18   10   12 1   
    19   10   28 1   
    20   11   29 1   
    21   12   13 1   
    22   12   30 1   
    23   13   14 1   
    24   13   22 1   
    25   14   15 2   
    26   14   31 1   
    27   15   16 1   
    28   16   17 ar  
    29   16   22 ar  
    30   17   18 1   
    31   17   19 ar  
    32   18   32 1   
    33   18   33 1   
    34   19   20 ar  
    35   20   21 ar  
    36   20   34 1   
    37   21   22 ar  
@<TRIPOS>SUBSTRUCTURE
     1 CMP         1 TEMP              0 ****  ****    0 ROOT
