@<TRIPOS>MOLECULE
CMP
   34    37     1     0     0
SMALL
bcc


@<TRIPOS>ATOM
      1 P           0.3400    0.3980    0.1850 p5        1 CMP      1.607500
      2 O1P        -0.0650    1.6710    0.7550 o         1 CMP     -0.804300
      3 O2P         0.1350    0.2770   -1.3790 oh        1 CMP     -0.730400
      4 O5'         1.8770   -0.0120    0.4120 os        1 CMP     -0.551200
      5 C5'         2.2630   -0.3850    1.7230 c3        1 CMP      0.170400
      6 C4'         1.3760   -1.5590    2.1200 c3        1 CMP      0.047100
      7 O4'         1.5850   -2.0560    3.4360 os        1 CMP     -0.402600
      8 C3'        -0.0970   -1.0850    2.1040 c3        1 CMP      0.060100
      9 O3'        -0.4960   -0.8740    0.7760 os        1 CMP     -0.521200
     10 C2'        -0.7990   -2.2150    2.8640 c3        1 CMP      0.130100
     11 O2'        -1.0740   -3.3420    2.0640 oh        1 CMP     -0.582800
     12 C1'         0.3260   -2.6640    3.8830 c3        1 CMP      0.245800
     13 N9          0.0650   -2.2670    5.2320 na        1 CMP     -0.280000
     14 C8         -0.1870   -0.9530    5.7200 cc        1 CMP      0.409700
     15 N7         -0.2000   -0.8660    7.0530 nd        1 CMP     -0.531100
     16 C5          0.0890   -2.1640    7.5090 ca        1 CMP     -0.238200
     17 C6          0.2160   -2.7270    8.8220 ca        1 CMP      0.766200
     18 N6          0.0260   -1.9480    9.9310 nh        1 CMP     -0.959500
     19 N1          0.5220   -4.0660    8.9400 nb        1 CMP     -0.792000
     20 C2          0.6770   -4.7780    7.7950 ca        1 CMP      0.692900
     21 N3          0.5810   -4.3860    6.5010 nb        1 CMP     -0.734000
     22 C4          0.2840   -3.0610    6.3760 ca        1 CMP      0.479800
     23 HOP2       -0.2110    1.0580   -1.8130 ho        1 CMP      0.492000
     24 H5'1        2.1290    0.4940    2.4080 h1        1 CMP      0.083200
     25 H5'2        3.3440   -0.6770    1.6680 h1        1 CMP      0.083200
     26 H4'         1.5270   -2.4210    1.4050 h1        1 CMP      0.094700
     27 H3'        -0.2260   -0.1190    2.6770 h1        1 CMP      0.078700
     28 H2'        -1.7370   -1.8700    3.3700 h1        1 CMP      0.082700
     29 HO2'       -1.4320   -3.0120    1.2270 ho        1 CMP      0.436000
     30 H1'         0.4750   -3.7830    3.8340 h2        1 CMP      0.140700
     31 H8         -0.3660   -0.1210    5.0270 h5        1 CMP      0.071800
     32 HN61        0.1390   -2.3230   10.8390 hn        1 CMP      0.450800
     33 HN62       -0.1520   -0.9830    9.8130 hn        1 CMP      0.450800
     34 H2          0.9230   -5.8520    7.9470 h5        1 CMP      0.055100
@<TRIPOS>BOND
     1    1    2 2   
     2    1    3 1   
     3    1    4 1   
     4    1    9 1   
     5    3   23 1   
     6    4    5 1   
     7    5    6 1   
     8    5   24 1   
     9    5   25 1   
    10    6    7 1   
    11    6    8 1   
    12    6   26 1   
    13    7   12 1   
    14    8    9 1   
    15    8   10 1   
    16    8   27 1   
    17   10   11 1   
    18   10   12 1   
    19   10   28 1   
    20   11   29 1   
    21   12   13 1   
    22   12   30 1   
    23   13   14 1   
    24   13   22 1   
    25   14   15 2   
    26   14   31 1   
    27   15   16 1   
    28   16   17 ar  
    29   16   22 ar  
    30   17   18 1   
    31   17   19 ar  
    32   18   32 1   
    33   18   33 1   
    34   19   20 ar  
    35   20   21 ar  
    36   20   34 1   
    37   21   22 ar  
@<TRIPOS>SUBSTRUCTURE
     1 CMP         1 TEMP              0 ****  ****    0 ROOT
