@<TRIPOS>MOLECULE
CMP
   35    38     1     0     0
SMALL
bcc


@<TRIPOS>ATOM
      1 P           0.1390    0.3830    0.1960 p5        1 CMP      1.612500
      2 O1P        -0.2790    1.5620    0.9320 o         1 CMP     -0.803300
      3 O2P        -0.1610    0.3330   -1.3500 oh        1 CMP     -0.724400
      4 O5'         1.7010    0.0190    0.3390 os        1 CMP     -0.541200
      5 C5'         2.1630   -0.2940    1.6390 c3        1 CMP      0.174400
      6 C4'         1.3710   -1.5200    2.0850 c3        1 CMP      0.040100
      7 O4'         1.6430   -1.9850    3.4090 os        1 CMP     -0.397600
      8 C3'        -0.1320   -1.1450    2.1050 c3        1 CMP      0.066100
      9 O3'        -0.5740   -0.9730    0.7900 os        1 CMP     -0.513200
     10 C2'        -0.7410   -2.3070    2.8970 c3        1 CMP      0.136100
     11 O2'        -0.9810   -3.4650    2.1380 oh        1 CMP     -0.580800
     12 C1'         0.4490   -2.6710    3.8780 c3        1 CMP      0.224800
     13 N9          0.2100   -2.2700    5.2470 na        1 CMP     -0.255000
     14 C8          0.0300   -0.9600    5.7460 cc        1 CMP      0.515700
     15 N7         -0.0350   -0.8820    7.0890 nd        1 CMP     -0.583100
     16 C5          0.1340   -2.1990    7.5300 ca        1 CMP     -0.135200
     17 C6          0.1720   -2.8130    8.7930 ca        1 CMP      0.519200
     18 N6          0.0010   -1.9690    9.9910 n4        1 CMP     -0.815300
     19 N1          0.3600   -4.1490    8.9390 nb        1 CMP     -0.677000
     20 C2          0.5120   -4.8740    7.7930 ca        1 CMP      0.676900
     21 N3          0.4990   -4.4410    6.5050 nb        1 CMP     -0.611000
     22 C4          0.3110   -3.1070    6.3720 ca        1 CMP      0.469800
     23 HOP2       -0.5650    1.1120   -1.7370 ho        1 CMP      0.504000
     24 H5'1        1.9860    0.5860    2.3120 h1        1 CMP      0.087700
     25 H5'2        3.2590   -0.5110    1.5490 h1        1 CMP      0.087700
     26 H4'         1.5640   -2.3830    1.3820 h1        1 CMP      0.107700
     27 H3'        -0.3060   -0.1840    2.6760 h1        1 CMP      0.080700
     28 H2'        -1.6790   -2.0140    3.4350 h1        1 CMP      0.083700
     29 HO2'       -1.2580   -3.1820    1.2520 ho        1 CMP      0.452000
     30 H1'         0.6620   -3.7810    3.8450 h2        1 CMP      0.147700
     31 H8         -0.0530   -0.0950    5.0650 h5        1 CMP      0.109800
     32 HN61        0.7460   -1.2610    9.9990 hn        1 CMP      0.478800
     33 HN62       -0.9110   -1.4980    9.9300 hn        1 CMP      0.478800
     34 H2          0.6680   -5.9700    7.9400 h5        1 CMP      0.103100
     35 H63         0.0450   -2.5300   10.8520 hn        1 CMP      0.478800
@<TRIPOS>BOND
     1    1    2 2   
     2    1    3 1   
     3    1    4 1   
     4    1    9 1   
     5    3   23 1   
     6    4    5 1   
     7    5    6 1   
     8    5   24 1   
     9    5   25 1   
    10    6    7 1   
    11    6    8 1   
    12    6   26 1   
    13    7   12 1   
    14    8    9 1   
    15    8   10 1   
    16    8   27 1   
    17   10   11 1   
    18   10   12 1   
    19   10   28 1   
    20   11   29 1   
    21   12   13 1   
    22   12   30 1   
    23   13   14 1   
    24   13   22 1   
    25   14   15 2   
    26   14   31 1   
    27   15   16 1   
    28   16   17 ar  
    29   16   22 ar  
    30   17   18 1   
    31   17   19 ar  
    32   18   32 1   
    33   18   33 1   
    34   18   35 1   
    35   19   20 ar  
    36   20   21 ar  
    37   20   34 1   
    38   21   22 ar  
@<TRIPOS>SUBSTRUCTURE
     1 CMP         1 TEMP              0 ****  ****    0 ROOT
