@<TRIPOS>MOLECULE
CMP
   34    37     1     0     0
SMALL
bcc


@<TRIPOS>ATOM
      1 P           0.1130    0.8450   -3.8990 p5        1 CMP      1.598500
      2 O1P         0.9280    2.0220   -3.6530 o         1 CMP     -0.806300
      3 O2P        -0.7130    0.8980   -5.2500 oh        1 CMP     -0.726400
      4 O5'         0.9270   -0.5410   -3.9980 os        1 CMP     -0.547200
      5 C5'         1.4660   -1.0500   -2.7940 c3        1 CMP      0.167400
      6 C4'         0.2940   -1.2470   -1.8390 c3        1 CMP      0.042100
      7 O4'         0.6620   -1.7220   -0.5430 os        1 CMP     -0.403600
      8 C3'        -0.3710    0.1270   -1.5870 c3        1 CMP      0.110100
      9 O3'        -1.0100    0.5580   -2.7560 os        1 CMP     -0.499200
     10 C2'        -1.2320   -0.1600   -0.3510 c3        1 CMP      0.133100
     11 O2'        -2.4300   -0.7980   -0.7200 oh        1 CMP     -0.567800
     12 C1'        -0.3260   -1.2240    0.4030 c3        1 CMP      0.227800
     13 N9          0.3610   -0.6930    1.5490 na        1 CMP     -0.291000
     14 C8          1.7490   -0.7380    1.8410 cc        1 CMP      0.428700
     15 N7          2.0530   -0.2510    3.0510 nd        1 CMP     -0.543100
     16 C5          0.8260    0.1310    3.6150 ca        1 CMP     -0.229200
     17 C6          0.4700    0.7110    4.8800 ca        1 CMP      0.768200
     18 N6          1.4360    1.0030    5.8010 nh        1 CMP     -0.957500
     19 N1         -0.8590    0.9650    5.1400 nb        1 CMP     -0.794000
     20 C2         -1.7620    0.6510    4.1750 ca        1 CMP      0.692900
     21 N3         -1.5770    0.1100    2.9470 nb        1 CMP     -0.757000
     22 C4         -0.2600   -0.1480    2.6840 ca        1 CMP      0.455800
     23 HOP2       -0.6010    1.6960   -5.7670 ho        1 CMP      0.489000
     24 H5'1        2.2150   -0.3180   -2.3910 h1        1 CMP      0.079700
     25 H5'2        1.9660   -2.0210   -3.0500 h1        1 CMP      0.079700
     26 H4'        -0.4470   -1.9820   -2.2670 h1        1 CMP      0.103700
     27 H3'         0.4010    0.9030   -1.2980 h1        1 CMP      0.078700
     28 H2'        -1.4140    0.7630    0.2540 h1        1 CMP      0.095700
     29 HO2'       -3.0910   -0.5620   -0.0550 ho        1 CMP      0.425000
     30 H1'        -0.9550   -2.1120    0.7100 h2        1 CMP      0.102700
     31 H8          2.4590   -1.1460    1.1100 h5        1 CMP      0.086800
     32 HN61        1.2010    1.4030    6.6750 hn        1 CMP      0.452300
     33 HN62        2.3810    0.8070    5.5850 hn        1 CMP      0.452300
     34 H2         -2.8180    0.8770    4.4400 h5        1 CMP      0.053100
@<TRIPOS>BOND
     1    1    2 2   
     2    1    3 1   
     3    1    4 1   
     4    1    9 1   
     5    3   23 1   
     6    4    5 1   
     7    5    6 1   
     8    5   24 1   
     9    5   25 1   
    10    6    7 1   
    11    6    8 1   
    12    6   26 1   
    13    7   12 1   
    14    8    9 1   
    15    8   10 1   
    16    8   27 1   
    17   10   11 1   
    18   10   12 1   
    19   10   28 1   
    20   11   29 1   
    21   12   13 1   
    22   12   30 1   
    23   13   14 1   
    24   13   22 1   
    25   14   15 2   
    26   14   31 1   
    27   15   16 1   
    28   16   17 ar  
    29   16   22 ar  
    30   17   18 1   
    31   17   19 ar  
    32   18   32 1   
    33   18   33 1   
    34   19   20 ar  
    35   20   21 ar  
    36   20   34 1   
    37   21   22 ar  
@<TRIPOS>SUBSTRUCTURE
     1 CMP         1 TEMP              0 ****  ****    0 ROOT
