@<TRIPOS>MOLECULE
CMQ
   63    64     1     0     0
SMALL
bcc


@<TRIPOS>ATOM
      1 O2          0.4060    0.2200    1.9150 o         1 CMQ     -0.612000
      2 C1          1.1170    0.5450    0.9450 c         1 CMQ      0.746100
      3 O1          2.2130   -0.2260    0.6240 os        1 CMQ     -0.431900
      4 C2          2.4000   -1.3830    1.4660 c3        1 CMQ      0.194700
      5 C3          3.6910   -2.0190    1.0780 ca        1 CMQ     -0.101300
      6 C4          4.4450   -2.6720    2.0610 ca        1 CMQ     -0.113500
      7 C5          5.6340   -3.3120    1.7160 ca        1 CMQ     -0.132000
      8 C6          6.0820   -3.2950    0.3950 ca        1 CMQ     -0.124000
      9 C7          5.3360   -2.6390   -0.5840 ca        1 CMQ     -0.132000
     10 C8          4.1420   -2.0030   -0.2450 ca        1 CMQ     -0.113500
     11 N1          0.9740    1.6410    0.1260 n         1 CMQ     -0.537900
     12 C9         -0.1760    2.5030    0.2620 c3        1 CMQ      0.047700
     13 C11         0.0800    3.9000   -0.3230 c3        1 CMQ     -0.080400
     14 C12        -0.9540    4.9030    0.1710 c3        1 CMQ     -0.065700
     15 C13        -0.6640    5.3540    1.5870 c3        1 CMQ     -0.092600
     16 C14        -0.9890    6.1000   -0.7590 c3        1 CMQ     -0.092600
     17 C10        -1.4320    1.8850   -0.4180 c         1 CMQ      0.628100
     18 O3         -1.8550    2.3120   -1.5100 o         1 CMQ     -0.610100
     19 N2         -2.0550    0.8700    0.2690 n         1 CMQ     -0.562900
     20 C15        -3.2360    0.2110   -0.2350 c3        1 CMQ      0.072700
     21 C16        -4.5510    0.7800    0.3750 c3        1 CMQ      0.125100
     22 O4         -4.5960    0.5970    1.7790 oh        1 CMQ     -0.597800
     23 C24        -4.7630    2.2290   -0.0120 c3        1 CMQ     -0.127100
     24 C17        -3.2250   -1.3080    0.0170 c3        1 CMQ     -0.044100
     25 C18        -2.1000   -2.0120   -0.6500 ca        1 CMQ     -0.116300
     26 C19        -2.0120   -2.0390   -2.0500 ca        1 CMQ     -0.089500
     27 C21        -0.9900   -2.7280   -2.6890 ca        1 CMQ     -0.186500
     28 C23        -0.0370   -3.4100   -1.9120 ca        1 CMQ      0.123100
     29 O5          0.9500   -4.0790   -2.5980 oh        1 CMQ     -0.498100
     30 C22        -0.1100   -3.3930   -0.5130 ca        1 CMQ     -0.186500
     31 C20        -1.1410   -2.6910    0.1080 ca        1 CMQ     -0.089500
     32 H21A        2.3990   -1.0570    2.5400 h1        1 CMQ      0.065700
     33 H22A        1.5350   -2.0820    1.2870 h1        1 CMQ      0.065700
     34 H4          4.0990   -2.6790    3.1050 ha        1 CMQ      0.140000
     35 H5          6.2230   -3.8260    2.4900 ha        1 CMQ      0.134500
     36 H6          7.0230   -3.7970    0.1260 ha        1 CMQ      0.134000
     37 H7          5.6890   -2.6190   -1.6250 ha        1 CMQ      0.134500
     38 H8          3.5530   -1.4780   -1.0130 ha        1 CMQ      0.140000
     39 HN1         1.5220    1.7000   -0.7000 hn        1 CMQ      0.337500
     40 H9         -0.3920    2.6070    1.3700 h1        1 CMQ      0.089700
     41 H111        0.0320    3.8400   -1.4430 hc        1 CMQ      0.065200
     42 H112        1.1050    4.2530   -0.0350 hc        1 CMQ      0.065200
     43 H12        -1.9680    4.4080    0.1450 hc        1 CMQ      0.057700
     44 H131       -1.4420    6.0810    1.9250 hc        1 CMQ      0.036700
     45 H132       -0.6630    4.4880    2.2920 hc        1 CMQ      0.036700
     46 H133        0.3330    5.8540    1.6440 hc        1 CMQ      0.036700
     47 H141        0.0140    6.5890   -0.8060 hc        1 CMQ      0.036700
     48 H142       -1.2800    5.7840   -1.7890 hc        1 CMQ      0.036700
     49 H143       -1.7310    6.8490   -0.3930 hc        1 CMQ      0.036700
     50 HN2        -1.6230    0.4860    1.0810 hn        1 CMQ      0.338500
     51 H15        -3.2880    0.3940   -1.3520 h1        1 CMQ      0.082700
     52 H16        -5.4070    0.1510   -0.0050 h1        1 CMQ      0.075700
     53 HO4        -3.9680    1.2130    2.1750 ho        1 CMQ      0.401000
     54 H241       -4.7400    2.3350   -1.1230 hc        1 CMQ      0.047700
     55 H242       -5.7490    2.5840    0.3720 hc        1 CMQ      0.047700
     56 H243       -3.9610    2.8800    0.4150 hc        1 CMQ      0.047700
     57 H171       -3.2110   -1.4940    1.1250 hc        1 CMQ      0.063700
     58 H172       -4.1940   -1.7200   -0.3750 hc        1 CMQ      0.063700
     59 H19        -2.7650   -1.5050   -2.6510 ha        1 CMQ      0.137500
     60 H21        -0.9140   -2.7520   -3.7850 ha        1 CMQ      0.142000
     61 HO5         1.5290   -4.5040   -1.9480 ho        1 CMQ      0.420000
     62 H22         0.6360   -3.9320    0.0880 ha        1 CMQ      0.142000
     63 H20        -1.1960   -2.6720    1.2080 ha        1 CMQ      0.137500
@<TRIPOS>BOND
     1    1    2 2   
     2    2    3 1   
     3    2   11 1   
     4    3    4 1   
     5    4    5 1   
     6    4   32 1   
     7    4   33 1   
     8    5    6 ar  
     9    5   10 ar  
    10    6    7 ar  
    11    6   34 1   
    12    7    8 ar  
    13    7   35 1   
    14    8    9 ar  
    15    8   36 1   
    16    9   10 ar  
    17    9   37 1   
    18   10   38 1   
    19   11   12 1   
    20   11   39 1   
    21   12   13 1   
    22   12   17 1   
    23   12   40 1   
    24   13   14 1   
    25   13   41 1   
    26   13   42 1   
    27   14   15 1   
    28   14   16 1   
    29   14   43 1   
    30   15   44 1   
    31   15   45 1   
    32   15   46 1   
    33   16   47 1   
    34   16   48 1   
    35   16   49 1   
    36   17   18 2   
    37   17   19 1   
    38   19   20 1   
    39   19   50 1   
    40   20   21 1   
    41   20   24 1   
    42   20   51 1   
    43   21   22 1   
    44   21   23 1   
    45   21   52 1   
    46   22   53 1   
    47   23   54 1   
    48   23   55 1   
    49   23   56 1   
    50   24   25 1   
    51   24   57 1   
    52   24   58 1   
    53   25   26 ar  
    54   25   31 ar  
    55   26   27 ar  
    56   26   59 1   
    57   27   28 ar  
    58   27   60 1   
    59   28   29 1   
    60   28   30 ar  
    61   29   61 1   
    62   30   31 ar  
    63   30   62 1   
    64   31   63 1   
@<TRIPOS>SUBSTRUCTURE
     1 CMQ         1 TEMP              0 ****  ****    0 ROOT
