@<TRIPOS>MOLECULE
CMQ
   65    66     1     0     0
SMALL
bcc


@<TRIPOS>ATOM
      1 O2          0.6280   -0.9310   -1.0770 o         1 CMQ     -0.500000
      2 C1          0.7230    0.0940   -0.4070 c         1 CMQ      0.653100
      3 O1          0.4080    0.3220    0.8540 os        1 CMQ     -0.388900
      4 C2          0.1200   -0.8510    1.7440 c3        1 CMQ      0.232700
      5 C3          1.3720   -1.3170    2.3620 ca        1 CMQ     -0.207300
      6 C4          1.9390   -0.5970    3.4250 ca        1 CMQ     -0.085500
      7 C5          3.0830   -1.0740    4.0590 ca        1 CMQ     -0.129000
      8 C6          3.6660   -2.2730    3.6420 ca        1 CMQ     -0.063000
      9 C7          3.1040   -2.9930    2.5840 ca        1 CMQ     -0.129000
     10 C8          1.9630   -2.5190    1.9440 ca        1 CMQ     -0.085500
     11 N1          1.2150    1.3630   -1.0790 ny        1 CMQ     -0.663800
     12 C9          0.9630    1.3300   -2.5620 c3        1 CMQ      0.069500
     13 C11         1.3000    2.6730   -3.2300 c3        1 CMQ     -0.114400
     14 C12         0.5090    2.8650   -4.5210 c3        1 CMQ     -0.073700
     15 C13        -0.9350    3.2250   -4.2410 c3        1 CMQ     -0.105600
     16 C14         1.1710    3.9570   -5.3410 c3        1 CMQ     -0.105600
     17 C10         1.8340    0.2240   -3.1920 c         1 CMQ      0.532100
     18 O3          3.0410    0.1510   -3.0000 o         1 CMQ     -0.393100
     19 N2          1.1440   -0.7860   -4.0250 ny        1 CMQ     -0.652800
     20 C15         1.9830   -1.3650   -5.1510 c3        1 CMQ      0.128500
     21 C16         2.0110   -0.4430   -6.3990 c3        1 CMQ      0.123100
     22 O4          0.7040    0.1000   -6.5490 oh        1 CMQ     -0.650800
     23 C24         3.0370    0.6640   -6.2660 c3        1 CMQ     -0.141100
     24 C17         1.4350   -2.7470   -5.5470 c3        1 CMQ     -0.049100
     25 C18         1.2900   -3.6590   -4.3860 ca        1 CMQ     -0.216300
     26 C19         2.3760   -4.4300   -3.9520 ca        1 CMQ     -0.090500
     27 C21         2.2310   -5.3320   -2.9040 ca        1 CMQ     -0.177000
     28 C23         0.9790   -5.4710   -2.2830 ca        1 CMQ      0.166100
     29 O5          0.7570   -6.3100   -1.2270 oh        1 CMQ     -0.476100
     30 C22        -0.1270   -4.7140   -2.7200 ca        1 CMQ     -0.177000
     31 C20         0.0380   -3.8230   -3.7700 ca        1 CMQ     -0.090500
     32 H21A       -0.4010   -1.6290    1.1320 h1        1 CMQ      0.111200
     33 H22A       -0.5750   -0.3420    2.4720 h1        1 CMQ      0.111200
     34 H4          1.4680    0.3380    3.7690 ha        1 CMQ      0.141500
     35 H5          3.5210   -0.5130    4.9010 ha        1 CMQ      0.161500
     36 H6          4.5640   -2.6570    4.1540 ha        1 CMQ      0.166000
     37 H7          3.5570   -3.9460    2.2680 ha        1 CMQ      0.161500
     38 H8          1.5090   -3.1010    1.1260 ha        1 CMQ      0.141500
     39 HN1         0.7320    2.1780   -0.6680 hn        1 CMQ      0.493800
     40 H9         -0.1430    1.1120   -2.6940 hx        1 CMQ      0.141700
     41 H111        1.0540    3.5270   -2.5400 hc        1 CMQ      0.096700
     42 H112        2.4030    2.7180   -3.4440 hc        1 CMQ      0.096700
     43 H12         0.5400    1.9070   -5.1190 hc        1 CMQ      0.051700
     44 H131       -1.4470    2.4320   -3.6460 hc        1 CMQ      0.058700
     45 H132       -1.0030    4.1920   -3.6840 hc        1 CMQ      0.058700
     46 H133       -1.4880    3.3470   -5.2060 hc        1 CMQ      0.058700
     47 H141        0.5770    4.1440   -6.2700 hc        1 CMQ      0.058700
     48 H142        1.2230    4.9110   -4.7630 hc        1 CMQ      0.058700
     49 H143        2.2050    3.6570   -5.6350 hc        1 CMQ      0.058700
     50 HN2         0.2950   -0.3770   -4.4470 hn        1 CMQ      0.494800
     51 H15         3.0370   -1.4750   -4.7540 hx        1 CMQ      0.127700
     52 H16         2.2690   -1.0940   -7.2840 h1        1 CMQ      0.102700
     53 HO4         0.5960    0.3600   -7.4740 ho        1 CMQ      0.464000
     54 H241        2.8070    1.3190   -5.3890 hc        1 CMQ      0.064033
     55 H242        3.0280    1.3000   -7.1860 hc        1 CMQ      0.064033
     56 H243        4.0610    0.2350   -6.1440 hc        1 CMQ      0.064033
     57 H171        2.1660   -3.1810   -6.2870 hc        1 CMQ      0.100200
     58 H172        0.4540   -2.6200   -6.0820 hc        1 CMQ      0.100200
     59 H19         3.3520   -4.3380   -4.4560 ha        1 CMQ      0.140000
     60 H21         3.0840   -5.9490   -2.5800 ha        1 CMQ      0.168500
     61 HO5         1.5170   -6.9090   -1.1360 ho        1 CMQ      0.445000
     62 H22        -1.1070   -4.8660   -2.2420 ha        1 CMQ      0.168500
     63 H20        -0.8400   -3.2800   -4.1550 ha        1 CMQ      0.140000
     64 H121        2.2250    1.4610   -0.8920 hn        1 CMQ      0.493800
     65 H221        0.8650   -1.5760   -3.4010 hn        1 CMQ      0.494800
@<TRIPOS>BOND
     1    1    2 2   
     2    2    3 1   
     3    2   11 1   
     4    3    4 1   
     5    4    5 1   
     6    4   32 1   
     7    4   33 1   
     8    5    6 ar  
     9    5   10 ar  
    10    6    7 ar  
    11    6   34 1   
    12    7    8 ar  
    13    7   35 1   
    14    8    9 ar  
    15    8   36 1   
    16    9   10 ar  
    17    9   37 1   
    18   10   38 1   
    19   11   12 1   
    20   11   39 1   
    21   11   64 1   
    22   12   13 1   
    23   12   17 1   
    24   12   40 1   
    25   13   14 1   
    26   13   41 1   
    27   13   42 1   
    28   14   15 1   
    29   14   16 1   
    30   14   43 1   
    31   15   44 1   
    32   15   45 1   
    33   15   46 1   
    34   16   47 1   
    35   16   48 1   
    36   16   49 1   
    37   17   18 2   
    38   17   19 1   
    39   19   20 1   
    40   19   50 1   
    41   19   65 1   
    42   20   21 1   
    43   20   24 1   
    44   20   51 1   
    45   21   22 1   
    46   21   23 1   
    47   21   52 1   
    48   22   53 1   
    49   23   54 1   
    50   23   55 1   
    51   23   56 1   
    52   24   25 1   
    53   24   57 1   
    54   24   58 1   
    55   25   26 ar  
    56   25   31 ar  
    57   26   27 ar  
    58   26   59 1   
    59   27   28 ar  
    60   27   60 1   
    61   28   29 1   
    62   28   30 ar  
    63   29   61 1   
    64   30   31 ar  
    65   30   62 1   
    66   31   63 1   
@<TRIPOS>SUBSTRUCTURE
     1 CMQ         1 TEMP              0 ****  ****    0 ROOT
