@<TRIPOS>MOLECULE
CMQ
   65    66     1     0     0
SMALL
bcc


@<TRIPOS>ATOM
      1 O2          0.6190   -0.9350   -1.0810 o         1 CMQ     -0.500000
      2 C1          0.6970    0.0930   -0.4140 c         1 CMQ      0.653100
      3 O1          0.3690    0.3210    0.8440 os        1 CMQ     -0.388900
      4 C2          0.0840   -0.8520    1.7340 c3        1 CMQ      0.232700
      5 C3          1.3340   -1.3020    2.3680 ca        1 CMQ     -0.207300
      6 C4          1.8810   -0.5720    3.4340 ca        1 CMQ     -0.085500
      7 C5          3.0240   -1.0350    4.0820 ca        1 CMQ     -0.129000
      8 C6          3.6240   -2.2280    3.6760 ca        1 CMQ     -0.063000
      9 C7          3.0820   -2.9590    2.6150 ca        1 CMQ     -0.129000
     10 C8          1.9420   -2.4990    1.9600 ca        1 CMQ     -0.085500
     11 N1          1.1820    1.3650   -1.0840 n4        1 CMQ     -0.663800
     12 C9          0.9420    1.3260   -2.5690 c3        1 CMQ      0.069500
     13 C11         1.2710    2.6710   -3.2370 c3        1 CMQ     -0.114400
     14 C12         0.4870    2.8530   -4.5350 c3        1 CMQ     -0.073700
     15 C13        -0.9620    3.2000   -4.2650 c3        1 CMQ     -0.105600
     16 C14         1.1440    3.9500   -5.3520 c3        1 CMQ     -0.105600
     17 C10         1.8300    0.2280   -3.1900 c         1 CMQ      0.532100
     18 O3          3.0360    0.1680   -2.9890 o         1 CMQ     -0.393100
     19 N2          1.1570   -0.7920   -4.0250 n4        1 CMQ     -0.652800
     20 C15         2.0090   -1.3630   -5.1450 c3        1 CMQ      0.128500
     21 C16         2.0340   -0.4430   -6.3950 c3        1 CMQ      0.123100
     22 O4          0.7220    0.0840   -6.5540 oh        1 CMQ     -0.650800
     23 C24         3.0460    0.6750   -6.2580 c3        1 CMQ     -0.141100
     24 C17         1.4800   -2.7520   -5.5410 c3        1 CMQ     -0.049100
     25 C18         1.3400   -3.6640   -4.3780 ca        1 CMQ     -0.216300
     26 C19         2.4340   -4.4200   -3.9370 ca        1 CMQ     -0.090500
     27 C21         2.2950   -5.3210   -2.8870 ca        1 CMQ     -0.177000
     28 C23         1.0420   -5.4750   -2.2730 ca        1 CMQ      0.166100
     29 O5          0.8250   -6.3140   -1.2160 oh        1 CMQ     -0.476100
     30 C22        -0.0710   -4.7330   -2.7170 ca        1 CMQ     -0.177000
     31 C20         0.0870   -3.8420   -3.7690 ca        1 CMQ     -0.090500
     32 H21A       -0.6250   -0.3490    2.4530 h1        1 CMQ      0.111200
     33 H22A       -0.4220   -1.6380    1.1190 h1        1 CMQ      0.111200
     34 H4          1.3970    0.3590    3.7690 ha        1 CMQ      0.141500
     35 H5          3.4460   -0.4650    4.9270 ha        1 CMQ      0.161500
     36 H6          4.5200   -2.6010    4.1990 ha        1 CMQ      0.166000
     37 H7          3.5480   -3.9080    2.3070 ha        1 CMQ      0.161500
     38 H8          1.5040   -3.0890    1.1400 ha        1 CMQ      0.141500
     39 HN1         0.6890    2.1760   -0.6790 hn        1 CMQ      0.493800
     40 H9         -0.1610    1.0970   -2.7100 hx        1 CMQ      0.141700
     41 H111        2.3750    2.7270   -3.4440 hc        1 CMQ      0.096700
     42 H112        1.0120    3.5240   -2.5510 hc        1 CMQ      0.096700
     43 H12         0.5310    1.8940   -5.1300 hc        1 CMQ      0.051700
     44 H131       -1.4710    2.4040   -3.6710 hc        1 CMQ      0.058700
     45 H132       -1.0430    4.1670   -3.7100 hc        1 CMQ      0.058700
     46 H133       -1.5100    3.3140   -5.2340 hc        1 CMQ      0.058700
     47 H141        0.5550    4.1290   -6.2850 hc        1 CMQ      0.058700
     48 H142        1.1840    4.9050   -4.7760 hc        1 CMQ      0.058700
     49 H143        2.1830    3.6580   -5.6390 hc        1 CMQ      0.058700
     50 HN2         0.8820   -1.5840   -3.4010 hn        1 CMQ      0.494800
     51 H15         3.0620   -1.4600   -4.7410 hx        1 CMQ      0.127700
     52 H16         2.3040   -1.0940   -7.2770 h1        1 CMQ      0.102700
     53 HO4         0.6150    0.3400   -7.4800 ho        1 CMQ      0.464000
     54 H241        2.8060    1.3280   -5.3840 hc        1 CMQ      0.064033
     55 H242        3.0340    1.3100   -7.1790 hc        1 CMQ      0.064033
     56 H243        4.0750    0.2570   -6.1310 hc        1 CMQ      0.064033
     57 H171        0.5010   -2.6390   -6.0820 hc        1 CMQ      0.100200
     58 H172        2.2200   -3.1790   -6.2760 hc        1 CMQ      0.100200
     59 H19         3.4110   -4.3170   -4.4360 ha        1 CMQ      0.140000
     60 H21         3.1540   -5.9270   -2.5580 ha        1 CMQ      0.168500
     61 HO5         1.5920   -6.9030   -1.1190 ho        1 CMQ      0.445000
     62 H22        -1.0520   -4.8960   -2.2450 ha        1 CMQ      0.168500
     63 H20        -0.7950   -3.3120   -4.1600 ha        1 CMQ      0.140000
     64 H121        2.1900    1.4720   -0.8890 hn        1 CMQ      0.493800
     65 H221        0.3060   -0.3940   -4.4530 hn        1 CMQ      0.494800
@<TRIPOS>BOND
     1    1    2 2   
     2    2    3 1   
     3    2   11 1   
     4    3    4 1   
     5    4    5 1   
     6    4   32 1   
     7    4   33 1   
     8    5    6 ar  
     9    5   10 ar  
    10    6    7 ar  
    11    6   34 1   
    12    7    8 ar  
    13    7   35 1   
    14    8    9 ar  
    15    8   36 1   
    16    9   10 ar  
    17    9   37 1   
    18   10   38 1   
    19   11   12 1   
    20   11   39 1   
    21   11   64 1   
    22   12   13 1   
    23   12   17 1   
    24   12   40 1   
    25   13   14 1   
    26   13   41 1   
    27   13   42 1   
    28   14   15 1   
    29   14   16 1   
    30   14   43 1   
    31   15   44 1   
    32   15   45 1   
    33   15   46 1   
    34   16   47 1   
    35   16   48 1   
    36   16   49 1   
    37   17   18 2   
    38   17   19 1   
    39   19   20 1   
    40   19   50 1   
    41   19   65 1   
    42   20   21 1   
    43   20   24 1   
    44   20   51 1   
    45   21   22 1   
    46   21   23 1   
    47   21   52 1   
    48   22   53 1   
    49   23   54 1   
    50   23   55 1   
    51   23   56 1   
    52   24   25 1   
    53   24   57 1   
    54   24   58 1   
    55   25   26 ar  
    56   25   31 ar  
    57   26   27 ar  
    58   26   59 1   
    59   27   28 ar  
    60   27   60 1   
    61   28   29 1   
    62   28   30 ar  
    63   29   61 1   
    64   30   31 ar  
    65   30   62 1   
    66   31   63 1   
@<TRIPOS>SUBSTRUCTURE
     1 CMQ         1 TEMP              0 ****  ****    0 ROOT
