@<TRIPOS>MOLECULE
CMQ
   63    59     1     0     0
SMALL
bcc


@<TRIPOS>ATOM
      1 O2         -2.2840    0.6880    2.3490 o         1 CMQ     -0.402000
      2 C1         -1.0730    0.8130    2.3940 c1        1 CMQ      0.386000
      3 O1         -0.3970    0.8100    3.6630 o         1 CMQ     -0.275000
      4 C2         -1.2860    0.8480    4.7970 c3        1 CMQ      0.039000
      5 C3         -0.4970    1.1480    6.0470 c2        1 CMQ     -0.089000
      6 C4         -0.4100    2.4480    6.5160 c1        1 CMQ     -0.103000
      7 C5          0.3360    2.7260    7.6480 c1        1 CMQ     -0.128500
      8 C6          0.9950    1.7040    8.3120 c1        1 CMQ     -0.128500
      9 C7          0.9080    0.4080    7.8440 c1        1 CMQ     -0.131000
     10 C8          0.1600    0.1290    6.7090 c2        1 CMQ     -0.122000
     11 N1         -0.3090    0.9870    1.1590 n3        1 CMQ     -0.320000
     12 C9         -0.9920    1.1300   -0.0980 c3        1 CMQ      0.010000
     13 C11        -1.2930    2.5760   -0.3430 c3        1 CMQ     -0.166000
     14 C12        -2.7570    2.7280   -0.7950 c3        1 CMQ     -0.104000
     15 C13        -3.6460    3.1040    0.4320 c3        1 CMQ     -0.214000
     16 C14        -2.8550    3.8630   -1.8830 c3        1 CMQ     -0.214000
     17 C10        -0.0990    0.5910   -1.2310 c2        1 CMQ      0.281000
     18 O3          0.9440    1.1550   -1.5040 o         1 CMQ     -0.393000
     19 N2         -0.4850   -0.6210   -1.9490 n         1 CMQ     -0.344000
     20 C15         0.3940   -1.1890   -2.9290 c3        1 CMQ     -0.010000
     21 C16         0.0800   -0.6000   -4.2920 c3        1 CMQ      0.007000
     22 O4         -0.3390    0.7060   -4.1410 oh        1 CMQ     -0.333000
     23 C24         1.3470   -0.6350   -5.1720 c3        1 CMQ     -0.247000
     24 C17         0.2040   -2.7000   -2.9650 c3        1 CMQ     -0.122000
     25 C18         1.5820   -3.3910   -2.9380 c2        1 CMQ     -0.110000
     26 C19         2.4420   -3.2530   -4.0200 c2        1 CMQ     -0.082000
     27 C21         3.6030   -4.0020   -4.0840 c1        1 CMQ     -0.208000
     28 C23         3.9130   -4.8960   -3.0640 c1        1 CMQ      0.081000
     29 O5          5.0630   -5.6570   -3.1420 oh        1 CMQ     -0.250000
     30 C22         3.0540   -5.0370   -1.9770 c1        1 CMQ     -0.153000
     31 C20         1.8900   -4.2870   -1.9130 c1        1 CMQ     -0.093000
     32 H21A       -1.9640    1.5510    4.6600 h1        1 CMQ      0.104000
     33 H22A       -1.7240   -0.0080    4.8920 h1        1 CMQ      0.104000
     34 H4         -0.8720    3.1650    6.0510 ha        1 CMQ      0.145000
     35 H5          0.3970    3.6270    7.9730 ha        1 CMQ      0.132000
     36 H6          1.5200    1.9000    9.1090 ha        1 CMQ      0.132000
     37 H7          1.3750   -0.3150    8.3130 ha        1 CMQ      0.132000
     38 H8          0.0990   -0.7880    6.3780 ha        1 CMQ      0.133000
     39 HN1         0.6010    0.9600    1.1800 hn        1 CMQ      0.251000
     40 H9         -1.8290    0.6230   -0.0750 h1        1 CMQ      0.142000
     41 H111       -1.1530    3.0780    0.4760 hc        1 CMQ      0.106000
     42 H112       -0.7030    2.9170   -1.0360 hc        1 CMQ      0.106000
     43 H12        -3.0670    1.8920   -1.1730 hc        1 CMQ      0.079000
     44 H131       -4.5580    3.2790    0.1330 hc        1 CMQ      0.078667
     45 H132       -3.2800    3.9160    0.8690 hc        1 CMQ      0.078667
     46 H133       -3.6490    2.3560    1.0780 hc        1 CMQ      0.078667
     47 H141       -3.0710    3.4640   -2.7550 hc        1 CMQ      0.078667
     48 H142       -3.5580    4.4980   -1.6310 hc        1 CMQ      0.078667
     49 H143       -1.9800    4.3420   -1.9440 hc        1 CMQ      0.078667
     50 HN2        -1.3120   -1.0010   -1.7970 hn        1 CMQ      0.226000
     51 H15         1.3250   -0.9840   -2.6940 h1        1 CMQ      0.123000
     52 H16        -0.6320   -1.1250   -4.7200 h1        1 CMQ      0.109000
     53 HO4        -0.3510    1.1090   -4.9390 ho        1 CMQ      0.220000
     54 H241        2.1040   -0.2840   -4.6650 hc        1 CMQ      0.086667
     55 H242        1.5340   -1.5640   -5.4430 hc        1 CMQ      0.086667
     56 H243        1.2030   -0.0730   -5.9850 hc        1 CMQ      0.086667
     57 H171       -0.3160   -2.9800   -2.1890 hc        1 CMQ      0.095000
     58 H172       -0.2710   -2.9500   -3.7830 hc        1 CMQ      0.095000
     59 H19         2.2240   -2.6160   -4.7490 ha        1 CMQ      0.134000
     60 H21         4.2080   -3.9030   -4.8490 ha        1 CMQ      0.136000
     61 HO5         4.9420   -6.3160   -3.7150 ho        1 CMQ      0.219000
     62 H22         3.2760   -5.6770   -1.2470 ha        1 CMQ      0.152000
     63 H20         1.2910   -4.3850   -1.1570 ha        1 CMQ      0.131000
@<TRIPOS>BOND
     1    1    2 1   
     2    2   11 1   
     3    3    4 1   
     4    4    5 1   
     5    4   32 1   
     6    4   33 1   
     7    5    6 1   
     8    5   10 1   
     9    6   34 1   
    10    7    8 1   
    11    7   35 1   
    12    8   36 1   
    13    9   10 1   
    14    9   37 1   
    15   10   38 1   
    16   11   12 1   
    17   11   39 1   
    18   12   13 1   
    19   12   17 1   
    20   12   40 1   
    21   13   14 1   
    22   13   41 1   
    23   13   42 1   
    24   14   15 1   
    25   14   16 1   
    26   14   43 1   
    27   15   44 1   
    28   15   45 1   
    29   15   46 1   
    30   16   47 1   
    31   16   48 1   
    32   16   49 1   
    33   17   18 1   
    34   17   19 1   
    35   19   20 1   
    36   19   50 1   
    37   20   21 1   
    38   20   24 1   
    39   20   51 1   
    40   21   22 1   
    41   21   23 1   
    42   21   52 1   
    43   22   53 1   
    44   23   54 1   
    45   23   55 1   
    46   23   56 1   
    47   24   25 1   
    48   24   57 1   
    49   24   58 1   
    50   25   26 1   
    51   25   31 1   
    52   26   27 1   
    53   26   59 1   
    54   27   60 1   
    55   28   29 1   
    56   28   30 1   
    57   29   61 1   
    58   30   62 1   
    59   31   63 1   
@<TRIPOS>SUBSTRUCTURE
     1 CMQ         1 TEMP              0 ****  ****    0 ROOT
