@<TRIPOS>MOLECULE
CMQ
   65    66     1     0     0
SMALL
bcc


@<TRIPOS>ATOM
      1 O2          0.6360   -0.8860   -1.0640 o         1 CMQ     -0.500000
      2 C1          0.7750    0.1430   -0.4090 c         1 CMQ      0.653100
      3 O1          0.4840    0.3980    0.8520 os        1 CMQ     -0.388900
      4 C2          0.1650   -0.7520    1.7610 c3        1 CMQ      0.232700
      5 C3          1.4070   -1.2550    2.3710 ca        1 CMQ     -0.207300
      6 C4          2.0120   -0.5420    3.4170 ca        1 CMQ     -0.085500
      7 C5          3.1460   -1.0530    4.0440 ca        1 CMQ     -0.129000
      8 C6          3.6790   -2.2770    3.6370 ca        1 CMQ     -0.063000
      9 C7          3.0790   -2.9910    2.5960 ca        1 CMQ     -0.129000
     10 C8          1.9480   -2.4840    1.9620 ca        1 CMQ     -0.085500
     11 N1          1.3040    1.3850   -1.1030 n4        1 CMQ     -0.663800
     12 C9          1.0320    1.3430   -2.5820 c3        1 CMQ      0.069500
     13 C11         1.4090    2.6650   -3.2710 c3        1 CMQ     -0.114400
     14 C12         0.6070    2.8690   -4.5540 c3        1 CMQ     -0.073700
     15 C13        -0.8180    3.2850   -4.2600 c3        1 CMQ     -0.105600
     16 C14         1.2970    3.9270   -5.3970 c3        1 CMQ     -0.105600
     17 C10         1.8560    0.1990   -3.2080 c         1 CMQ      0.532100
     18 O3          3.0620    0.0860   -3.0310 o         1 CMQ     -0.393100
     19 N2          1.1210   -0.7970   -4.0190 n4        1 CMQ     -0.652800
     20 C15         1.9230   -1.4170   -5.1500 c3        1 CMQ      0.128500
     21 C16         1.9660   -0.5120   -6.4090 c3        1 CMQ      0.123100
     22 O4          0.6760    0.0740   -6.5490 oh        1 CMQ     -0.650800
     23 C24         3.0310    0.5600   -6.3040 c3        1 CMQ     -0.141100
     24 C17         1.3230   -2.7840   -5.5210 c3        1 CMQ     -0.049100
     25 C18         1.1650   -3.6770   -4.3460 ca        1 CMQ     -0.216300
     26 C19         2.2310   -4.4790   -3.9180 ca        1 CMQ     -0.090500
     27 C21         2.0710   -5.3630   -2.8560 ca        1 CMQ     -0.177000
     28 C23         0.8240   -5.4520   -2.2160 ca        1 CMQ      0.166100
     29 O5          0.5900   -6.2700   -1.1470 oh        1 CMQ     -0.476100
     30 C22        -0.2620   -4.6630   -2.6470 ca        1 CMQ     -0.177000
     31 C20        -0.0830   -3.7910   -3.7100 ca        1 CMQ     -0.090500
     32 H21A       -0.3910   -1.5190    1.1650 h1        1 CMQ      0.111200
     33 H22A       -0.5030   -0.2100    2.4900 h1        1 CMQ      0.111200
     34 H4          1.5800    0.4130    3.7540 ha        1 CMQ      0.141500
     35 H5          3.6130   -0.4960    4.8730 ha        1 CMQ      0.161500
     36 H6          4.5690   -2.6870    4.1440 ha        1 CMQ      0.166000
     37 H7          3.4930   -3.9640    2.2880 ha        1 CMQ      0.161500
     38 H8          1.4640   -3.0590    1.1580 ha        1 CMQ      0.141500
     39 HN1         2.3200    1.4490   -0.9290 hn        1 CMQ      0.493800
     40 H9         -0.0820    1.1630   -2.6980 hx        1 CMQ      0.141700
     41 H111        1.2020    3.5360   -2.5890 hc        1 CMQ      0.096700
     42 H112        2.5090    2.6680   -3.5000 hc        1 CMQ      0.096700
     43 H12         0.5960    1.9040   -5.1400 hc        1 CMQ      0.051700
     44 H131       -1.3800    3.4140   -5.2190 hc        1 CMQ      0.058700
     45 H132       -1.3510    2.5180   -3.6480 hc        1 CMQ      0.058700
     46 H133       -0.8440    4.2600   -3.7150 hc        1 CMQ      0.058700
     47 H141        1.3910    4.8860   -4.8310 hc        1 CMQ      0.058700
     48 H142        2.3160    3.5860   -5.7010 hc        1 CMQ      0.058700
     49 H143        0.6980    4.1240   -6.3200 hc        1 CMQ      0.058700
     50 HN2         0.8230   -1.5690   -3.3820 hn        1 CMQ      0.494800
     51 H15         2.9780   -1.5590   -4.7660 hx        1 CMQ      0.127700
     52 H16         2.1880   -1.1830   -7.2900 h1        1 CMQ      0.102700
     53 HO4         0.5640    0.3260   -7.4760 ho        1 CMQ      0.464000
     54 H241        3.0300    1.1850   -7.2320 hc        1 CMQ      0.064033
     55 H242        4.0410    0.0970   -6.1930 hc        1 CMQ      0.064033
     56 H243        2.8370    1.2320   -5.4330 hc        1 CMQ      0.064033
     57 H171        0.3400   -2.6310   -6.0430 hc        1 CMQ      0.100200
     58 H172        2.0280   -3.2520   -6.2650 hc        1 CMQ      0.100200
     59 H19         3.2020   -4.4270   -4.4360 ha        1 CMQ      0.140000
     60 H21         2.9070   -6.0040   -2.5370 ha        1 CMQ      0.168500
     61 HO5         1.3300   -6.8930   -1.0580 ho        1 CMQ      0.445000
     62 H22        -1.2400   -4.7770   -2.1540 ha        1 CMQ      0.168500
     63 H20        -0.9480   -3.2240   -4.0900 ha        1 CMQ      0.140000
     64 H121        0.8570    2.2220   -0.6970 hn        1 CMQ      0.493800
     65 H221        0.2810   -0.3640   -4.4360 hn        1 CMQ      0.494800
@<TRIPOS>BOND
     1    1    2 2   
     2    2    3 1   
     3    2   11 1   
     4    3    4 1   
     5    4    5 1   
     6    4   32 1   
     7    4   33 1   
     8    5    6 ar  
     9    5   10 ar  
    10    6    7 ar  
    11    6   34 1   
    12    7    8 ar  
    13    7   35 1   
    14    8    9 ar  
    15    8   36 1   
    16    9   10 ar  
    17    9   37 1   
    18   10   38 1   
    19   11   12 1   
    20   11   39 1   
    21   11   64 1   
    22   12   13 1   
    23   12   17 1   
    24   12   40 1   
    25   13   14 1   
    26   13   41 1   
    27   13   42 1   
    28   14   15 1   
    29   14   16 1   
    30   14   43 1   
    31   15   44 1   
    32   15   45 1   
    33   15   46 1   
    34   16   47 1   
    35   16   48 1   
    36   16   49 1   
    37   17   18 2   
    38   17   19 1   
    39   19   20 1   
    40   19   50 1   
    41   19   65 1   
    42   20   21 1   
    43   20   24 1   
    44   20   51 1   
    45   21   22 1   
    46   21   23 1   
    47   21   52 1   
    48   22   53 1   
    49   23   54 1   
    50   23   55 1   
    51   23   56 1   
    52   24   25 1   
    53   24   57 1   
    54   24   58 1   
    55   25   26 ar  
    56   25   31 ar  
    57   26   27 ar  
    58   26   59 1   
    59   27   28 ar  
    60   27   60 1   
    61   28   29 1   
    62   28   30 ar  
    63   29   61 1   
    64   30   31 ar  
    65   30   62 1   
    66   31   63 1   
@<TRIPOS>SUBSTRUCTURE
     1 CMQ         1 TEMP              0 ****  ****    0 ROOT
