@<TRIPOS>MOLECULE
CMR
   35    36     1     0     0
SMALL
bcc


@<TRIPOS>ATOM
      1 P          -3.6240   -1.4850    3.5310 p5        1 CMR      1.364600
      2 CMP        -5.1540   -1.1710    2.8910 c3        1 CMR     -0.378300
      3 OP1        -3.7010   -1.6750    4.9920 o         1 CMR     -0.863500
      4 O5'        -2.8900    0.0020    3.2820 os        1 CMR     -0.580200
      5 C5'        -2.0600    0.1540    2.1860 c3        1 CMR      0.183400
      6 C4'        -0.6290    0.4890    2.6380 c3        1 CMR      0.111100
      7 O4'         0.1170   -0.7130    2.9060 os        1 CMR     -0.397600
      8 C1'         1.1750   -0.8990    1.9670 c3        1 CMR      0.313500
      9 N1          0.9430   -2.0660    1.1070 n         1 CMR     -0.395000
     10 C6         -0.1750   -2.8510    1.2080 cc        1 CMR      0.088600
     11 C5         -0.3270   -3.9700    0.4170 cd        1 CMR     -0.450600
     12 C4          0.7290   -4.3070   -0.5150 cd        1 CMR      0.727500
     13 N4          0.5380   -5.3920   -1.3700 nh        1 CMR     -0.905800
     14 N3          1.8630   -3.5820   -0.6090 nc        1 CMR     -0.747100
     15 C2          1.9920   -2.4440    0.1940 c         1 CMR      0.823900
     16 O2          3.0170   -1.7210    0.1540 o         1 CMR     -0.672500
     17 C3'         0.1430    1.2840    1.5660 c3        1 CMR      0.110100
     18 C2'         1.3530    0.4250    1.1920 c3        1 CMR     -0.143400
     19 O3'         0.5290    2.5200    2.1480 oh        1 CMR     -0.592800
     20 OP3        -2.8920   -2.4170    2.6310 o         1 CMR     -0.863500
     21 HMP1       -5.9460   -1.6020    3.5430 hc        1 CMR      0.059700
     22 HMP2       -5.3500   -0.0780    2.8120 hc        1 CMR      0.059700
     23 HMP3       -5.2700   -1.6110    1.8770 hc        1 CMR      0.059700
     24 H5'        -2.0540   -0.7720    1.5450 h1        1 CMR      0.030700
     25 H5''       -2.4370    1.0310    1.5820 h1        1 CMR      0.030700
     26 H4'        -0.6580    1.0380    3.6190 h1        1 CMR      0.106700
     27 H1'         2.0950   -1.1350    2.5830 h2        1 CMR      0.082700
     28 H6         -0.9680   -2.5660    1.9530 h4        1 CMR      0.272000
     29 H5         -1.2410   -4.5690    0.5000 ha        1 CMR      0.167000
     30 H41        -0.1100   -6.0710   -1.0460 hn        1 CMR      0.409800
     31 H42         1.3320   -5.7460   -1.8500 hn        1 CMR      0.409800
     32 H3'        -0.4980    1.4870    0.6660 h1        1 CMR      0.044700
     33 H2'         1.4220    0.2660    0.0900 hc        1 CMR      0.071700
     34 H2''        2.3040    0.9090    1.5270 hc        1 CMR      0.071700
     35 HO3'        1.0550    2.9820    1.4850 ho        1 CMR      0.390000
@<TRIPOS>BOND
     1    1    2 1   
     2    1    3 1   
     3    1    4 1   
     4    1   20 1   
     5    2   21 1   
     6    2   22 1   
     7    2   23 1   
     8    4    5 1   
     9    5    6 1   
    10    5   24 1   
    11    5   25 1   
    12    6    7 1   
    13    6   17 1   
    14    6   26 1   
    15    7    8 1   
    16    8    9 1   
    17    8   18 1   
    18    8   27 1   
    19    9   10 1   
    20    9   15 1   
    21   10   11 2   
    22   10   28 1   
    23   11   12 1   
    24   11   29 1   
    25   12   13 1   
    26   12   14 2   
    27   13   30 1   
    28   13   31 1   
    29   14   15 1   
    30   15   16 2   
    31   17   18 1   
    32   17   19 1   
    33   17   32 1   
    34   18   33 1   
    35   18   34 1   
    36   19   35 1   
@<TRIPOS>SUBSTRUCTURE
     1 CMR         1 TEMP              0 ****  ****    0 ROOT
