@<TRIPOS>MOLECULE
CMR
   35    33     1     0     0
SMALL
bcc


@<TRIPOS>ATOM
      1 P           3.4240    3.1260    1.0270 p3        1 CMR      2.638000
      2 CMP         5.2660    3.1780    0.9600 c2        1 CMR     -0.902000
      3 OP1         2.9720    3.0300    2.4760 o         1 CMR     -1.193000
      4 O5'         2.8910    1.8440    0.2110 os        1 CMR     -0.745000
      5 C5'         1.4720    1.6910    0.0210 c3        1 CMR      0.042000
      6 C4'         1.1900    0.3420   -0.6270 c3        1 CMR     -0.049000
      7 O4'         0.4580   -0.3740    0.1450 os        1 CMR     -0.286000
      8 C1'        -0.4860   -1.2270   -0.8090 c3        1 CMR      0.145000
      9 N1         -1.6620   -1.6190   -0.1090 n3        1 CMR     -0.277000
     10 C6         -2.4460   -2.7150   -0.5850 c2        1 CMR      0.088000
     11 C5         -3.5560   -3.2370    0.2360 c1        1 CMR     -0.365000
     12 C4         -3.8940   -2.5790    1.5210 c1        1 CMR      0.208000
     13 N4         -4.9770   -3.1060    2.3520 n3        1 CMR     -0.345000
     14 N3         -3.1830   -1.4220    1.9330 n1        1 CMR     -0.308000
     15 C2         -2.0240   -0.9500    1.1520 c1        1 CMR      0.350000
     16 O2         -1.4270    0.0250    1.5030 o         1 CMR     -0.366000
     17 C3'         0.3350    0.5360   -1.9430 c3        1 CMR      0.034000
     18 C2'        -0.8050   -0.4320   -1.8300 c3        1 CMR     -0.203000
     19 O3'         1.0950    0.2510   -3.0540 oh        1 CMR     -0.360000
     20 OP3         2.8680    4.3760    0.4120 o         1 CMR     -1.193000
     21 HMP1        5.5630    3.1190    0.0200 ha        1 CMR      0.106333
     22 HMP2        5.5830    4.0210    1.3510 ha        1 CMR      0.106333
     23 HMP3        5.6330    2.4210    1.4690 ha        1 CMR      0.106333
     24 H5'         1.0190    1.7370    0.8880 h1        1 CMR      0.065000
     25 H5''        1.1380    2.4140   -0.5640 h1        1 CMR      0.065000
     26 H4'         2.0310   -0.1220   -0.8300 h1        1 CMR      0.128000
     27 H1'        -0.0140   -2.0120   -1.1320 h2        1 CMR      0.146000
     28 H6         -2.2160   -3.1550   -1.4510 h4        1 CMR      0.188000
     29 H5         -4.0350   -4.0720   -0.0400 ha        1 CMR      0.155000
     30 H41        -5.2310   -2.6540    3.1380 hn        1 CMR      0.210000
     31 H42        -5.4230   -3.8500    2.0960 hn        1 CMR      0.210000
     32 H3'        -0.0020    1.4460   -1.9910 h1        1 CMR      0.110000
     33 H2'        -0.8870   -0.9470   -2.6400 hc        1 CMR      0.109000
     34 H2''       -1.6400    0.0460   -1.6420 hc        1 CMR      0.109000
     35 HO3'        0.9680    0.8700   -3.6630 ho        1 CMR      0.273000
@<TRIPOS>BOND
     1    1    3 1   
     2    1    4 1   
     3    1   20 1   
     4    2   21 1   
     5    2   22 1   
     6    2   23 1   
     7    4    5 1   
     8    5    6 1   
     9    5   24 1   
    10    5   25 1   
    11    6    7 1   
    12    6   17 1   
    13    6   26 1   
    14    7    8 1   
    15    8    9 1   
    16    8   18 1   
    17    8   27 1   
    18    9   10 1   
    19    9   15 1   
    20   10   11 1   
    21   10   28 1   
    22   11   29 1   
    23   12   13 1   
    24   12   14 1   
    25   13   30 1   
    26   13   31 1   
    27   15   16 1   
    28   17   18 1   
    29   17   19 1   
    30   17   32 1   
    31   18   33 1   
    32   18   34 1   
    33   19   35 1   
@<TRIPOS>SUBSTRUCTURE
     1 CMR         1 TEMP              0 ****  ****    0 ROOT
