@<TRIPOS>MOLECULE
CMS
   16    15     1     0     0
SMALL
bcc


@<TRIPOS>ATOM
      1 C1         -0.3960    0.0260    1.5400 c         1 CMS      0.732100
      2 C2          1.9360    0.2000    0.8860 c3        1 CMS      0.065300
      3 C3          0.2320    1.0790   -0.6100 c3        1 CMS     -0.065000
      4 C4         -0.1300   -0.0700   -1.5920 c         1 CMS      0.889600
      5 N1         -1.7560    0.0770    1.1990 n         1 CMS     -0.633000
      6 N3          0.5790    0.6680    0.7370 n         1 CMS     -0.418800
      7 O1         -1.3400   -0.4410   -1.6340 o         1 CMS     -0.835800
      8 O2          0.7940   -0.5510   -2.2990 o         1 CMS     -0.835800
      9 O3         -0.0700   -0.4760    2.6530 o         1 CMS     -0.706100
     10 H21         2.0760   -0.2990    1.8800 h1        1 CMS      0.039367
     11 H22         2.2100   -0.5160    0.0630 h1        1 CMS      0.039367
     12 H23         2.6170    1.0910    0.8260 h1        1 CMS      0.039367
     13 H31        -0.6320    1.7970   -0.5510 h1        1 CMS      0.040200
     14 H32         1.1180    1.6310   -1.0300 h1        1 CMS      0.040200
     15 HN11       -2.3070   -0.5520    1.7360 hn        1 CMS      0.305500
     16 HN12       -1.9770    0.0960    0.2180 hn        1 CMS      0.305500
@<TRIPOS>BOND
     1    1    5 1   
     2    1    6 1   
     3    1    9 2   
     4    2    6 1   
     5    2   10 1   
     6    2   11 1   
     7    2   12 1   
     8    3    4 1   
     9    3    6 1   
    10    3   13 1   
    11    3   14 1   
    12    4    7 1   
    13    4    8 1   
    14    5   15 1   
    15    5   16 1   
@<TRIPOS>SUBSTRUCTURE
     1 CMS         1 TEMP              0 ****  ****    0 ROOT
