@<TRIPOS>MOLECULE
CMS
   16    14     1     0     0
SMALL
bcc


@<TRIPOS>ATOM
      1 C1          0.4900   -0.1830   -1.1450 c1        1 CMS      0.361000
      2 C2         -1.3620   -1.0340    0.3310 c3        1 CMS     -0.082000
      3 C3          0.2540    0.6430    1.1840 c3        1 CMS     -0.122000
      4 C4          0.1770    2.1000    0.7410 c2        1 CMS      0.320000
      5 N1          1.1120   -1.3720   -1.6270 n2        1 CMS     -0.422000
      6 N3         -0.1980   -0.1910    0.1390 n3        1 CMS     -0.267000
      7 O1         -0.9460    2.6730    0.6420 o         1 CMS     -0.574500
      8 O2          1.2360    2.7500    0.5340 o         1 CMS     -0.574500
      9 O3          0.5770    0.8550   -1.7840 o         1 CMS     -0.438000
     10 H21        -2.0850   -0.7350   -0.2620 h1        1 CMS      0.075333
     11 H22        -1.1300   -1.9600    0.1210 h1        1 CMS      0.075333
     12 H23        -1.6650   -0.9740    1.2800 h1        1 CMS      0.075333
     13 H31         1.1800    0.4180    1.4030 h1        1 CMS      0.091000
     14 H32        -0.3070    0.5120    1.9710 h1        1 CMS      0.091000
     15 HN11        0.8780   -2.1850   -1.2790 hn        1 CMS      0.195000
     16 HN12        1.7880   -1.3160   -2.2490 hn        1 CMS      0.195000
@<TRIPOS>BOND
     1    1    6 1   
     2    1    9 1   
     3    2    6 1   
     4    2   10 1   
     5    2   11 1   
     6    2   12 1   
     7    3    4 1   
     8    3    6 1   
     9    3   13 1   
    10    3   14 1   
    11    4    7 1   
    12    4    8 1   
    13    5   15 1   
    14    5   16 1   
@<TRIPOS>SUBSTRUCTURE
     1 CMS         1 TEMP              0 ****  ****    0 ROOT
