@<TRIPOS>MOLECULE
CMS
   18    17     1     0     0
SMALL
bcc


@<TRIPOS>ATOM
      1 C1         -0.2140    0.0170   -0.0990 c         1 CMS      0.643100
      2 C2         -2.2430    0.3660    1.1820 c3        1 CMS      0.062300
      3 C3         -0.0840    0.2240    2.3770 c3        1 CMS      0.024000
      4 C4          0.2440   -1.1580    2.9130 c         1 CMS      0.601100
      5 N1          1.2860   -0.2580   -0.1830 nz        1 CMS     -0.745400
      6 N3         -0.7930    0.2420    1.1250 n         1 CMS     -0.420800
      7 O1          1.1860   -1.8210    2.1760 oh        1 CMS     -0.681100
      8 O2         -0.1960   -1.7070    3.9130 o         1 CMS     -0.439000
      9 O3         -0.7610    0.0300   -1.2060 o         1 CMS     -0.472100
     10 H21        -2.4950    1.3690    1.6200 h1        1 CMS      0.090367
     11 H22        -2.6880    0.2880    0.1540 h1        1 CMS      0.090367
     12 H23        -2.6580   -0.4500    1.8330 h1        1 CMS      0.090367
     13 H31        -0.7390    0.7280    3.1550 h1        1 CMS      0.115200
     14 H32         0.8770    0.8110    2.3080 h1        1 CMS      0.115200
     15 HN11        1.5030   -1.1670    0.2500 hn        1 CMS      0.478800
     16 HN12        1.8300    0.4710    0.2840 hn        1 CMS      0.478800
     17 H13         1.5350   -0.2870   -1.1810 hn        1 CMS      0.478800
     18 H311        1.3970   -2.6790    2.5880 ho        1 CMS      0.490000
@<TRIPOS>BOND
     1    1    5 1   
     2    1    6 1   
     3    1    9 2   
     4    2    6 1   
     5    2   10 1   
     6    2   11 1   
     7    2   12 1   
     8    3    4 1   
     9    3    6 1   
    10    3   13 1   
    11    3   14 1   
    12    4    7 1   
    13    4    8 2   
    14    5   15 1   
    15    5   16 1   
    16    5   17 1   
    17    7   18 1   
@<TRIPOS>SUBSTRUCTURE
     1 CMS         1 TEMP              0 ****  ****    0 ROOT
