@<TRIPOS>MOLECULE
CMS
   18    17     1     0     0
SMALL
bcc


@<TRIPOS>ATOM
      1 C1         -0.2120    0.0430   -0.0930 c         1 CMS      0.643100
      2 C2         -2.2430    0.3650    1.1900 c3        1 CMS      0.062300
      3 C3         -0.0870    0.2030    2.3870 c3        1 CMS      0.024000
      4 C4          0.2420   -1.1890    2.8970 c         1 CMS      0.601100
      5 N1          1.2890   -0.2270   -0.1790 n4        1 CMS     -0.745400
      6 N3         -0.7930    0.2450    1.1340 n         1 CMS     -0.420800
      7 O1          1.1850   -1.8360    2.1490 oh        1 CMS     -0.681100
      8 O2         -0.1990   -1.7570    3.8850 o         1 CMS     -0.439000
      9 O3         -0.7550    0.0770   -1.2010 o         1 CMS     -0.472100
     10 H21        -2.4980    1.3580    1.6480 h1        1 CMS      0.090367
     11 H22        -2.6870    0.3070    0.1590 h1        1 CMS      0.090367
     12 H23        -2.6590   -0.4660    1.8220 h1        1 CMS      0.090367
     13 H31        -0.7450    0.6910    3.1730 h1        1 CMS      0.115200
     14 H32         0.8730    0.7930    2.3320 h1        1 CMS      0.115200
     15 HN11        1.5070   -1.1440    0.2370 hn        1 CMS      0.478800
     16 HN12        1.8310    0.4940    0.3030 hn        1 CMS      0.478800
     17 H13         1.5410   -0.2360   -1.1770 hn        1 CMS      0.478800
     18 H311        1.3970   -2.7020    2.5450 ho        1 CMS      0.490000
@<TRIPOS>BOND
     1    1    5 1   
     2    1    6 1   
     3    1    9 2   
     4    2    6 1   
     5    2   10 1   
     6    2   11 1   
     7    2   12 1   
     8    3    4 1   
     9    3    6 1   
    10    3   13 1   
    11    3   14 1   
    12    4    7 1   
    13    4    8 2   
    14    5   15 1   
    15    5   16 1   
    16    5   17 1   
    17    7   18 1   
@<TRIPOS>SUBSTRUCTURE
     1 CMS         1 TEMP              0 ****  ****    0 ROOT
