@<TRIPOS>MOLECULE
CMT
   17    16     1     0     0
SMALL
bcc


@<TRIPOS>ATOM
      1 N          -1.6130   -0.6010   -0.6540 n3        1 CMT     -0.899800
      2 CA         -0.2440   -0.3740   -0.2500 c3        1 CMT      0.145500
      3 C          -0.2030    0.1680    1.1740 c         1 CMT      0.632100
      4 O          -0.8150    1.1280    1.6420 o         1 CMT     -0.537000
      5 CB          0.5700    0.6060   -1.1070 c3        1 CMT     -0.045300
      6 SG          0.6700   -0.0650   -2.7410 sh        1 CMT     -0.369900
      7 OXT         0.6510   -0.5320    1.9750 os        1 CMT     -0.429900
      8 C1          0.7480   -0.1050    3.3360 c3        1 CMT      0.123700
      9 H          -1.6430   -0.8890   -1.6140 hn        1 CMT      0.371800
     10 H2         -2.1700    0.2220   -0.5270 hn        1 CMT      0.371800
     11 HA          0.2800   -1.3790   -0.2640 h1        1 CMT      0.107700
     12 HB2         0.0890    1.6130   -1.1140 h1        1 CMT      0.078200
     13 HB3         1.5920    0.7130   -0.6710 h1        1 CMT      0.078200
     14 HG          1.0340    1.0270   -3.3920 hs        1 CMT      0.211800
     15 H11         1.4760   -0.8240    3.7850 h1        1 CMT      0.053367
     16 H12         1.1270    0.9440    3.3790 h1        1 CMT      0.053367
     17 H13        -0.2520   -0.1720    3.8280 h1        1 CMT      0.053367
@<TRIPOS>BOND
     1    1    2 1   
     2    1    9 1   
     3    1   10 1   
     4    2    3 1   
     5    2    5 1   
     6    2   11 1   
     7    3    4 2   
     8    3    7 1   
     9    5    6 1   
    10    5   12 1   
    11    5   13 1   
    12    6   14 1   
    13    7    8 1   
    14    8   15 1   
    15    8   16 1   
    16    8   17 1   
@<TRIPOS>SUBSTRUCTURE
     1 CMT         1 TEMP              0 ****  ****    0 ROOT
