@<TRIPOS>MOLECULE
CMU
   27    26     1     0     0
SMALL
bcc


@<TRIPOS>ATOM
      1 CL1        -1.8350   -1.0120   -2.0100 cl        1 CMU      0.042000
      2 C2         -0.0920   -1.0120   -2.0100 c2        1 CMU     -0.269000
      3 C3          0.6450   -1.0120   -0.7380 c1        1 CMU      0.101000
      4 C4         -0.1060   -1.1080    0.5710 c2        1 CMU     -0.011000
      5 N5         -0.6630    0.1600    0.8930 n3        1 CMU     -0.332000
      6 C6          0.0260    1.3530    0.9660 c3        1 CMU     -0.040000
      7 C7         -0.5670    2.1410    2.1140 c3        1 CMU     -0.175000
      8 C8         -1.6760    1.2930    2.7130 c3        1 CMU     -0.126000
      9 C9         -1.9980    0.3990    1.4910 c2        1 CMU      0.093000
     10 N10        -3.1190   -0.1750    1.1430 n1        1 CMU     -0.275000
     11 N11         2.0650   -1.0120   -0.7440 n         1 CMU     -0.293000
     12 C12         2.7900   -1.0120   -2.0140 c2        1 CMU      0.395000
     13 O13         3.9990   -1.1250   -2.0210 o         1 CMU     -0.355000
     14 N14         2.0550   -1.0120   -3.2770 n         1 CMU     -0.363000
     15 C15         0.6450   -1.0120   -3.2820 c2        1 CMU      0.365000
     16 O16         0.0420   -0.9400   -4.3340 o         1 CMU     -0.312000
     17 H4C1        0.5080   -1.3830    1.2790 h4        1 CMU      0.120500
     18 H4C2       -0.8220   -1.7660    0.4880 h4        1 CMU      0.120500
     19 H6C1       -0.0800    1.8500    0.1320 h1        1 CMU      0.086500
     20 H6C2        0.9720    1.1820    1.1340 h1        1 CMU      0.086500
     21 H7C1       -0.9330    2.9840    1.7850 hc        1 CMU      0.098500
     22 H7C2        0.1180    2.3160    2.7870 hc        1 CMU      0.098500
     23 H8C1       -1.4050    0.8590    3.5440 hc        1 CMU      0.118500
     24 H8C2       -2.4620    1.8010    2.9910 hc        1 CMU      0.118500
     25 H10        -3.1400   -0.7360    0.4240 DU        1 CMU      0.150000
     26 HN1         2.5240   -1.0120    0.0430 hn        1 CMU      0.284000
     27 HN2         2.5110   -1.0120   -4.0670 hn        1 CMU      0.272000
@<TRIPOS>BOND
     1    1    2 1   
     2    2    3 1   
     3    2   15 1   
     4    3   11 1   
     5    4    5 1   
     6    4   17 1   
     7    4   18 1   
     8    5    6 1   
     9    5    9 1   
    10    6    7 1   
    11    6   19 1   
    12    6   20 1   
    13    7    8 1   
    14    7   21 1   
    15    7   22 1   
    16    8    9 1   
    17    8   23 1   
    18    8   24 1   
    19    9   10 1   
    20   11   12 1   
    21   11   26 1   
    22   12   13 1   
    23   12   14 1   
    24   14   15 1   
    25   14   27 1   
    26   15   16 1   
@<TRIPOS>SUBSTRUCTURE
     1 CMU         1 TEMP              0 ****  ****    0 ROOT
