@<TRIPOS>MOLECULE
CMU
   27    28     1     0     0
SMALL
bcc


@<TRIPOS>ATOM
      1 CL1         1.1330    2.3970    0.8210 cl        1 CMU     -0.036400
      2 C2          1.9810    1.0270    0.3200 cc        1 CMU     -0.188800
      3 C3          2.0740   -0.0930    1.1110 cd        1 CMU      0.068400
      4 C4          1.3930   -0.1100    2.4740 c3        1 CMU      0.217000
      5 N5          1.5490   -1.2510    3.3250 nh        1 CMU     -0.757600
      6 C6          2.8560   -1.4560    3.9410 c3        1 CMU      0.171800
      7 C7          3.1610   -2.9630    3.9460 c3        1 CMU     -0.104400
      8 C8          1.9360   -3.6460    3.3540 c3        1 CMU     -0.131700
      9 C9          0.9980   -2.5190    2.9090 c2        1 CMU      0.577200
     10 N10        -0.1230   -2.7680    2.3290 n2        1 CMU     -0.790100
     11 N11         2.7800   -1.1980    0.6730 n         1 CMU     -0.462100
     12 C12         3.4150   -1.2190   -0.5900 c         1 CMU      0.806500
     13 O13         4.0430   -2.2380   -0.9470 o         1 CMU     -0.630500
     14 N14         3.3220   -0.0810   -1.3960 n         1 CMU     -0.581500
     15 C15         2.6210    1.0760   -1.0090 c         1 CMU      0.725700
     16 O16         2.5920    2.0350   -1.7940 o         1 CMU     -0.583500
     17 H4C1        1.7790    0.7910    3.0400 h1        1 CMU      0.093700
     18 H4C2        0.2890    0.0480    2.2870 h1        1 CMU      0.093700
     19 H6C1        2.7960   -1.0620    4.9930 h1        1 CMU      0.055200
     20 H6C2        3.6640   -0.8880    3.4050 h1        1 CMU      0.055200
     21 H7C1        3.3550   -3.3160    4.9880 hc        1 CMU      0.061200
     22 H7C2        4.0740   -3.1780    3.3370 hc        1 CMU      0.061200
     23 H8C1        1.4170   -4.2870    4.1110 hc        1 CMU      0.081200
     24 H8C2        2.2010   -4.2870    2.4770 hc        1 CMU      0.081200
     25 H10        -0.6920   -1.9910    2.0700 hn        1 CMU      0.396400
     26 HN1         2.8320   -2.0340    1.2150 hn        1 CMU      0.359500
     27 HN2         3.7730   -0.1090   -2.2860 hn        1 CMU      0.359500
@<TRIPOS>BOND
     1    1    2 1   
     2    2    3 2   
     3    2   15 1   
     4    3    4 1   
     5    3   11 1   
     6    4    5 1   
     7    4   17 1   
     8    4   18 1   
     9    5    6 1   
    10    5    9 1   
    11    6    7 1   
    12    6   19 1   
    13    6   20 1   
    14    7    8 1   
    15    7   21 1   
    16    7   22 1   
    17    8    9 1   
    18    8   23 1   
    19    8   24 1   
    20    9   10 2   
    21   10   25 1   
    22   11   12 1   
    23   11   26 1   
    24   12   13 2   
    25   12   14 1   
    26   14   15 1   
    27   14   27 1   
    28   15   16 2   
@<TRIPOS>SUBSTRUCTURE
     1 CMU         1 TEMP              0 ****  ****    0 ROOT
