@<TRIPOS>MOLECULE
CMU
   27    28     1     0     0
SMALL
bcc


@<TRIPOS>ATOM
      1 Cl1         1.0810    2.3780    0.8110 cl        1 CMU     -0.036400
      2 C2          1.9600    1.0240    0.3200 cc        1 CMU     -0.188800
      3 C3          2.0630   -0.0950    1.1110 cd        1 CMU      0.068400
      4 C4          1.3660   -0.1250    2.4660 c3        1 CMU      0.217000
      5 N5          1.5300   -1.2660    3.3160 nh        1 CMU     -0.757600
      6 C6          2.8320   -1.4500    3.9490 c3        1 CMU      0.171800
      7 C7          3.1640   -2.9520    3.9530 c3        1 CMU     -0.104400
      8 C8          1.9580   -3.6540    3.3450 c3        1 CMU     -0.131700
      9 C9          1.0060   -2.5420    2.8910 c2        1 CMU      0.577200
     10 N10        -0.1030   -2.8080    2.2960 n2        1 CMU     -0.790100
     11 N11         2.7960   -1.1860    0.6810 ns        1 CMU     -0.462100
     12 C12         3.4470   -1.1950   -0.5730 c         1 CMU      0.806500
     13 O13         4.0980   -2.2010   -0.9230 o         1 CMU     -0.630500
     14 N14         3.3430   -0.0570   -1.3800 ns        1 CMU     -0.581500
     15 C15         2.6150    1.0860   -1.0010 c         1 CMU      0.725700
     16 O16         2.5790    2.0440   -1.7860 o         1 CMU     -0.583500
     17 H4C1        0.2620    0.0140    2.2650 h1        1 CMU      0.093700
     18 H4C2        1.7300    0.7800    3.0380 h1        1 CMU      0.093700
     19 H6C1        3.6380   -0.8670    3.4250 h1        1 CMU      0.055200
     20 H6C2        2.7520   -1.0610    5.0010 h1        1 CMU      0.055200
     21 H7C1        4.0870   -3.1490    3.3530 hc        1 CMU      0.061700
     22 H7C2        3.3520   -3.3050    4.9950 hc        1 CMU      0.061700
     23 H8C1        2.2440   -4.2880    2.4690 hc        1 CMU      0.081200
     24 H8C2        1.4410   -4.3050    4.0930 hc        1 CMU      0.081200
     25 H10        -0.6830   -2.0400    2.0330 hn        1 CMU      0.396400
     26 HN1         2.8560   -2.0210    1.2240 hn        1 CMU      0.359500
     27 HN2         3.8060   -0.0760   -2.2640 hn        1 CMU      0.359500
@<TRIPOS>BOND
     1    1    2 1   
     2    2    3 2   
     3    2   15 1   
     4    3    4 1   
     5    3   11 1   
     6    4    5 1   
     7    4   17 1   
     8    4   18 1   
     9    5    6 1   
    10    5    9 1   
    11    6    7 1   
    12    6   19 1   
    13    6   20 1   
    14    7    8 1   
    15    7   21 1   
    16    7   22 1   
    17    8    9 1   
    18    8   23 1   
    19    8   24 1   
    20    9   10 2   
    21   10   25 1   
    22   11   12 1   
    23   11   26 1   
    24   12   13 2   
    25   12   14 1   
    26   14   15 1   
    27   14   27 1   
    28   15   16 2   
@<TRIPOS>SUBSTRUCTURE
     1 CMU         1 TEMP              0 ****  ****    0 ROOT
