@<TRIPOS>MOLECULE
CMU
   27    28     1     0     0
SMALL
bcc


@<TRIPOS>ATOM
      1 CL1         1.9170    6.5560   -2.3810 cl        1 CMU     -0.036400
      2 C2          2.0470    6.1070   -0.7600 cc        1 CMU     -0.188800
      3 C3          1.7740    4.8270   -0.3410 cd        1 CMU      0.068400
      4 C4          1.3460    3.7780   -1.3600 c3        1 CMU      0.217000
      5 N5          0.9990    2.4630   -0.9120 nh        1 CMU     -0.757600
      6 C6         -0.2580    2.3120   -0.1850 c3        1 CMU      0.171800
      7 C7         -0.0450    1.2970    0.9500 c3        1 CMU     -0.104400
      8 C8          1.3900    0.8060    0.8160 c3        1 CMU     -0.131700
      9 C9          2.0150    1.6310   -0.3130 c2        1 CMU      0.577200
     10 N10         3.2470    1.4810   -0.6520 n2        1 CMU     -0.790100
     11 N11         1.8850    4.4940    0.9960 n         1 CMU     -0.462100
     12 C12         2.2870    5.4400    1.9660 c         1 CMU      0.806500
     13 O13         2.3750    5.0970    3.1630 o         1 CMU     -0.630500
     14 N14         2.5650    6.7430    1.5420 n         1 CMU     -0.581500
     15 C15         2.4700    7.1480    0.1980 c         1 CMU      0.725700
     16 O16         2.7410    8.3250   -0.0810 o         1 CMU     -0.583500
     17 H4C1        2.1910    3.6890   -2.1060 h1        1 CMU      0.093700
     18 H4C2        0.4490    4.2010   -1.9040 h1        1 CMU      0.093700
     19 H6C1       -1.0250    1.9330   -0.9150 h1        1 CMU      0.055200
     20 H6C2       -0.6250    3.2930    0.2240 h1        1 CMU      0.055200
     21 H7C1       -0.7700    0.4520    0.8570 hc        1 CMU      0.061700
     22 H7C2       -0.2120    1.7820    1.9440 hc        1 CMU      0.061700
     23 H8C1        1.4290   -0.2810    0.5500 hc        1 CMU      0.081200
     24 H8C2        1.9700    0.9550    1.7610 hc        1 CMU      0.081200
     25 H10         3.5920    2.0430   -1.4010 hn        1 CMU      0.396400
     26 HN1         1.7250    3.5630    1.3180 hn        1 CMU      0.359500
     27 HN2         2.8510    7.4020    2.2360 hn        1 CMU      0.359500
@<TRIPOS>BOND
     1    1    2 1   
     2    2    3 2   
     3    2   15 1   
     4    3    4 1   
     5    3   11 1   
     6    4    5 1   
     7    4   17 1   
     8    4   18 1   
     9    5    6 1   
    10    5    9 1   
    11    6    7 1   
    12    6   19 1   
    13    6   20 1   
    14    7    8 1   
    15    7   21 1   
    16    7   22 1   
    17    8    9 1   
    18    8   23 1   
    19    8   24 1   
    20    9   10 2   
    21   10   25 1   
    22   11   12 1   
    23   11   26 1   
    24   12   13 2   
    25   12   14 1   
    26   14   15 1   
    27   14   27 1   
    28   15   16 2   
@<TRIPOS>SUBSTRUCTURE
     1 CMU         1 TEMP              0 ****  ****    0 ROOT
