@<TRIPOS>MOLECULE
CMU
   27    28     1     0     0
SMALL
bcc


@<TRIPOS>ATOM
      1 CL1         1.4350    2.4890    0.8760 cl        1 CMU     -0.036400
      2 C2          2.1680    1.0610    0.3560 cc        1 CMU     -0.188800
      3 C3          2.1680   -0.0740    1.1310 cd        1 CMU      0.068400
      4 C4          1.4860   -0.0540    2.4940 c3        1 CMU      0.217000
      5 N5          1.5440   -1.2170    3.3270 nh        1 CMU     -0.757600
      6 C6          2.8290   -1.5390    3.9410 c3        1 CMU      0.171800
      7 C7          3.0090   -3.0670    3.9210 c3        1 CMU     -0.104400
      8 C8          1.7310   -3.6360    3.3190 c3        1 CMU     -0.131700
      9 C9          0.8910   -2.4280    2.8920 c2        1 CMU      0.577200
     10 N10        -0.2460   -2.5740    2.3080 n2        1 CMU     -0.790100
     11 N11         2.7820   -1.2260    0.6780 n         1 CMU     -0.462100
     12 C12         3.4160   -1.2820   -0.5840 c         1 CMU      0.806500
     13 O13         3.9580   -2.3440   -0.9560 o         1 CMU     -0.630500
     14 N14         3.4180   -0.1290   -1.3740 n         1 CMU     -0.581500
     15 C15         2.8130    1.0760   -0.9710 c         1 CMU      0.725700
     16 O16         2.8640    2.0450   -1.7430 o         1 CMU     -0.583500
     17 H4C1        0.4000    0.1990    2.3090 h1        1 CMU      0.093700
     18 H4C2        1.9450    0.8030    3.0740 h1        1 CMU      0.093700
     19 H6C1        3.6830   -1.0320    3.4140 h1        1 CMU      0.055200
     20 H6C2        2.8000   -1.1590    4.9990 h1        1 CMU      0.055200
     21 H7C1        3.1720   -3.4520    4.9560 hc        1 CMU      0.061700
     22 H7C2        3.9000   -3.3460    3.3070 hc        1 CMU      0.061700
     23 H8C1        1.1610   -4.2430    4.0650 hc        1 CMU      0.081200
     24 H8C2        1.9430   -4.2830    2.4310 hc        1 CMU      0.081200
     25 H10        -0.7490   -1.7480    2.0630 hn        1 CMU      0.396400
     26 HN1         2.7640   -2.0710    1.2080 hn        1 CMU      0.359500
     27 HN2         3.8660   -0.1810   -2.2650 hn        1 CMU      0.359500
@<TRIPOS>BOND
     1    1    2 1   
     2    2    3 2   
     3    2   15 1   
     4    3    4 1   
     5    3   11 1   
     6    4    5 1   
     7    4   17 1   
     8    4   18 1   
     9    5    6 1   
    10    5    9 1   
    11    6    7 1   
    12    6   19 1   
    13    6   20 1   
    14    7    8 1   
    15    7   21 1   
    16    7   22 1   
    17    8    9 1   
    18    8   23 1   
    19    8   24 1   
    20    9   10 2   
    21   10   25 1   
    22   11   12 1   
    23   11   26 1   
    24   12   13 2   
    25   12   14 1   
    26   14   15 1   
    27   14   27 1   
    28   15   16 2   
@<TRIPOS>SUBSTRUCTURE
     1 CMU         1 TEMP              0 ****  ****    0 ROOT
