@<TRIPOS>MOLECULE
CMV
   62    64     1     0     0
SMALL
bcc


@<TRIPOS>ATOM
      1 C1         -3.2640    2.4420    1.3900 c3        1 CMV     -0.085100
      2 C2         -5.0430    0.7210    2.6070 c         1 CMV      0.928600
      3 C6         -3.6540    1.2560    0.5430 c3        1 CMV      0.103100
      4 C12        -4.2500    0.1060    1.3890 c3        1 CMV      0.016500
      5 C13        -2.0970   -0.8820    0.9300 c3        1 CMV      0.289600
      6 C14        -1.9810   -2.1970    0.0980 c3        1 CMV     -0.013300
      7 C15        -3.2780   -2.4920   -0.6400 c         1 CMV      0.583900
      8 C16        -4.6080    1.6610   -0.5510 c3        1 CMV     -0.085100
      9 N3         -3.2480   -0.8670    1.7990 n3        1 CMV     -0.803200
     10 S1         -2.1380    0.5530   -0.1930 ss        1 CMV     -0.518200
     11 O4         -3.3380   -2.7840   -1.8360 o         1 CMV     -0.550100
     12 N1         -0.8260   -2.2040   -0.7750 n         1 CMV     -0.523900
     13 CAL         0.4530   -2.1860   -0.2840 c         1 CMV      0.623100
     14 OAV         0.7010   -2.3370    0.9350 o         1 CMV     -0.647100
     15 CAM         1.6170   -2.1170   -1.3020 c3        1 CMV      0.111800
     16 CAW         1.4300   -1.0480   -2.3400 ca        1 CMV     -0.108300
     17 CBD         2.0440   -1.2360   -3.5860 ca        1 CMV     -0.109500
     18 CBG         1.9000   -0.2840   -4.5920 ca        1 CMV     -0.129500
     19 CBH         1.1430    0.8650   -4.3630 ca        1 CMV     -0.122000
     20 CBF         0.5360    1.0600   -3.1240 ca        1 CMV     -0.129500
     21 CBC         0.6820    0.1100   -2.1110 ca        1 CMV     -0.109500
     22 NAN         2.9570   -2.1170   -0.6660 n3        1 CMV     -0.501200
     23 NAG         3.4930   -0.9240   -0.2480 n         1 CMV     -0.354200
     24 CAE         4.5580   -0.3600   -0.9750 c         1 CMV      0.655500
     25 OAS         5.1890   -0.9500   -1.8600 o         1 CMV     -0.556500
     26 CAQ         2.7770   -0.0650    0.6940 c3        1 CMV      0.038000
     27 CAU         3.7210    0.8580    1.4790 c3        1 CMV      0.089000
     28 NAO         4.6160    1.5940    0.6240 n         1 CMV     -0.473800
     29 CAI         5.0300    1.0530   -0.5780 c         1 CMV      0.634500
     30 OAT         5.7770    1.6700   -1.3560 o         1 CMV     -0.601500
     31 CBB         5.1240    2.8600    1.0970 c3        1 CMV      0.092000
     32 CBE         6.0610    2.7640    2.2920 c3        1 CMV     -0.116100
     33 H1         -4.1890    2.9410    1.7790 hc        1 CMV      0.047367
     34 H1A        -2.6610    2.1110    2.2700 hc        1 CMV      0.047367
     35 H1B        -2.6750    3.1780    0.7920 hc        1 CMV      0.047367
     36 H12        -5.0010   -0.4460    0.7520 h1        1 CMV      0.058700
     37 H13        -1.1400   -0.8030    1.5220 h2        1 CMV      0.076700
     38 H14        -1.8380   -3.0380    0.8500 h1        1 CMV      0.096700
     39 H15        -4.1840   -2.4520    0.0040 h4        1 CMV      0.046200
     40 H16        -4.2340    2.5650   -1.0880 hc        1 CMV      0.047367
     41 H16A       -4.7440    0.8360   -1.2900 hc        1 CMV      0.047367
     42 H16B       -5.6010    1.8950   -0.0850 hc        1 CMV      0.047367
     43 HN3        -2.9810   -0.6890    2.7560 hn        1 CMV      0.405800
     44 HN1        -0.9870   -1.9200   -1.7180 hn        1 CMV      0.336500
     45 HAM         1.6070   -3.1240   -1.8310 h1        1 CMV      0.099700
     46 HBD         2.6580   -2.1330   -3.7610 ha        1 CMV      0.152000
     47 HBG         2.3900   -0.4380   -5.5640 ha        1 CMV      0.136000
     48 HBH         1.0260    1.6160   -5.1580 ha        1 CMV      0.128000
     49 HBF        -0.0670    1.9610   -2.9360 ha        1 CMV      0.136000
     50 HBC         0.1830    0.2920   -1.1410 ha        1 CMV      0.152000
     51 HNAN        2.8740   -2.7000    0.1690 hn        1 CMV      0.383800
     52 HAQ         2.0140    0.5570    0.1420 h1        1 CMV      0.079700
     53 HAQA        2.2240   -0.7110    1.4390 h1        1 CMV      0.079700
     54 HAU         3.0840    1.5850    2.0600 h1        1 CMV      0.055700
     55 HAUA        4.3180    0.2510    2.2200 h1        1 CMV      0.055700
     56 HBB         5.6670    3.3630    0.2450 h1        1 CMV      0.061700
     57 HBBA        4.2420    3.5060    1.3790 h1        1 CMV      0.061700
     58 HBE         5.5580    2.2770    3.1620 hc        1 CMV      0.040700
     59 HBEA        6.9770    2.1790    2.0400 hc        1 CMV      0.040700
     60 HBEB        6.3670    3.7960    2.5890 hc        1 CMV      0.040700
     61 O1         -6.1960    1.1490    2.3470 o         1 CMV     -0.817800
     62 O2         -4.4690    0.7520    3.7280 o         1 CMV     -0.817800
@<TRIPOS>BOND
     1    1    3 1   
     2    1   33 1   
     3    1   34 1   
     4    1   35 1   
     5    2    4 1   
     6    2   61 1   
     7    2   62 1   
     8    3    4 1   
     9    3    8 1   
    10    3   10 1   
    11    4    9 1   
    12    4   36 1   
    13    5    6 1   
    14    5    9 1   
    15    5   10 1   
    16    5   37 1   
    17    6    7 1   
    18    6   12 1   
    19    6   38 1   
    20    7   11 2   
    21    7   39 1   
    22    8   40 1   
    23    8   41 1   
    24    8   42 1   
    25    9   43 1   
    26   12   13 1   
    27   12   44 1   
    28   13   14 2   
    29   13   15 1   
    30   15   16 1   
    31   15   22 1   
    32   15   45 1   
    33   16   17 ar  
    34   16   21 ar  
    35   17   18 ar  
    36   17   46 1   
    37   18   19 ar  
    38   18   47 1   
    39   19   20 ar  
    40   19   48 1   
    41   20   21 ar  
    42   20   49 1   
    43   21   50 1   
    44   22   23 1   
    45   22   51 1   
    46   23   24 1   
    47   23   26 1   
    48   24   25 2   
    49   24   29 1   
    50   26   27 1   
    51   26   52 1   
    52   26   53 1   
    53   27   28 1   
    54   27   54 1   
    55   27   55 1   
    56   28   29 1   
    57   28   31 1   
    58   29   30 2   
    59   31   32 1   
    60   31   56 1   
    61   31   57 1   
    62   32   58 1   
    63   32   59 1   
    64   32   60 1   
@<TRIPOS>SUBSTRUCTURE
     1 CMV         1 TEMP              0 ****  ****    0 ROOT
