@<TRIPOS>MOLECULE
CMV
   62    61     1     0     0
SMALL
bcc


@<TRIPOS>ATOM
      1 C1          0.2430   -5.9930    0.0930 c3        1 CMV     -0.201500
      2 C2         -1.2500   -5.7880    2.2830 c1        1 CMV      0.361000
      3 C6          0.8710   -5.1210    1.2420 c3        1 CMV     -0.090000
      4 C12        -0.0100   -5.2490    2.5860 c2        1 CMV     -0.136000
      5 C13        -0.0770   -2.9710    1.5510 c3        1 CMV     -0.099000
      6 C14         0.3180   -1.4180    1.9180 c3        1 CMV     -0.032000
      7 C15         1.7380   -1.2240    1.7370 c2        1 CMV      0.195000
      8 C16         2.2650   -5.5520    1.5040 c3        1 CMV     -0.201500
      9 O1         -1.4690   -7.0060    2.4740 o         1 CMV     -0.552500
     10 O2         -2.1690   -5.0420    1.8270 o         1 CMV     -0.552500
     11 N3         -0.1640   -3.8900    2.9580 n3        1 CMV     -0.217000
     12 S1          0.8420   -3.4970    0.8120 ss        1 CMV     -0.181000
     13 O4          2.1870   -1.1140    0.6440 o         1 CMV     -0.321000
     14 N1         -0.3840   -0.5470    1.0750 n         1 CMV     -0.334000
     15 CAL        -0.5850    0.8370    1.4670 c2        1 CMV      0.283000
     16 OAV        -0.2670    1.2100    2.6180 o         1 CMV     -0.420000
     17 CAM        -1.0460    1.8790    0.4170 c3        1 CMV     -0.052000
     18 CAW        -2.4900    2.2490    0.6700 c2        1 CMV     -0.077000
     19 CBD        -3.4780    1.8800   -0.2450 c2        1 CMV     -0.098000
     20 CBG        -4.8060    2.2300   -0.0160 c1        1 CMV     -0.134000
     21 CBH        -5.1470    2.9460    1.1210 c1        1 CMV     -0.125000
     22 CBF        -4.1570    3.3160    2.0390 c1        1 CMV     -0.125000
     23 CBC        -2.8320    2.9660    1.8100 c1        1 CMV     -0.113000
     24 NAN        -0.2370    3.0370    0.5180 n3        1 CMV     -0.100000
     25 NAG         0.4280    3.2730   -0.7480 n         1 CMV     -0.276000
     26 CAE        -0.1710    4.0340   -1.6920 c2        1 CMV      0.304000
     27 OAS        -1.3820    4.2110   -1.6530 o         1 CMV     -0.291000
     28 CAQ         1.9660    3.1580   -0.8470 c3        1 CMV     -0.077000
     29 CAU         2.3720    2.8620   -1.9390 c3        1 CMV     -0.052000
     30 NAO         1.9210    3.8190   -3.0650 n         1 CMV     -0.330000
     31 CAI         0.6070    4.0920   -3.1200 c2        1 CMV      0.299000
     32 OAT         0.1670    4.7820   -4.0300 o         1 CMV     -0.326000
     33 CBB         2.7370    3.9900   -4.2290 c3        1 CMV     -0.019000
     34 CBE         2.4250    2.8490   -5.2520 c3        1 CMV     -0.239000
     35 H1          0.1080   -6.9220    0.4170 hc        1 CMV      0.082167
     36 H1A         0.8620   -6.0000   -0.6970 hc        1 CMV      0.082167
     37 H1B        -0.5840   -5.6260   -0.1600 hc        1 CMV      0.082167
     38 H12         0.3100   -5.8830    3.2860 h4        1 CMV      0.108000
     39 H13        -0.9780   -2.9940    1.0610 h2        1 CMV      0.205000
     40 H14         0.0910   -1.2400    2.8080 h1        1 CMV      0.155000
     41 H15         2.3150   -1.1810    2.4990 h4        1 CMV      0.102000
     42 H16         2.5890   -5.1310    2.3470 hc        1 CMV      0.082167
     43 H16A        2.8440   -5.2720    0.7520 hc        1 CMV      0.082167
     44 H16B        2.2930   -6.5070    1.5910 hc        1 CMV      0.082167
     45 HN3         0.5160   -3.6500    3.5230 hn        1 CMV      0.116000
     46 HN1        -0.7080   -0.8340    0.3390 hn        1 CMV      0.251000
     47 HAM        -0.9630    1.5090   -0.4580 h1        1 CMV      0.141000
     48 HBD        -3.2360    1.3670   -1.0560 ha        1 CMV      0.142000
     49 HBG        -5.4780    2.0310   -0.6790 ha        1 CMV      0.130000
     50 HBH        -6.0980    3.1970    1.2840 ha        1 CMV      0.129000
     51 HBF        -4.4100    3.8440    2.8790 ha        1 CMV      0.129000
     52 HBC        -2.1490    3.2140    2.4480 ha        1 CMV      0.151000
     53 HNAN        0.4020    2.9140    1.1890 hn        1 CMV      0.175000
     54 HAQ         2.2640    2.4970   -0.2220 h1        1 CMV      0.116500
     55 HAQA        2.3390    3.9830   -0.6080 h1        1 CMV      0.116500
     56 HAU         2.0610    1.9630   -2.1540 h1        1 CMV      0.115000
     57 HAUA        3.3530    2.8540   -1.9140 h1        1 CMV      0.115000
     58 HBB         2.5430    4.8740   -4.6470 h1        1 CMV      0.095500
     59 HBBA        3.7010    3.9490   -3.9670 h1        1 CMV      0.095500
     60 HBE         2.5220    1.9820   -4.8120 hc        1 CMV      0.084667
     61 HBEA        1.4900    2.9480   -5.5870 hc        1 CMV      0.084667
     62 HBEB        3.0380    2.9050   -5.9930 hc        1 CMV      0.084667
@<TRIPOS>BOND
     1    1    3 1   
     2    1   35 1   
     3    1   36 1   
     4    1   37 1   
     5    2    9 1   
     6    2   10 1   
     7    3    4 1   
     8    3    8 1   
     9    3   12 1   
    10    4   11 1   
    11    4   38 1   
    12    5    6 1   
    13    5   11 1   
    14    5   12 1   
    15    5   39 1   
    16    6    7 1   
    17    6   14 1   
    18    6   40 1   
    19    7   13 1   
    20    7   41 1   
    21    8   42 1   
    22    8   43 1   
    23    8   44 1   
    24   11   45 1   
    25   14   15 1   
    26   14   46 1   
    27   15   16 1   
    28   15   17 1   
    29   17   18 1   
    30   17   24 1   
    31   17   47 1   
    32   18   19 1   
    33   18   23 1   
    34   19   20 1   
    35   19   48 1   
    36   20   49 1   
    37   21   22 1   
    38   21   50 1   
    39   22   51 1   
    40   23   52 1   
    41   24   25 1   
    42   24   53 1   
    43   25   26 1   
    44   25   28 1   
    45   26   27 1   
    46   26   31 1   
    47   28   29 1   
    48   28   54 1   
    49   28   55 1   
    50   29   30 1   
    51   29   56 1   
    52   29   57 1   
    53   30   31 1   
    54   30   33 1   
    55   31   32 1   
    56   33   34 1   
    57   33   58 1   
    58   33   59 1   
    59   34   60 1   
    60   34   61 1   
    61   34   62 1   
@<TRIPOS>SUBSTRUCTURE
     1 CMV         1 TEMP              0 ****  ****    0 ROOT
