@<TRIPOS>MOLECULE
CMW
   44    45     1     0     0
SMALL
bcc


@<TRIPOS>ATOM
      1 O4          0.0650   -0.6370    0.0480 o         1 CMW     -0.551000
      2 C6          1.2850   -0.4130    0.0430 c         1 CMW      0.751100
      3 N2          2.0900   -0.3510    1.1600 ns        1 CMW     -0.447100
      4 C5          3.4790   -0.1800    1.2040 ca        1 CMW      0.107600
      5 C4          4.0770    0.2750    2.4060 ca        1 CMW     -0.292300
      6 C3          5.4700    0.4310    2.4470 ca        1 CMW      0.419200
      7 N1          6.2890    0.1740    1.4070 nb        1 CMW     -0.668000
      8 C2          5.7140   -0.2720    0.2770 ca        1 CMW      0.419200
      9 C1          4.3320   -0.4640    0.1170 ca        1 CMW     -0.292300
     10 O1          1.8910   -0.1790   -1.1830 os        1 CMW     -0.463900
     11 C7          0.9880   -0.1910   -2.3060 c3        1 CMW      0.147400
     12 C8          1.7780    0.3740   -3.4740 c3        1 CMW     -0.109400
     13 C9          2.8320   -0.6310   -3.9280 c3        1 CMW      0.099800
     14 N3          3.8360   -0.0600   -4.8530 ny        1 CMW     -0.691900
     15 S           5.5510    0.4030   -4.0420 sy        1 CMW      1.494200
     16 O3          6.3460    0.2280   -5.1560 o         1 CMW     -0.574300
     17 O2          5.6120   -0.4780   -2.9830 o         1 CMW     -0.574300
     18 C10         5.2210    1.9120   -3.6660 ca        1 CMW     -0.572500
     19 C16         4.6940    2.2530   -2.3970 ca        1 CMW      0.018500
     20 C15         4.4880    3.5720   -2.0340 ca        1 CMW     -0.161000
     21 C13         4.8030    4.6150   -2.9240 ca        1 CMW      0.079700
     22 C14         4.6100    6.0240   -2.5290 c3        1 CMW     -0.096800
     23 C12         5.3240    4.2930   -4.1910 ca        1 CMW     -0.161000
     24 C11         5.5290    2.9740   -4.5500 ca        1 CMW      0.018500
     25 H2          1.6090   -0.4520    2.0320 hn        1 CMW      0.361500
     26 H4          3.4760    0.4980    3.2990 ha        1 CMW      0.154000
     27 H1          3.9510   -0.8570   -0.8360 ha        1 CMW      0.154000
     28 H3          5.9640    0.7830    3.3720 h4        1 CMW      0.036100
     29 HA          6.3980   -0.5090   -0.5610 h4        1 CMW      0.036100
     30 H71C        0.0940    0.4500   -2.0820 h1        1 CMW      0.083700
     31 H72C        0.6550   -1.2460   -2.4840 h1        1 CMW      0.083700
     32 H81C        1.0630    0.5960   -4.3090 hc        1 CMW      0.073700
     33 H82C        2.2590    1.3380   -3.1540 hc        1 CMW      0.073700
     34 H91C        3.3800   -1.0340   -3.0220 hx        1 CMW      0.111700
     35 H92C        2.3160   -1.5020   -4.4260 hx        1 CMW      0.111700
     36 HB          3.4460    0.7650   -5.3010 hn        1 CMW      0.441800
     37 H16         4.4620    1.4420   -1.6740 ha        1 CMW      0.172000
     38 H11         5.9650    2.7390   -5.5400 ha        1 CMW      0.172000
     39 H15         4.0840    3.8120   -1.0360 ha        1 CMW      0.174000
     40 H141        4.3780    6.6660   -3.4150 hc        1 CMW      0.081700
     41 H142        3.7820    6.1280   -1.7830 hc        1 CMW      0.081700
     42 H143        5.5530    6.4100   -2.0570 hc        1 CMW      0.081700
     43 H12         5.5790    5.1040   -4.8960 ha        1 CMW      0.174000
     44 H32         4.0240   -0.7370   -5.5930 hn        1 CMW      0.441800
@<TRIPOS>BOND
     1    1    2 2   
     2    2    3 1   
     3    2   10 1   
     4    3    4 1   
     5    3   25 1   
     6    4    5 ar  
     7    4    9 ar  
     8    5    6 ar  
     9    5   26 1   
    10    6    7 ar  
    11    6   28 1   
    12    7    8 ar  
    13    8    9 ar  
    14    8   29 1   
    15    9   27 1   
    16   10   11 1   
    17   11   12 1   
    18   11   30 1   
    19   11   31 1   
    20   12   13 1   
    21   12   32 1   
    22   12   33 1   
    23   13   14 1   
    24   13   34 1   
    25   13   35 1   
    26   14   15 1   
    27   14   36 1   
    28   14   44 1   
    29   15   16 2   
    30   15   17 2   
    31   15   18 1   
    32   18   19 ar  
    33   18   24 ar  
    34   19   20 ar  
    35   19   37 1   
    36   20   21 ar  
    37   20   39 1   
    38   21   22 1   
    39   21   23 ar  
    40   22   40 1   
    41   22   41 1   
    42   22   42 1   
    43   23   24 ar  
    44   23   43 1   
    45   24   38 1   
@<TRIPOS>SUBSTRUCTURE
     1 CMW         1 TEMP              0 ****  ****    0 ROOT
