@<TRIPOS>MOLECULE
CMW
   43    38     1     0     0
SMALL
bcc


@<TRIPOS>ATOM
      1 O4         -1.1750   -1.2140    0.7290 o         1 CMW     -0.337000
      2 C6         -1.4150   -1.6680    1.8250 c1        1 CMW      0.397000
      3 N2         -2.0630   -2.9410    1.9470 n2        1 CMW     -0.338000
      4 C5         -2.3120   -3.7340    0.7750 c2        1 CMW      0.118000
      5 C4         -3.4870   -3.5930    0.0920 c2        1 CMW     -0.216000
      6 C3         -3.6910   -4.2910   -1.0910 c1        1 CMW     -0.056000
      7 N1         -2.7170   -5.1190   -1.5720 n1        1 CMW     -0.161000
      8 C2         -1.5440   -5.2620   -0.8920 c1        1 CMW     -0.058000
      9 C1         -1.3380   -4.5650    0.2910 c1        1 CMW     -0.226000
     10 O1         -1.1440   -0.8980    2.9840 os        1 CMW     -0.245000
     11 C7          0.2280   -0.8890    3.3630 c3        1 CMW     -0.022000
     12 C8          0.7790    0.5410    3.2650 c3        1 CMW     -0.222000
     13 C9          2.1820    0.5080    2.6290 c3        1 CMW     -0.007000
     14 N3          2.2330    1.4410    1.5230 n3        1 CMW     -0.891000
     15 S           2.3530    0.8730   -0.0350 s4        1 CMW      2.087800
     16 O3          1.7100   -0.4050   -0.1740 o         1 CMW     -0.559900
     17 O2          3.7110    0.5400   -0.3650 o         1 CMW     -0.559900
     18 C10         1.6760    2.0770   -1.1920 c1        1 CMW     -0.857000
     19 C16         0.6580    2.9270   -0.7910 c2        1 CMW     -0.006000
     20 C15         0.1190    3.8400   -1.6910 c1        1 CMW     -0.159000
     21 C13         0.6000    3.9000   -2.9920 c1        1 CMW      0.009000
     22 C14        -0.1000    4.7820   -4.0180 c3        1 CMW     -0.197000
     23 C12         1.6200    3.0480   -3.3940 c1        1 CMW     -0.161000
     24 C11         2.1580    2.1350   -2.4940 c1        1 CMW     -0.010000
     25 H2         -2.3770   -3.2160    2.7550 hn        1 CMW      0.273000
     26 H4         -4.1810   -3.0020    0.4340 ha        1 CMW      0.179000
     27 H1         -0.4970   -4.6680    0.7780 ha        1 CMW      0.173000
     28 H3         -4.5330   -4.1900   -1.5810 ha        1 CMW      0.159000
     29 HA         -0.8490   -5.8550   -1.2370 ha        1 CMW      0.157000
     30 H71C        0.7380   -1.4780    2.7620 h1        1 CMW      0.104500
     31 H72C        0.3150   -1.2110    4.2880 h1        1 CMW      0.104500
     32 H81C        0.1840    1.0810    2.7130 hc        1 CMW      0.101500
     33 H82C        0.8360    0.9310    4.1630 hc        1 CMW      0.101500
     34 H91C        2.8510    0.7600    3.3010 h1        1 CMW      0.094500
     35 H92C        2.3710   -0.3950    2.3030 h1        1 CMW      0.094500
     36 HB          2.2940    2.3440    1.6880 hn        1 CMW      0.246000
     37 H16         0.3220    2.8860    0.1170 ha        1 CMW      0.147000
     38 H11         2.8740    1.5370   -2.7750 ha        1 CMW      0.159000
     39 H15        -0.5980    4.4390   -1.4080 ha        1 CMW      0.147000
     40 H141        0.5590    5.1290   -4.6530 hc        1 CMW      0.096333
     41 H142       -0.7730    4.2530   -4.5000 hc        1 CMW      0.096333
     42 H143       -0.5400    5.5320   -3.5590 hc        1 CMW      0.096333
     43 H12         1.9610    3.0890   -4.3140 ha        1 CMW      0.145000
@<TRIPOS>BOND
     1    1    2 1   
     2    2   10 1   
     3    3    4 1   
     4    3   25 1   
     5    4    5 1   
     6    4    9 1   
     7    5    6 1   
     8    5   26 1   
     9    6   28 1   
    10    7    8 1   
    11    8   29 1   
    12    9   27 1   
    13   10   11 1   
    14   11   12 1   
    15   11   30 1   
    16   11   31 1   
    17   12   13 1   
    18   12   32 1   
    19   12   33 1   
    20   13   14 1   
    21   13   34 1   
    22   13   35 1   
    23   14   15 1   
    24   14   36 1   
    25   15   16 1   
    26   15   17 1   
    27   18   19 1   
    28   18   24 1   
    29   19   20 1   
    30   19   37 1   
    31   20   39 1   
    32   21   22 1   
    33   21   23 1   
    34   22   40 1   
    35   22   41 1   
    36   22   42 1   
    37   23   43 1   
    38   24   38 1   
@<TRIPOS>SUBSTRUCTURE
     1 CMW         1 TEMP              0 ****  ****    0 ROOT
