@<TRIPOS>MOLECULE
CMW
   43    44     1     0     0
SMALL
bcc


@<TRIPOS>ATOM
      1 O4        -14.4090   -1.4250   68.9690 o         1 CMW     -0.582000
      2 C6        -15.1820   -2.1090   68.2760 c         1 CMW      0.749100
      3 N2        -14.8770   -2.5920   67.0180 n         1 CMW     -0.452100
      4 C5        -15.6660   -3.4000   66.1890 ca        1 CMW      0.104600
      5 C4        -15.3300   -3.4960   64.8140 ca        1 CMW     -0.290300
      6 C3        -16.1050   -4.3240   63.9910 ca        1 CMW      0.420200
      7 N1        -17.1600   -5.0450   64.4190 nb        1 CMW     -0.682000
      8 C2        -17.4690   -4.9520   65.7250 ca        1 CMW      0.420200
      9 C1        -16.7650   -4.1550   66.6450 ca        1 CMW     -0.290300
     10 O1        -16.4310   -2.4030   68.7730 os        1 CMW     -0.436900
     11 C7        -16.6920   -1.9070   70.1040 c3        1 CMW      0.149400
     12 C8        -18.1560   -2.2010   70.3670 c3        1 CMW     -0.116400
     13 C9        -18.3830   -3.7080   70.5240 c3        1 CMW      0.219800
     14 N3        -19.7500   -4.1230   70.4260 n3        1 CMW     -0.912100
     15 S         -20.4140   -4.7760   69.1010 sy        1 CMW      1.518200
     16 O3        -21.4770   -5.6140   69.5010 o         1 CMW     -0.658300
     17 O2        -19.4070   -5.3510   68.2890 o         1 CMW     -0.658300
     18 C10       -21.0550   -3.4460   68.2910 ca        1 CMW     -0.400500
     19 C16       -20.2640   -2.6940   67.4120 ca        1 CMW     -0.013000
     20 C15       -20.7940   -1.6130   66.7180 ca        1 CMW     -0.160500
     21 C13       -22.1400   -1.2580   66.8850 ca        1 CMW     -0.007300
     22 C14       -22.7130   -0.1180   66.1340 c3        1 CMW     -0.068800
     23 C12       -22.9390   -2.0070   67.7580 ca        1 CMW     -0.160500
     24 C11       -22.4000   -3.0880   68.4480 ca        1 CMW     -0.013000
     25 H2        -14.0000   -2.2830   66.6540 hn        1 CMW      0.345500
     26 H4        -14.4830   -2.9420   64.3890 ha        1 CMW      0.156500
     27 H1        -17.0890   -4.1570   67.6960 ha        1 CMW      0.156500
     28 H3        -15.8640   -4.4180   62.9160 h4        1 CMW      0.039600
     29 HA        -18.3330   -5.5500   66.0820 h4        1 CMW      0.039600
     30 H71C      -16.0130   -2.4380   70.8200 h1        1 CMW      0.062700
     31 H72C      -16.4820   -0.8060   70.1340 h1        1 CMW      0.062700
     32 H81C      -18.4620   -1.6620   71.3000 hc        1 CMW      0.062700
     33 H82C      -18.7700   -1.7990   69.5180 hc        1 CMW      0.062700
     34 H91C      -17.7880   -4.2440   69.7230 h1        1 CMW      0.064700
     35 H92C      -17.9680   -4.0290   71.5230 h1        1 CMW      0.064700
     36 HB        -20.2870   -3.9410   71.2390 hn        1 CMW      0.447800
     37 H16       -19.2060   -2.9810   67.2590 ha        1 CMW      0.155000
     38 H11       -23.0420   -3.6880   69.1180 ha        1 CMW      0.155000
     39 H15       -20.1580   -1.0360   66.0290 ha        1 CMW      0.142000
     40 H141      -23.5610    0.3470   66.6950 hc        1 CMW      0.053700
     41 H142      -21.9390    0.6650   65.9430 hc        1 CMW      0.053700
     42 H143      -23.1000   -0.4760   65.1460 hc        1 CMW      0.053700
     43 H12       -23.9990   -1.7430   67.8930 ha        1 CMW      0.142000
@<TRIPOS>BOND
     1    1    2 2   
     2    2    3 1   
     3    2   10 1   
     4    3    4 1   
     5    3   25 1   
     6    4    5 ar  
     7    4    9 ar  
     8    5    6 ar  
     9    5   26 1   
    10    6    7 ar  
    11    6   28 1   
    12    7    8 ar  
    13    8    9 ar  
    14    8   29 1   
    15    9   27 1   
    16   10   11 1   
    17   11   12 1   
    18   11   30 1   
    19   11   31 1   
    20   12   13 1   
    21   12   32 1   
    22   12   33 1   
    23   13   14 1   
    24   13   34 1   
    25   13   35 1   
    26   14   15 1   
    27   14   36 1   
    28   15   16 2   
    29   15   17 2   
    30   15   18 1   
    31   18   19 ar  
    32   18   24 ar  
    33   19   20 ar  
    34   19   37 1   
    35   20   21 ar  
    36   20   39 1   
    37   21   22 1   
    38   21   23 ar  
    39   22   40 1   
    40   22   41 1   
    41   22   42 1   
    42   23   24 ar  
    43   23   43 1   
    44   24   38 1   
@<TRIPOS>SUBSTRUCTURE
     1 CMW         1 TEMP              0 ****  ****    0 ROOT
