@<TRIPOS>MOLECULE
CMW
   44    45     1     0     0
SMALL
bcc


@<TRIPOS>ATOM
      1 O4          0.0970   -0.6520    0.0920 o         1 CMW     -0.551000
      2 C6          1.3160   -0.4240    0.0720 c         1 CMW      0.751100
      3 N2          2.1340   -0.3580    1.1800 n         1 CMW     -0.447100
      4 C5          3.5230   -0.1820    1.2080 ca        1 CMW      0.107600
      5 C4          4.1330    0.2760    2.4020 ca        1 CMW     -0.292300
      6 C3          5.5260    0.4380    2.4260 ca        1 CMW      0.419200
      7 N1          6.3330    0.1840    1.3770 nb        1 CMW     -0.668000
      8 C2          5.7470   -0.2650    0.2540 ca        1 CMW      0.419200
      9 C1          4.3640   -0.4620    0.1100 ca        1 CMW     -0.292300
     10 O1          1.9070   -0.1880   -1.1610 os        1 CMW     -0.463900
     11 C7          0.9910   -0.2040   -2.2720 c3        1 CMW      0.147400
     12 C8          1.7640    0.3650   -3.4500 c3        1 CMW     -0.109400
     13 C9          2.8170   -0.6350   -3.9160 c3        1 CMW      0.099800
     14 N3          3.8080   -0.0600   -4.8540 n4        1 CMW     -0.691900
     15 S           5.5300    0.4110   -4.0630 sy        1 CMW      1.494200
     16 O3          6.3120    0.2400   -5.1860 o         1 CMW     -0.574300
     17 O2          5.6080   -0.4700   -3.0040 o         1 CMW     -0.574300
     18 C10         5.1970    1.9190   -3.6820 ca        1 CMW     -0.572500
     19 C16         4.6840    2.2570   -2.4060 ca        1 CMW      0.018500
     20 C15         4.4760    3.5750   -2.0410 ca        1 CMW     -0.161000
     21 C13         4.7750    4.6190   -2.9340 ca        1 CMW      0.079700
     22 C14         4.5800    6.0270   -2.5360 c3        1 CMW     -0.096800
     23 C12         5.2820    4.3000   -4.2070 ca        1 CMW     -0.161000
     24 C11         5.4900    2.9830   -4.5690 ca        1 CMW      0.018500
     25 H2          1.6640   -0.4610    2.0570 hn        1 CMW      0.361500
     26 H4          3.5420    0.4970    3.3030 ha        1 CMW      0.154000
     27 H1          3.9730   -0.8560   -0.8380 ha        1 CMW      0.154000
     28 H3          6.0300    0.7920    3.3460 h4        1 CMW      0.036100
     29 HA          6.4210   -0.4990   -0.5920 h4        1 CMW      0.036100
     30 H71C        0.6600   -1.2610   -2.4470 h1        1 CMW      0.083700
     31 H72C        0.0960    0.4330   -2.0380 h1        1 CMW      0.083700
     32 H81C        1.0380    0.5830   -4.2760 hc        1 CMW      0.074200
     33 H82C        2.2440    1.3310   -3.1360 hc        1 CMW      0.074200
     34 H91C        2.2990   -1.5090   -4.4080 hx        1 CMW      0.111200
     35 H92C        3.3780   -1.0360   -3.0160 hx        1 CMW      0.111200
     36 HB          3.9900   -0.7360   -5.5950 hn        1 CMW      0.441800
     37 H16         4.4640    1.4450   -1.6810 ha        1 CMW      0.172000
     38 H11         5.9140    2.7490   -5.5650 ha        1 CMW      0.172000
     39 H15         4.0820    3.8120   -1.0380 ha        1 CMW      0.174000
     40 H141        4.3350    6.6680   -3.4200 hc        1 CMW      0.081700
     41 H142        5.5270    6.4170   -2.0760 hc        1 CMW      0.081700
     42 H143        3.7610    6.1270   -1.7800 hc        1 CMW      0.081700
     43 H12         5.5250    5.1120   -4.9150 ha        1 CMW      0.174000
     44 H32         3.4080    0.7630   -5.2960 hn        1 CMW      0.441800
@<TRIPOS>BOND
     1    1    2 2   
     2    2    3 1   
     3    2   10 1   
     4    3    4 1   
     5    3   25 1   
     6    4    5 ar  
     7    4    9 ar  
     8    5    6 ar  
     9    5   26 1   
    10    6    7 ar  
    11    6   28 1   
    12    7    8 ar  
    13    8    9 ar  
    14    8   29 1   
    15    9   27 1   
    16   10   11 1   
    17   11   12 1   
    18   11   30 1   
    19   11   31 1   
    20   12   13 1   
    21   12   32 1   
    22   12   33 1   
    23   13   14 1   
    24   13   34 1   
    25   13   35 1   
    26   14   15 1   
    27   14   36 1   
    28   14   44 1   
    29   15   16 2   
    30   15   17 2   
    31   15   18 1   
    32   18   19 ar  
    33   18   24 ar  
    34   19   20 ar  
    35   19   37 1   
    36   20   21 ar  
    37   20   39 1   
    38   21   22 1   
    39   21   23 ar  
    40   22   40 1   
    41   22   41 1   
    42   22   42 1   
    43   23   24 ar  
    44   23   43 1   
    45   24   38 1   
@<TRIPOS>SUBSTRUCTURE
     1 CMW         1 TEMP              0 ****  ****    0 ROOT
