@<TRIPOS>MOLECULE
CMW
   45    45     1     0     0
SMALL
bcc


@<TRIPOS>ATOM
      1 O4          1.5150   -2.0860   -0.6570 o         1 CMW     -0.413000
      2 C6          2.5250   -2.6020   -0.2020 c         1 CMW      0.617100
      3 N2          2.5200   -3.4860    1.0080 n4        1 CMW     -0.503200
      4 C5          2.3860   -2.7180    2.2540 ca        1 CMW     -0.019400
      5 C4          1.1490   -2.1430    2.5930 ca        1 CMW     -0.222300
      6 C3          1.0720   -1.4540    3.8210 ca        1 CMW      0.440200
      7 N1          2.1100   -1.3200    4.6670 nb        1 CMW     -0.591000
      8 C2          3.2830   -1.8800    4.3200 ca        1 CMW      0.440200
      9 C1          3.4850   -2.5930    3.1200 ca        1 CMW     -0.222300
     10 O1          3.7710   -2.4830   -0.7140 os        1 CMW     -0.394900
     11 C7          3.8880   -1.8350   -2.0100 c3        1 CMW      0.152400
     12 C8          3.8680   -0.3270   -1.8670 c3        1 CMW     -0.147400
     13 C9          4.1400    0.3020   -3.2330 c3        1 CMW      0.119800
     14 N3          4.1590    1.7560   -3.2690 n3        1 CMW     -0.994800
     15 S           4.6160    2.4000   -5.5340 s4        1 CMW      1.683300
     16 O3          3.3980    1.9500   -5.9360 o         1 CMW     -0.437900
     17 O2          5.7250    1.6160   -5.5660 o         1 CMW     -0.437900
     18 C10         4.7970    3.9200   -5.3030 ca        1 CMW     -0.644500
     19 C16         6.0760    4.4880   -5.0380 ca        1 CMW      0.036500
     20 C15         6.2500    5.8490   -4.9000 ca        1 CMW     -0.165000
     21 C13         5.1550    6.7290   -5.0190 ca        1 CMW      0.117700
     22 C14         5.3450    8.1850   -4.9010 c3        1 CMW     -0.108800
     23 C12         3.8770    6.1880   -5.2730 ca        1 CMW     -0.165000
     24 C11         3.7050    4.8280   -5.4110 ca        1 CMW      0.036500
     25 H2          1.7140   -4.1270    0.9250 hn        1 CMW      0.489300
     26 H4          0.2630   -2.2120    1.9420 ha        1 CMW      0.178000
     27 H1          4.4720   -3.0300    2.9050 ha        1 CMW      0.178000
     28 H3          0.1170   -0.9870    4.1420 h4        1 CMW      0.073100
     29 HA          4.1150   -1.7580    5.0450 h4        1 CMW      0.073100
     30 H71C        4.8930   -2.2170   -2.3470 h1        1 CMW      0.105200
     31 H72C        3.0690   -2.2000   -2.6830 h1        1 CMW      0.105200
     32 H81C        2.8670   -0.0000   -1.4760 hc        1 CMW      0.077700
     33 H82C        4.6470   -0.0060   -1.1250 hc        1 CMW      0.077700
     34 H91C        3.3450   -0.0450   -3.9580 h1        1 CMW      0.093200
     35 H92C        5.1420   -0.0600   -3.6120 h1        1 CMW      0.093200
     36 HB          4.8630    2.1160   -2.6460 hn        1 CMW      0.398300
     37 H16         6.9510    3.8140   -4.9580 ha        1 CMW      0.171500
     38 H11         2.6970    4.4230   -5.6280 ha        1 CMW      0.171500
     39 H15         7.2560    6.2600   -4.7020 ha        1 CMW      0.185000
     40 H141        4.4250    8.6880   -4.5080 hc        1 CMW      0.093033
     41 H142        6.2070    8.4330   -4.2320 hc        1 CMW      0.093033
     42 H143        5.5630    8.6140   -5.9180 hc        1 CMW      0.093033
     43 H12         3.0110    6.8680   -5.3700 ha        1 CMW      0.185000
     44 H22         3.3950   -4.0330    1.0340 hn        1 CMW      0.489300
     45 H32         3.2660    2.1270   -2.9880 hn        1 CMW      0.398300
@<TRIPOS>BOND
     1    1    2 2   
     2    2    3 1   
     3    2   10 1   
     4    3    4 1   
     5    3   25 1   
     6    3   44 1   
     7    4    5 ar  
     8    4    9 ar  
     9    5    6 ar  
    10    5   26 1   
    11    6    7 ar  
    12    6   28 1   
    13    7    8 ar  
    14    8    9 ar  
    15    8   29 1   
    16    9   27 1   
    17   10   11 1   
    18   11   12 1   
    19   11   30 1   
    20   11   31 1   
    21   12   13 1   
    22   12   32 1   
    23   12   33 1   
    24   13   14 1   
    25   13   34 1   
    26   13   35 1   
    27   14   36 1   
    28   14   45 1   
    29   15   16 1   
    30   15   17 1   
    31   15   18 1   
    32   18   19 ar  
    33   18   24 ar  
    34   19   20 ar  
    35   19   37 1   
    36   20   21 ar  
    37   20   39 1   
    38   21   22 1   
    39   21   23 ar  
    40   22   40 1   
    41   22   41 1   
    42   22   42 1   
    43   23   24 ar  
    44   23   43 1   
    45   24   38 1   
@<TRIPOS>SUBSTRUCTURE
     1 CMW         1 TEMP              0 ****  ****    0 ROOT
