@<TRIPOS>MOLECULE
CMY
   28    26     1     0     0
SMALL
bcc


@<TRIPOS>ATOM
      1 O1Y         0.0480    0.5470   -0.4860 o         1 CMY     -0.456000
      2 C1Y         0.2790    1.4230    0.2800 c1        1 CMY      0.908000
      3 N1Y         1.9030   -0.2900    1.7320 n8        1 CMY     -0.939800
      4 C2Y         3.3270   -0.2540    1.9700 c3        1 CMY      0.161800
      5 C3Y         3.9170    1.1570    1.9470 c3        1 CMY     -0.077400
      6 C4Y         3.2580    2.0790    2.9490 c3        1 CMY     -0.085400
      7 C5Y         3.9510    3.4270    2.9750 c3        1 CMY     -0.075400
      8 C6Y         3.1400    4.4190    3.7870 c3        1 CMY     -0.112400
      9 C7Y         3.8170    5.7820    3.7380 c3        1 CMY      0.099800
     10 N2Y         3.0380    6.8340    4.4590 nz        1 CMY     -0.839600
     11 O1          0.4830    2.3230    1.0380 o         1 CMY     -0.456000
     12 H1          1.3960   -0.0430    2.5580 hn        1 CMY      0.358800
     13 H2Y1        3.6050   -0.7320    2.9570 h1        1 CMY      0.038200
     14 H2Y2        3.8370   -0.8480    1.1580 h1        1 CMY      0.038200
     15 H3Y1        5.0130    1.0720    2.1710 hc        1 CMY      0.049700
     16 H3Y2        3.8120    1.5900    0.9180 hc        1 CMY      0.049700
     17 H4Y1        3.2870    1.6180    3.9710 hc        1 CMY      0.056700
     18 H4Y2        2.1780    2.2250    2.6710 hc        1 CMY      0.056700
     19 H5Y1        4.9780    3.3200    3.4140 hc        1 CMY      0.055700
     20 H5Y2        4.0690    3.8060    1.9250 hc        1 CMY      0.055700
     21 H6Y1        2.1010    4.4800    3.3630 hc        1 CMY      0.072700
     22 H6Y2        3.0590    4.0580    4.8470 hc        1 CMY      0.072700
     23 H7Y1        4.8390    5.7260    4.2130 hx        1 CMY      0.113200
     24 H7Y2        3.9330    6.1180    2.6660 hx        1 CMY      0.113200
     25 H11         2.9280    6.5750    5.4450 hn        1 CMY      0.461467
     26 H12         3.5230    7.7350    4.4010 hn        1 CMY      0.461467
     27 H1Y2        1.6170   -1.1990    1.4250 hn        1 CMY      0.358800
     28 H2Y3        2.1060    6.9270    4.0410 hn        1 CMY      0.461467
@<TRIPOS>BOND
     1    1    2 2   
     2    2   11 2   
     3    3    4 1   
     4    3   12 1   
     5    3   27 1   
     6    4    5 1   
     7    4   13 1   
     8    4   14 1   
     9    5    6 1   
    10    5   15 1   
    11    5   16 1   
    12    6    7 1   
    13    6   17 1   
    14    6   18 1   
    15    7    8 1   
    16    7   19 1   
    17    7   20 1   
    18    8    9 1   
    19    8   21 1   
    20    8   22 1   
    21    9   10 1   
    22    9   23 1   
    23    9   24 1   
    24   10   25 1   
    25   10   26 1   
    26   10   28 1   
@<TRIPOS>SUBSTRUCTURE
     1 CMY         1 TEMP              0 ****  ****    0 ROOT
