@<TRIPOS>MOLECULE
CMY
   28    26     1     0     0
SMALL
bcc


@<TRIPOS>ATOM
      1 O1Y         0.2990    0.6120   -0.7400 o         1 CMY     -0.456000
      2 C1Y         0.4650    1.4640    0.0680 c1        1 CMY      0.908000
      3 N1Y         2.0330   -0.2710    1.5560 n3        1 CMY     -0.940800
      4 C2Y         3.4380   -0.2170    1.8840 c3        1 CMY      0.161800
      5 C3Y         3.9990    1.2040    1.9480 c3        1 CMY     -0.077400
      6 C4Y         3.2600    2.0770    2.9390 c3        1 CMY     -0.085400
      7 C5Y         3.9230    3.4350    3.0560 c3        1 CMY     -0.075400
      8 C6Y         3.0420    4.3820    3.8500 c3        1 CMY     -0.112400
      9 C7Y         3.6930    5.7580    3.8920 c3        1 CMY      0.099800
     10 N2Y         2.8480    6.7690    4.5980 n4        1 CMY     -0.839600
     11 O1          0.6040    2.3400    0.8680 o         1 CMY     -0.456000
     12 H1          1.4710   -0.0640    2.3580 hn        1 CMY      0.358800
     13 H2Y1        3.6650   -0.7250    2.8680 h1        1 CMY      0.038200
     14 H2Y2        4.0100   -0.7710    1.0840 h1        1 CMY      0.038200
     15 H3Y1        5.0800    1.1310    2.2360 hc        1 CMY      0.049700
     16 H3Y2        3.9490    1.6730    0.9300 hc        1 CMY      0.049700
     17 H4Y1        3.2360    1.5790    3.9430 hc        1 CMY      0.056700
     18 H4Y2        2.1970    2.2130    2.5990 hc        1 CMY      0.056700
     19 H5Y1        4.9210    3.3320    3.5560 hc        1 CMY      0.055700
     20 H5Y2        4.0990    3.8550    2.0300 hc        1 CMY      0.055700
     21 H6Y1        2.0310    4.4390    3.3620 hc        1 CMY      0.072700
     22 H6Y2        2.9020    3.9810    4.8880 hc        1 CMY      0.072700
     23 H7Y1        4.6840    5.7030    4.4290 hx        1 CMY      0.113200
     24 H7Y2        3.8690    6.1350    2.8420 hx        1 CMY      0.113200
     25 H11         2.6800    6.4720    5.5650 hn        1 CMY      0.461467
     26 H12         3.3170    7.6800    4.6030 hn        1 CMY      0.461467
     27 H1Y2        1.7850   -1.1730    1.2000 hn        1 CMY      0.358800
     28 H2Y3        1.9420    6.8600    4.1250 hn        1 CMY      0.461467
@<TRIPOS>BOND
     1    1    2 2   
     2    2   11 2   
     3    3    4 1   
     4    3   12 1   
     5    3   27 1   
     6    4    5 1   
     7    4   13 1   
     8    4   14 1   
     9    5    6 1   
    10    5   15 1   
    11    5   16 1   
    12    6    7 1   
    13    6   17 1   
    14    6   18 1   
    15    7    8 1   
    16    7   19 1   
    17    7   20 1   
    18    8    9 1   
    19    8   21 1   
    20    8   22 1   
    21    9   10 1   
    22    9   23 1   
    23    9   24 1   
    24   10   25 1   
    25   10   26 1   
    26   10   28 1   
@<TRIPOS>SUBSTRUCTURE
     1 CMY         1 TEMP              0 ****  ****    0 ROOT
