@<TRIPOS>MOLECULE
CMY
   26    25     1     0     0
SMALL
bcc


@<TRIPOS>ATOM
      1 O1Y         0.9980    2.8040   -4.8640 o         1 CMY     -0.845800
      2 C1Y         1.9340    2.8390   -4.0100 c         1 CMY      0.978600
      3 N1Y         2.5680    1.5640   -3.7000 n         1 CMY     -0.583900
      4 C2Y         3.1700    1.4050   -2.4150 c3        1 CMY      0.085000
      5 C3Y         2.2530    1.0050   -1.2510 c3        1 CMY     -0.117400
      6 C4Y         1.6950   -0.3910   -1.4100 c3        1 CMY     -0.077400
      7 C5Y         0.8440   -0.7830   -0.2200 c3        1 CMY     -0.078400
      8 C6Y         0.2560   -2.1670   -0.3970 c3        1 CMY     -0.085400
      9 C7Y        -0.6490   -2.5140    0.7830 c3        1 CMY      0.152800
     10 N2Y        -1.2420   -3.8300    0.7020 n3        1 CMY     -0.916800
     11 O1          2.3610    3.8890   -3.4420 o         1 CMY     -0.845800
     12 H1          1.9990    0.7900   -3.9680 hn        1 CMY      0.235500
     13 H2Y1        3.6560    2.3860   -2.1430 h1        1 CMY      0.032200
     14 H2Y2        3.9770    0.6180   -2.4940 h1        1 CMY      0.032200
     15 H3Y1        1.4130    1.7420   -1.1710 hc        1 CMY      0.035200
     16 H3Y2        2.8440    1.0620   -0.3000 hc        1 CMY      0.035200
     17 H4Y1        2.5360   -1.1240   -1.5280 hc        1 CMY      0.038200
     18 H4Y2        1.0740   -0.4460   -2.3430 hc        1 CMY      0.038200
     19 H5Y1        1.4640   -0.7540    0.7140 hc        1 CMY      0.035700
     20 H5Y2        0.0180   -0.0350   -0.0930 hc        1 CMY      0.035700
     21 H6Y1        1.0810   -2.9210   -0.4810 hc        1 CMY      0.043700
     22 H6Y2       -0.3300   -2.2040   -1.3530 hc        1 CMY      0.043700
     23 H7Y1       -1.4300   -1.7010    0.8720 h1        1 CMY      0.024200
     24 H7Y2       -0.0390   -2.4860    1.7310 h1        1 CMY      0.024200
     25 H11        -1.5060   -4.0480   -0.2390 hn        1 CMY      0.340800
     26 H12        -2.0560   -3.8770    1.2830 hn        1 CMY      0.340800
@<TRIPOS>BOND
     1    1    2 1   
     2    2    3 1   
     3    2   11 1   
     4    3    4 1   
     5    3   12 1   
     6    4    5 1   
     7    4   13 1   
     8    4   14 1   
     9    5    6 1   
    10    5   15 1   
    11    5   16 1   
    12    6    7 1   
    13    6   17 1   
    14    6   18 1   
    15    7    8 1   
    16    7   19 1   
    17    7   20 1   
    18    8    9 1   
    19    8   21 1   
    20    8   22 1   
    21    9   10 1   
    22    9   23 1   
    23    9   24 1   
    24   10   25 1   
    25   10   26 1   
@<TRIPOS>SUBSTRUCTURE
     1 CMY         1 TEMP              0 ****  ****    0 ROOT
