@<TRIPOS>MOLECULE
CMY
   26    25     1     0     0
SMALL
bcc


@<TRIPOS>ATOM
      1 O1Y        -3.4950   -0.3270   -4.1370 o         1 CMY     -0.845800
      2 C1Y        -4.0560    0.1610   -3.1070 c         1 CMY      0.988600
      3 N1Y        -3.3310    0.2830   -1.8930 n         1 CMY     -0.598900
      4 C2Y        -1.9170   -0.0220   -1.8600 c3        1 CMY      0.089000
      5 C3Y        -1.3900    0.1690   -0.4420 c3        1 CMY     -0.090400
      6 C4Y         0.1280   -0.0370   -0.4280 c3        1 CMY     -0.077400
      7 C5Y         0.6300    0.0310    0.9870 c3        1 CMY     -0.078400
      8 C6Y         2.1770   -0.1300    0.9980 c3        1 CMY     -0.084400
      9 C7Y         2.6850   -0.1220    2.4590 c3        1 CMY      0.153800
     10 N2Y         4.1270   -0.1740    2.4690 n3        1 CMY     -0.915800
     11 O1         -5.2660    0.4950   -3.1510 o         1 CMY     -0.845800
     12 H1         -3.7480    0.5620   -1.1460 hn        1 CMY      0.239500
     13 H2Y1       -1.7760   -0.9550   -2.1390 h1        1 CMY      0.021700
     14 H2Y2       -1.4420    0.5740   -2.4660 h1        1 CMY      0.021700
     15 H3Y1       -1.8190   -0.4920    0.1630 hc        1 CMY      0.032200
     16 H3Y2       -1.6000    1.0800   -0.1350 hc        1 CMY      0.032200
     17 H4Y1        0.3420   -0.9120   -0.8090 hc        1 CMY      0.036700
     18 H4Y2        0.5560    0.6610   -0.9580 hc        1 CMY      0.036700
     19 H5Y1        0.3890    0.8940    1.3770 hc        1 CMY      0.036200
     20 H5Y2        0.2230   -0.6900    1.5130 hc        1 CMY      0.036200
     21 H6Y1        2.4230   -0.9910    0.5660 hc        1 CMY      0.043200
     22 H6Y2        2.5890    0.6180    0.5000 hc        1 CMY      0.043200
     23 H7Y1        2.3840    0.7040    2.9070 h1        1 CMY      0.023700
     24 H7Y2        2.3290   -0.8960    2.9310 h1        1 CMY      0.023700
     25 H11         4.4000   -0.9840    2.7920 hn        1 CMY      0.341300
     26 H12         4.4560    0.5000    3.0090 hn        1 CMY      0.341300
@<TRIPOS>BOND
     1    1    2 1   
     2    2    3 1   
     3    2   11 1   
     4    3    4 1   
     5    3   12 1   
     6    4    5 1   
     7    4   13 1   
     8    4   14 1   
     9    5    6 1   
    10    5   15 1   
    11    5   16 1   
    12    6    7 1   
    13    6   17 1   
    14    6   18 1   
    15    7    8 1   
    16    7   19 1   
    17    7   20 1   
    18    8    9 1   
    19    8   21 1   
    20    8   22 1   
    21    9   10 1   
    22    9   23 1   
    23    9   24 1   
    24   10   25 1   
    25   10   26 1   
@<TRIPOS>SUBSTRUCTURE
     1 CMY         1 TEMP              0 ****  ****    0 ROOT
