@<TRIPOS>MOLECULE
CMY
   28    26     1     0     0
SMALL
bcc


@<TRIPOS>ATOM
      1 O1Y        -0.0090    0.6310   -0.4930 o         1 CMY     -0.456000
      2 C1Y         0.2450    1.5010    0.2720 c1        1 CMY      0.908000
      3 N1Y         1.8090   -0.2580    1.7350 n3        1 CMY     -0.939800
      4 C2Y         3.2320   -0.2650    1.9800 c3        1 CMY      0.161800
      5 C3Y         3.8660    1.1260    1.9550 c3        1 CMY     -0.077400
      6 C4Y         3.2320    2.0710    2.9520 c3        1 CMY     -0.085400
      7 C5Y         3.9670    3.3970    2.9770 c3        1 CMY     -0.075400
      8 C6Y         3.1840    4.4160    3.7840 c3        1 CMY     -0.112400
      9 C7Y         3.9040    5.7570    3.7340 c3        1 CMY      0.099800
     10 N2Y         3.1560    6.8350    4.4500 n4        1 CMY     -0.839600
     11 O1          0.4740    2.3960    1.0290 o         1 CMY     -0.456000
     12 H1          1.4960   -1.1580    1.4310 hn        1 CMY      0.358800
     13 H2Y1        3.4910   -0.7480    2.9690 h1        1 CMY      0.038200
     14 H2Y2        3.7280   -0.8770    1.1710 h1        1 CMY      0.038200
     15 H3Y1        4.9580    1.0080    2.1830 hc        1 CMY      0.049700
     16 H3Y2        3.7790    1.5590    0.9240 hc        1 CMY      0.049700
     17 H4Y1        3.2430    1.6130    3.9750 hc        1 CMY      0.056700
     18 H4Y2        2.1590    2.2510    2.6690 hc        1 CMY      0.056700
     19 H5Y1        4.1010    3.7700    1.9270 hc        1 CMY      0.055700
     20 H5Y2        4.9880    3.2600    3.4200 hc        1 CMY      0.055700
     21 H6Y1        3.0890    4.0600    4.8440 hc        1 CMY      0.072700
     22 H6Y2        2.1500    4.5080    3.3560 hc        1 CMY      0.072700
     23 H7Y1        4.0340    6.0870    2.6620 hx        1 CMY      0.113200
     24 H7Y2        4.9230    5.6700    4.2130 hx        1 CMY      0.113200
     25 H11         3.0340    6.5820    5.4360 hn        1 CMY      0.461467
     26 H12         3.6680    7.7200    4.3910 hn        1 CMY      0.461467
     27 H1Y2        1.3070    0.0080    2.5590 hn        1 CMY      0.358800
     28 H2Y3        2.2280    6.9550    4.0290 hn        1 CMY      0.461467
@<TRIPOS>BOND
     1    1    2 2   
     2    2   11 2   
     3    3    4 1   
     4    3   12 1   
     5    3   27 1   
     6    4    5 1   
     7    4   13 1   
     8    4   14 1   
     9    5    6 1   
    10    5   15 1   
    11    5   16 1   
    12    6    7 1   
    13    6   17 1   
    14    6   18 1   
    15    7    8 1   
    16    7   19 1   
    17    7   20 1   
    18    8    9 1   
    19    8   21 1   
    20    8   22 1   
    21    9   10 1   
    22    9   23 1   
    23    9   24 1   
    24   10   25 1   
    25   10   26 1   
    26   10   28 1   
@<TRIPOS>SUBSTRUCTURE
     1 CMY         1 TEMP              0 ****  ****    0 ROOT
