@<TRIPOS>MOLECULE
CMZ
   42    43     1     0     0
SMALL
bcc


@<TRIPOS>ATOM
      1 C1          0.0190    0.2650    0.2110 c3        1 CMZ     -0.054800
      2 C2          1.4940    0.2220    0.0860 ca        1 CMZ     -0.065300
      3 C3          2.3040    0.3790    1.2180 ca        1 CMZ     -0.137000
      4 C4          3.6910    0.3570    1.1040 ca        1 CMZ     -0.117000
      5 C5          4.3110    0.1710   -0.1370 ca        1 CMZ     -0.086300
      6 C6          5.7870    0.1390   -0.2380 c3        1 CMZ     -0.049800
      7 C7          3.4890    0.0170   -1.2680 ca        1 CMZ      0.102100
      8 O8          4.0940   -0.0590   -2.5180 os        1 CMZ     -0.364900
      9 C9          3.8560   -1.3050   -3.1940 c3        1 CMZ      0.100400
     10 C10         4.6150   -1.2230   -4.5190 c3        1 CMZ      0.144100
     11 O11         4.1620   -0.1340   -5.3020 oh        1 CMZ     -0.597800
     12 C12         6.1360   -1.0890   -4.2950 c3        1 CMZ      0.135800
     13 N13         6.7380   -2.3210   -3.8120 n3        1 CMZ     -0.733600
     14 C14         7.1030   -3.2300   -4.8900 c3        1 CMZ      0.134800
     15 C15         7.7750   -4.5080   -4.3750 c3        1 CMZ      0.126400
     16 O16         8.8780   -4.2150   -3.5260 os        1 CMZ     -0.414600
     17 C17         8.5070   -3.3860   -2.4300 c3        1 CMZ      0.126400
     18 C18         7.8490   -2.0830   -2.8980 c3        1 CMZ      0.134800
     19 C19         2.0930    0.0400   -1.1630 ca        1 CMZ     -0.155000
     20 H11        -0.4730   -0.2770   -0.6330 hc        1 CMZ      0.045700
     21 H12        -0.3120   -0.1990    1.1720 hc        1 CMZ      0.045700
     22 H13        -0.3320    1.3280    0.1970 hc        1 CMZ      0.045700
     23 H3          1.8380    0.5220    2.2040 ha        1 CMZ      0.133000
     24 H4          4.3150    0.4860    2.0010 ha        1 CMZ      0.133000
     25 H61         6.1700   -0.8650    0.0800 hc        1 CMZ      0.047033
     26 H62         6.2440    0.9140    0.4240 hc        1 CMZ      0.047033
     27 H63         6.1200    0.3240   -1.2890 hc        1 CMZ      0.047033
     28 H91         2.7560   -1.4180   -3.3820 h1        1 CMZ      0.053200
     29 H92         4.2340   -2.1530   -2.5710 h1        1 CMZ      0.053200
     30 H10         4.3710   -2.1330   -5.1360 h1        1 CMZ      0.081700
     31 HO11        4.2570    0.6640   -4.7660 ho        1 CMZ      0.414000
     32 H121        6.5940   -0.7450   -5.2680 h1        1 CMZ      0.050700
     33 H122        6.2950   -0.2680   -3.5370 h1        1 CMZ      0.050700
     34 H141        6.1600   -3.5120   -5.4360 h1        1 CMZ      0.041700
     35 H142        7.7980   -2.7380   -5.6320 h1        1 CMZ      0.041700
     36 H151        7.0380   -5.1500   -3.8240 h1        1 CMZ      0.053700
     37 H152        8.2230   -5.0800   -5.2290 h1        1 CMZ      0.053700
     38 H171        7.8220   -3.9540   -1.7470 h1        1 CMZ      0.053700
     39 H172        9.4750   -3.1630   -1.9090 h1        1 CMZ      0.053700
     40 H181        8.6420   -1.4310   -3.3670 h1        1 CMZ      0.041700
     41 H182        7.4420   -1.5440   -1.9960 h1        1 CMZ      0.041700
     42 H19         1.4750   -0.0780   -2.0660 ha        1 CMZ      0.142000
@<TRIPOS>BOND
     1    1    2 1   
     2    1   20 1   
     3    1   21 1   
     4    1   22 1   
     5    2    3 ar  
     6    2   19 ar  
     7    3    4 ar  
     8    3   23 1   
     9    4    5 ar  
    10    4   24 1   
    11    5    6 1   
    12    5    7 ar  
    13    6   25 1   
    14    6   26 1   
    15    6   27 1   
    16    7    8 1   
    17    7   19 ar  
    18    8    9 1   
    19    9   10 1   
    20    9   28 1   
    21    9   29 1   
    22   10   11 1   
    23   10   12 1   
    24   10   30 1   
    25   11   31 1   
    26   12   13 1   
    27   12   32 1   
    28   12   33 1   
    29   13   14 1   
    30   13   18 1   
    31   14   15 1   
    32   14   34 1   
    33   14   35 1   
    34   15   16 1   
    35   15   36 1   
    36   15   37 1   
    37   16   17 1   
    38   17   18 1   
    39   17   38 1   
    40   17   39 1   
    41   18   40 1   
    42   18   41 1   
    43   19   42 1   
@<TRIPOS>SUBSTRUCTURE
     1 CMZ         1 TEMP              0 ****  ****    0 ROOT
