@<TRIPOS>MOLECULE
CMZ
   42    40     1     0     0
SMALL
bcc


@<TRIPOS>ATOM
      1 C1          2.3750    3.2580    4.6500 c3        1 CMZ     -0.178000
      2 C2          1.8610    3.0870    3.1850 c2        1 CMZ     -0.066000
      3 C3          2.2240    4.0220    2.1990 c1        1 CMZ     -0.135000
      4 C4          1.7170    3.9020    0.9020 c1        1 CMZ     -0.122000
      5 C5          0.8370    2.8380    0.5810 c1        1 CMZ     -0.083000
      6 C6          0.1980    2.7710   -0.7840 c3        1 CMZ     -0.188000
      7 C7          0.4810    1.9180    1.5550 c1        1 CMZ      0.048000
      8 O8         -0.4790    0.9200    1.2630 o         1 CMZ     -0.232000
      9 C9          0.0820   -0.3720    0.9810 c3        1 CMZ     -0.024000
     10 C10        -1.0030   -1.3060    0.5920 c3        1 CMZ      0.025000
     11 O11        -2.1870   -0.5770    0.3200 oh        1 CMZ     -0.334000
     12 C12        -0.5710   -2.1030   -0.6850 c3        1 CMZ     -0.105000
     13 N13        -1.7420   -2.3130   -1.5450 n3        1 CMZ     -0.253000
     14 C14        -1.9100   -3.7180   -1.7850 c3        1 CMZ     -0.109500
     15 C15        -0.8330   -4.2800   -2.6800 c3        1 CMZ     -0.057000
     16 O16        -0.6810   -3.5220   -3.8990 os        1 CMZ     -0.269000
     17 C17        -0.5130   -2.1210   -3.6610 c3        1 CMZ     -0.057000
     18 C18        -1.5890   -1.5550   -2.7640 c3        1 CMZ     -0.109500
     19 C19         0.9950    2.0410    2.8690 c2        1 CMZ     -0.136000
     20 H11         2.4250    4.1780    4.8600 hc        1 CMZ      0.083333
     21 H12         1.7820    2.8350    5.2390 hc        1 CMZ      0.083333
     22 H13         3.2920    2.8420    4.7380 hc        1 CMZ      0.083333
     23 H3          2.8470    4.7750    2.4270 ha        1 CMZ      0.132000
     24 H4          1.9640    4.5350    0.2330 ha        1 CMZ      0.133000
     25 H61         0.7400    2.2390   -1.3610 hc        1 CMZ      0.092667
     26 H62         0.1200    3.6350   -1.1370 hc        1 CMZ      0.092667
     27 H63        -0.6720    2.3760   -0.7090 hc        1 CMZ      0.092667
     28 H91         0.7390   -0.2960    0.2350 h1        1 CMZ      0.091500
     29 H92         0.5210   -0.7040    1.7570 h1        1 CMZ      0.091500
     30 H10        -1.1690   -1.9270    1.3170 h1        1 CMZ      0.108000
     31 HO11       -2.8430   -0.8550    0.8710 ho        1 CMZ      0.212000
     32 H121        0.1080   -1.5970   -1.1730 h1        1 CMZ      0.083000
     33 H122       -0.1770   -3.0250   -0.4020 h1        1 CMZ      0.083000
     34 H141       -1.8900   -4.2110   -0.8900 h1        1 CMZ      0.104250
     35 H142       -2.7720   -3.8640   -2.2070 h1        1 CMZ      0.104250
     36 H151       -1.0620   -5.2000   -2.9080 h1        1 CMZ      0.090750
     37 H152        0.0300   -4.2770   -2.1890 h1        1 CMZ      0.090750
     38 H171       -0.5370   -1.6270   -4.5570 h1        1 CMZ      0.090750
     39 H172        0.3330   -1.9780   -3.2530 h1        1 CMZ      0.090750
     40 H181       -1.3370   -0.5600   -2.5190 h1        1 CMZ      0.104250
     41 H182       -2.4360   -1.5570   -3.2450 h1        1 CMZ      0.104250
     42 H19         0.7330    1.3720    3.5780 ha        1 CMZ      0.142000
@<TRIPOS>BOND
     1    1    2 1   
     2    1   20 1   
     3    1   21 1   
     4    1   22 1   
     5    2    3 1   
     6    2   19 1   
     7    3   23 1   
     8    4    5 1   
     9    4   24 1   
    10    5    6 1   
    11    6   25 1   
    12    6   26 1   
    13    6   27 1   
    14    7   19 1   
    15    8    9 1   
    16    9   10 1   
    17    9   28 1   
    18    9   29 1   
    19   10   11 1   
    20   10   12 1   
    21   10   30 1   
    22   11   31 1   
    23   12   13 1   
    24   12   32 1   
    25   12   33 1   
    26   13   14 1   
    27   13   18 1   
    28   14   15 1   
    29   14   34 1   
    30   14   35 1   
    31   15   16 1   
    32   15   36 1   
    33   15   37 1   
    34   16   17 1   
    35   17   18 1   
    36   17   38 1   
    37   17   39 1   
    38   18   40 1   
    39   18   41 1   
    40   19   42 1   
@<TRIPOS>SUBSTRUCTURE
     1 CMZ         1 TEMP              0 ****  ****    0 ROOT
