@<TRIPOS>MOLECULE
CMZ
   42    43     1     0     0
SMALL
bcc


@<TRIPOS>ATOM
      1 C1          7.0700    1.9690   -2.3740 c3        1 CMZ     -0.054800
      2 C2          6.5840    1.4170   -1.0890 ca        1 CMZ     -0.064300
      3 C3          7.2560    1.7110    0.1040 ca        1 CMZ     -0.138000
      4 C4          6.8010    1.2030    1.3170 ca        1 CMZ     -0.116000
      5 C5          5.6620    0.3920    1.3760 ca        1 CMZ     -0.087300
      6 C6          5.1950   -0.1570    2.6680 c3        1 CMZ     -0.047800
      7 C7          4.9960    0.0990    0.1720 ca        1 CMZ      0.102100
      8 O8          3.9280   -0.7890    0.2170 os        1 CMZ     -0.362900
      9 C9          2.6870   -0.2220   -0.2350 c3        1 CMZ      0.099400
     10 C10         1.6590   -1.3540   -0.1860 c3        1 CMZ      0.145100
     11 O11         2.0720   -2.4550   -0.9730 oh        1 CMZ     -0.597800
     12 C12         1.4090   -1.8280    1.2610 c3        1 CMZ      0.133800
     13 N13         0.6060   -0.8890    2.0290 n3        1 CMZ     -0.731600
     14 C14        -0.8230   -1.0390    1.7840 c3        1 CMZ      0.133800
     15 C15        -1.6660   -0.0820    2.6340 c3        1 CMZ      0.126400
     16 O16        -1.3490   -0.1910    4.0170 os        1 CMZ     -0.414600
     17 C17         0.0350    0.0260    4.2680 c3        1 CMZ      0.126400
     18 C18         0.9180   -0.9260    3.4530 c3        1 CMZ      0.133800
     19 C19         5.4480    0.6050   -1.0520 ca        1 CMZ     -0.157000
     20 H11         6.7220    1.3490   -3.2370 hc        1 CMZ      0.046033
     21 H12         6.6820    3.0100   -2.5120 hc        1 CMZ      0.046033
     22 H13         8.1870    2.0070   -2.3930 hc        1 CMZ      0.046033
     23 H3          8.1520    2.3490    0.0800 ha        1 CMZ      0.133000
     24 H4          7.3390    1.4410    2.2470 ha        1 CMZ      0.134000
     25 H61         5.3680    0.5730    3.4970 hc        1 CMZ      0.046700
     26 H62         4.1030   -0.4010    2.6220 hc        1 CMZ      0.046700
     27 H63         5.7510   -1.0990    2.9050 hc        1 CMZ      0.046700
     28 H91         2.3890    0.6170    0.4440 h1        1 CMZ      0.053700
     29 H92         2.8060    0.1500   -1.2850 h1        1 CMZ      0.053700
     30 H10         0.7070   -1.0020   -0.6740 h1        1 CMZ      0.081700
     31 HO11        2.9440   -2.7250   -0.6550 ho        1 CMZ      0.415000
     32 H121        0.9310   -2.8500    1.2060 h1        1 CMZ      0.050700
     33 H122        2.4150   -1.9480    1.7560 h1        1 CMZ      0.050700
     34 H141       -1.1710   -2.0940    1.9860 h1        1 CMZ      0.041700
     35 H142       -1.0120   -0.8160    0.6970 h1        1 CMZ      0.041700
     36 H151       -1.5220    0.9790    2.2990 h1        1 CMZ      0.053700
     37 H152       -2.7490   -0.3630    2.5730 h1        1 CMZ      0.053700
     38 H171        0.1550   -0.1800    5.3640 h1        1 CMZ      0.053700
     39 H172        0.2940    1.0950    4.0450 h1        1 CMZ      0.053700
     40 H181        1.9920   -0.6120    3.5790 h1        1 CMZ      0.041700
     41 H182        0.8060   -1.9660    3.8760 h1        1 CMZ      0.041700
     42 H19         4.9140    0.3530   -1.9800 ha        1 CMZ      0.142000
@<TRIPOS>BOND
     1    1    2 1   
     2    1   20 1   
     3    1   21 1   
     4    1   22 1   
     5    2    3 ar  
     6    2   19 ar  
     7    3    4 ar  
     8    3   23 1   
     9    4    5 ar  
    10    4   24 1   
    11    5    6 1   
    12    5    7 ar  
    13    6   25 1   
    14    6   26 1   
    15    6   27 1   
    16    7    8 1   
    17    7   19 ar  
    18    8    9 1   
    19    9   10 1   
    20    9   28 1   
    21    9   29 1   
    22   10   11 1   
    23   10   12 1   
    24   10   30 1   
    25   11   31 1   
    26   12   13 1   
    27   12   32 1   
    28   12   33 1   
    29   13   14 1   
    30   13   18 1   
    31   14   15 1   
    32   14   34 1   
    33   14   35 1   
    34   15   16 1   
    35   15   36 1   
    36   15   37 1   
    37   16   17 1   
    38   17   18 1   
    39   17   38 1   
    40   17   39 1   
    41   18   40 1   
    42   18   41 1   
    43   19   42 1   
@<TRIPOS>SUBSTRUCTURE
     1 CMZ         1 TEMP              0 ****  ****    0 ROOT
