@<TRIPOS>MOLECULE
CMZ
   42    43     1     0     0
SMALL
bcc


@<TRIPOS>ATOM
      1 C1          0.6280   -0.9050    0.4650 c3        1 CMZ     -0.054800
      2 C2          2.0050   -0.4130    0.2330 ca        1 CMZ     -0.047300
      3 C3          2.7450    0.1530    1.2740 ca        1 CMZ     -0.161000
      4 C4          4.0360    0.6270    1.0450 ca        1 CMZ     -0.099000
      5 C5          4.6180    0.5480   -0.2200 ca        1 CMZ     -0.108300
      6 C6          5.9840    1.0540   -0.4760 c3        1 CMZ     -0.040800
      7 C7          3.8620   -0.0260   -1.2690 ca        1 CMZ      0.128100
      8 O8          4.5050   -0.0590   -2.4920 os        1 CMZ     -0.328900
      9 C9          3.8170   -0.7500   -3.5400 c3        1 CMZ      0.136400
     10 C10         4.7150   -0.7170   -4.7790 c3        1 CMZ      0.141100
     11 O11         4.5490    0.5680   -5.3640 oh        1 CMZ     -0.594800
     12 C12         6.2040   -0.9630   -4.4580 c3        1 CMZ      0.147800
     13 N13         6.4320   -2.3030   -3.9450 n3        1 CMZ     -0.741600
     14 C14         7.3010   -3.1080   -4.7900 c3        1 CMZ      0.137300
     15 C15         7.5280   -4.5130   -4.2180 c3        1 CMZ      0.126400
     16 O16         7.9750   -4.4680   -2.8690 os        1 CMZ     -0.415600
     17 C17         7.0830   -3.7430   -2.0300 c3        1 CMZ      0.126400
     18 C18         6.8490   -2.3200   -2.5490 c3        1 CMZ      0.137300
     19 C19         2.5680   -0.5040   -1.0460 ca        1 CMZ     -0.202000
     20 H11         0.4510   -1.8640   -0.0830 hc        1 CMZ      0.044700
     21 H12         0.4390   -1.0790    1.5530 hc        1 CMZ      0.044700
     22 H13        -0.1130   -0.1510    0.0970 hc        1 CMZ      0.044700
     23 H3          2.3070    0.2260    2.2800 ha        1 CMZ      0.132000
     24 H4          4.6080    1.0710    1.8740 ha        1 CMZ      0.133000
     25 H61         5.9350    1.9960   -1.0790 hc        1 CMZ      0.044700
     26 H62         6.5690    0.3020   -1.0670 hc        1 CMZ      0.044700
     27 H63         6.5250    1.2660    0.4770 hc        1 CMZ      0.044700
     28 H91         2.8490   -0.2280   -3.7600 h1        1 CMZ      0.056200
     29 H92         3.6390   -1.8140   -3.2350 h1        1 CMZ      0.056200
     30 H10         4.3350   -1.4980   -5.4990 h1        1 CMZ      0.045700
     31 HO11        5.1800    0.6340   -6.0900 ho        1 CMZ      0.400000
     32 H121        6.5250   -0.1740   -3.7170 h1        1 CMZ      0.049200
     33 H122        6.7890   -0.7870   -5.4060 h1        1 CMZ      0.049200
     34 H141        6.8090   -3.2060   -5.7970 h1        1 CMZ      0.043700
     35 H142        8.3080   -2.6190   -4.9390 h1        1 CMZ      0.043700
     36 H151        6.5880   -5.1220   -4.2820 h1        1 CMZ      0.053450
     37 H152        8.3580   -5.0240   -4.7720 h1        1 CMZ      0.053450
     38 H171        7.5990   -3.7100   -1.0350 h1        1 CMZ      0.053450
     39 H172        6.1130   -4.3000   -1.9440 h1        1 CMZ      0.053450
     40 H181        6.0290   -1.8360   -1.9450 h1        1 CMZ      0.043700
     41 H182        7.7940   -1.7230   -2.3900 h1        1 CMZ      0.043700
     42 H19         1.9810   -0.9510   -1.8600 ha        1 CMZ      0.137000
@<TRIPOS>BOND
     1    1    2 1   
     2    1   20 1   
     3    1   21 1   
     4    1   22 1   
     5    2    3 ar  
     6    2   19 ar  
     7    3    4 ar  
     8    3   23 1   
     9    4    5 ar  
    10    4   24 1   
    11    5    6 1   
    12    5    7 ar  
    13    6   25 1   
    14    6   26 1   
    15    6   27 1   
    16    7    8 1   
    17    7   19 ar  
    18    8    9 1   
    19    9   10 1   
    20    9   28 1   
    21    9   29 1   
    22   10   11 1   
    23   10   12 1   
    24   10   30 1   
    25   11   31 1   
    26   12   13 1   
    27   12   32 1   
    28   12   33 1   
    29   13   14 1   
    30   13   18 1   
    31   14   15 1   
    32   14   34 1   
    33   14   35 1   
    34   15   16 1   
    35   15   36 1   
    36   15   37 1   
    37   16   17 1   
    38   17   18 1   
    39   17   38 1   
    40   17   39 1   
    41   18   40 1   
    42   18   41 1   
    43   19   42 1   
@<TRIPOS>SUBSTRUCTURE
     1 CMZ         1 TEMP              0 ****  ****    0 ROOT
