@<TRIPOS>MOLECULE
CMZ
   42    43     1     0     0
SMALL
bcc


@<TRIPOS>ATOM
      1 C1          0.0250    0.2440    0.2210 c3        1 CMZ     -0.054800
      2 C2          1.5000    0.2200    0.0960 ca        1 CMZ     -0.065300
      3 C3          2.3080    0.3580    1.2320 ca        1 CMZ     -0.137000
      4 C4          3.6940    0.3260    1.1220 ca        1 CMZ     -0.117000
      5 C5          4.3170    0.1500   -0.1190 ca        1 CMZ     -0.086300
      6 C6          5.7930    0.1090   -0.2160 c3        1 CMZ     -0.049800
      7 C7          3.4980    0.0190   -1.2550 ca        1 CMZ      0.102100
      8 O8          4.1060   -0.0430   -2.5040 os        1 CMZ     -0.364900
      9 C9          3.8580   -1.2760   -3.2000 c3        1 CMZ      0.100400
     10 C10         4.6230   -1.1810   -4.5210 c3        1 CMZ      0.145100
     11 O11         4.1830   -0.0760   -5.2890 oh        1 CMZ     -0.597800
     12 C12         6.1450   -1.0640   -4.2890 c3        1 CMZ      0.135800
     13 N13         6.7340   -2.3090   -3.8220 n3        1 CMZ     -0.733600
     14 C14         7.0940   -3.2060   -4.9130 c3        1 CMZ      0.134800
     15 C15         7.7520   -4.4970   -4.4140 c3        1 CMZ      0.126400
     16 O16         8.8550   -4.2270   -3.5560 os        1 CMZ     -0.414600
     17 C17         8.4880   -3.4110   -2.4500 c3        1 CMZ      0.126400
     18 C18         7.8430   -2.0950   -2.9010 c3        1 CMZ      0.134800
     19 C19         2.1020    0.0520   -1.1540 ca        1 CMZ     -0.155000
     20 H11        -0.2940    0.9600    1.0180 hc        1 CMZ      0.046033
     21 H12        -0.4570    0.5480   -0.7410 hc        1 CMZ      0.046033
     22 H13        -0.3510   -0.7740    0.4940 hc        1 CMZ      0.046033
     23 H3          1.8390    0.4940    2.2180 ha        1 CMZ      0.133000
     24 H4          4.3170    0.4400    2.0230 ha        1 CMZ      0.133000
     25 H61         6.1680   -0.9010    0.0910 hc        1 CMZ      0.047033
     26 H62         6.1310    0.3040   -1.2640 hc        1 CMZ      0.047033
     27 H63         6.2540    0.8740    0.4570 hc        1 CMZ      0.047033
     28 H91         4.2260   -2.1380   -2.5880 h1        1 CMZ      0.053200
     29 H92         2.7590   -1.3760   -3.3930 h1        1 CMZ      0.053200
     30 H10         4.3730   -2.0800   -5.1520 h1        1 CMZ      0.081700
     31 HO11        4.2830    0.7130   -4.7400 ho        1 CMZ      0.414000
     32 H121        6.6090   -0.7100   -5.2560 h1        1 CMZ      0.050700
     33 H122        6.3080   -0.2570   -3.5190 h1        1 CMZ      0.050700
     34 H141        7.7960   -2.7090   -5.6450 h1        1 CMZ      0.041700
     35 H142        6.1510   -3.4710   -5.4650 h1        1 CMZ      0.041700
     36 H151        8.1990   -5.0600   -5.2740 h1        1 CMZ      0.053450
     37 H152        7.0070   -5.1410   -3.8750 h1        1 CMZ      0.053450
     38 H171        9.4550   -3.2050   -1.9220 h1        1 CMZ      0.053450
     39 H172        7.7940   -3.9820   -1.7780 h1        1 CMZ      0.053450
     40 H181        7.4370   -1.5660   -1.9920 h1        1 CMZ      0.041700
     41 H182        8.6430   -1.4440   -3.3570 h1        1 CMZ      0.041700
     42 H19         1.4860   -0.0450   -2.0600 ha        1 CMZ      0.142000
@<TRIPOS>BOND
     1    1    2 1   
     2    1   20 1   
     3    1   21 1   
     4    1   22 1   
     5    2    3 ar  
     6    2   19 ar  
     7    3    4 ar  
     8    3   23 1   
     9    4    5 ar  
    10    4   24 1   
    11    5    6 1   
    12    5    7 ar  
    13    6   25 1   
    14    6   26 1   
    15    6   27 1   
    16    7    8 1   
    17    7   19 ar  
    18    8    9 1   
    19    9   10 1   
    20    9   28 1   
    21    9   29 1   
    22   10   11 1   
    23   10   12 1   
    24   10   30 1   
    25   11   31 1   
    26   12   13 1   
    27   12   32 1   
    28   12   33 1   
    29   13   14 1   
    30   13   18 1   
    31   14   15 1   
    32   14   34 1   
    33   14   35 1   
    34   15   16 1   
    35   15   36 1   
    36   15   37 1   
    37   16   17 1   
    38   17   18 1   
    39   17   38 1   
    40   17   39 1   
    41   18   40 1   
    42   18   41 1   
    43   19   42 1   
@<TRIPOS>SUBSTRUCTURE
     1 CMZ         1 TEMP              0 ****  ****    0 ROOT
