@<TRIPOS>MOLECULE
CN
    3     2     1     0     0
SMALL
bcc


@<TRIPOS>ATOM
      1 C1         -0.0390   -0.0000    0.0070 c1        1 CN       0.190300
      2 N1          1.1210   -0.0000   -0.0040 n1        1 CN      -0.371800
      3 H1         -1.1080    0.0000    0.0160 ha        1 CN       0.181500
@<TRIPOS>BOND
     1    1    2 3   
     2    1    3 1   
@<TRIPOS>SUBSTRUCTURE
     1 CN          1 TEMP              0 ****  ****    0 ROOT
