@<TRIPOS>MOLECULE
CN
    3     1     1     0     0
SMALL
bcc


@<TRIPOS>ATOM
      1 C1         -0.0550    0.0000   -0.0060 c1        1 CN       0.132800
      2 N1          1.0850    0.0000   -0.0060 n1        1 CN      -0.371800
      3 H1         -1.0310    0.0000    0.0110 DU        1 CN       0.239000
@<TRIPOS>BOND
     1    1    2 3   
@<TRIPOS>SUBSTRUCTURE
     1 CN          1 TEMP              0 ****  ****    0 ROOT
