@<TRIPOS>MOLECULE
CN
    3     2     1     0     0
SMALL
bcc


@<TRIPOS>ATOM
      1 C1         16.2070   28.4000    5.1320 c1        1 CN       0.190300
      2 N1         16.8160   27.4740    4.7890 n1        1 CN      -0.371800
      3 H1         15.6450   29.2530    5.4490 ha        1 CN       0.181500
@<TRIPOS>BOND
     1    1    2 3   
     2    1    3 1   
@<TRIPOS>SUBSTRUCTURE
     1 CN          1 TEMP              0 ****  ****    0 ROOT
