@<TRIPOS>MOLECULE
CN2
   55    49     1     0     0
SMALL
bcc


@<TRIPOS>ATOM
      1 O4          0.6600    1.1010    3.2780 o         1 CN2     -0.353000
      2 C12         1.7810    0.6970    3.3090 c1        1 CN2      0.298000
      3 C13         2.5680    0.7200    4.6270 c2        1 CN2     -0.300000
      4 S1          1.4780    1.2330    5.9650 sh        1 CN2     -0.006000
      5 N1          2.4130    0.2170    2.0950 n3        1 CN2     -0.369000
      6 C11         1.6500    0.2280    0.7800 c3        1 CN2      0.044000
      7 C14         1.0680   -1.1570    0.5330 c2        1 CN2      0.001000
      8 C15         1.6830   -2.1890    1.1560 c1        1 CN2     -0.232000
      9 C10         2.5130    0.5920   -0.2410 c3        1 CN2     -0.153000
     10 C9          1.9270    1.2050   -1.0650 c3        1 CN2     -0.122000
     11 C8          0.5910    1.3390   -0.6950 c2        1 CN2     -0.048000
     12 C7          0.1290    2.6970   -0.5490 c2        1 CN2     -0.136000
     13 C5         -1.0870    3.0610   -1.0460 c1        1 CN2      0.052000
     14 C3         -1.8770    2.1250   -1.6900 c1        1 CN2     -0.003000
     15 C1         -1.4230    0.8030   -1.8290 c1        1 CN2      0.080000
     16 O1         -2.2560   -0.1820   -2.4530 o         1 CN2     -0.219000
     17 C2         -3.4570   -0.4480   -1.7530 c3        1 CN2     -0.074500
     18 O2         -3.1780    2.4850   -2.1460 os        1 CN2     -0.226000
     19 C4         -3.2220    2.8640   -3.5040 c3        1 CN2     -0.077000
     20 O3         -1.4790    4.3980   -1.0110 os        1 CN2     -0.228000
     21 C6         -2.0430    4.7890    0.2020 c3        1 CN2     -0.078000
     22 C22        -0.1660    0.4350   -1.3140 c1        1 CN2     -0.064000
     23 C21         0.0470   -1.1520   -0.6360 c1        1 CN2     -0.047000
     24 C20        -0.5030   -2.1950   -1.3470 c1        1 CN2     -0.061000
     25 C19        -0.2520   -3.5640   -1.1650 c1        1 CN2     -0.149000
     26 C17         0.6630   -4.1860   -0.1660 c1        1 CN2      0.007000
     27 C16         1.5250   -3.5860    0.8670 c2        1 CN2      0.287000
     28 O5          2.1800   -4.3670    1.5550 o         1 CN2     -0.305000
     29 O6          1.1800   -5.5240   -0.3720 o         1 CN2     -0.219000
     30 C18         0.2290   -6.5570   -0.1130 c3        1 CN2     -0.074500
     31 H131        2.9200   -0.1840    4.8170 h4        1 CN2      0.148000
     32 H132        3.3000    1.3420    4.5530 h4        1 CN2      0.148000
     33 HS1         2.1250    1.4860    6.9310 hs        1 CN2      0.049000
     34 HN1         3.2740   -0.0340    2.1090 hn        1 CN2      0.233000
     35 H11         0.9200    0.8790    0.8320 h1        1 CN2      0.152000
     36 H15         2.2940   -1.9610    1.8730 DU        1 CN2      0.149667
     37 H101        2.8680   -0.1970   -0.6390 hc        1 CN2      0.092000
     38 H102        3.2010    1.1470    0.1220 hc        1 CN2      0.092000
     39 H91         2.3330    2.1170   -1.1400 hc        1 CN2      0.097500
     40 H92         1.9740    0.7000   -1.9430 hc        1 CN2      0.097500
     41 H7          0.6920    3.3610   -0.0890 ha        1 CN2      0.152000
     42 H21        -3.3490   -0.2030   -0.8180 h1        1 CN2      0.090167
     43 H22        -3.6690   -1.4080   -1.8190 h1        1 CN2      0.090167
     44 H23        -4.1730    0.0670   -2.1410 h1        1 CN2      0.090167
     45 H41        -3.7930    2.2730   -3.9790 h1        1 CN2      0.086667
     46 H42        -3.5660    3.7810   -3.5790 h1        1 CN2      0.086667
     47 H43        -2.3400    2.8230   -3.8750 h1        1 CN2      0.086667
     48 H61        -1.8560    4.0950    0.8970 h1        1 CN2      0.087000
     49 H62        -3.0000    4.8890    0.0950 h1        1 CN2      0.087000
     50 H63        -1.6490    5.6580    0.4870 h1        1 CN2      0.087000
     51 H20        -1.1480   -1.9520   -2.0680 DU        1 CN2      0.149667
     52 H19        -0.7330   -4.1840   -1.7650 DU        1 CN2      0.149667
     53 H181       -0.3000   -6.3260    0.7080 h1        1 CN2      0.090167
     54 H182        0.7010   -7.4100    0.0290 h1        1 CN2      0.090167
     55 H183       -0.3680   -6.6420   -0.8680 h1        1 CN2      0.090167
@<TRIPOS>BOND
     1    1    2 1   
     2    2    5 1   
     3    3    4 1   
     4    3   31 1   
     5    3   32 1   
     6    4   33 1   
     7    5    6 1   
     8    5   34 1   
     9    6    7 1   
    10    6    9 1   
    11    6   35 1   
    12    7    8 1   
    13    7   23 1   
    14    8   27 1   
    15    9   10 1   
    16    9   37 1   
    17    9   38 1   
    18   10   11 1   
    19   10   39 1   
    20   10   40 1   
    21   11   12 1   
    22   11   22 1   
    23   12   13 1   
    24   12   41 1   
    25   13   20 1   
    26   14   15 1   
    27   14   18 1   
    28   15   22 1   
    29   16   17 1   
    30   17   42 1   
    31   17   43 1   
    32   17   44 1   
    33   18   19 1   
    34   19   45 1   
    35   19   46 1   
    36   19   47 1   
    37   20   21 1   
    38   21   48 1   
    39   21   49 1   
    40   21   50 1   
    41   23   24 1   
    42   24   25 1   
    43   25   26 1   
    44   26   27 1   
    45   27   28 1   
    46   29   30 1   
    47   30   53 1   
    48   30   54 1   
    49   30   55 1   
@<TRIPOS>SUBSTRUCTURE
     1 CN2         1 TEMP              0 ****  ****    0 ROOT
