@<TRIPOS>MOLECULE
CN2
   56    58     1     0     0
SMALL
bcc


@<TRIPOS>ATOM
      1 O4          1.6370    1.8430    0.0820 o         1 CN2     -0.414100
      2 C12         1.6270    0.6520   -0.1950 c         1 CN2      0.551100
      3 C13         0.9320   -0.4600    0.5280 c3        1 CN2     -0.113300
      4 S1         -0.8050   -0.2540    0.5180 sh        1 CN2     -0.216900
      5 N1          2.4730    0.2950   -1.4030 n4        1 CN2     -0.685800
      6 C11         1.6550   -0.0540   -2.6290 c3        1 CN2      0.159700
      7 C14         1.2440   -1.5140   -2.7320 cc        1 CN2      0.006800
      8 C15         1.9110   -2.4670   -2.0450 cd        1 CN2     -0.293200
      9 C10         2.3810    0.4060   -3.9030 c3        1 CN2     -0.089400
     10 C9          1.5140    0.1960   -5.1340 c3        1 CN2     -0.032100
     11 C8          0.0630    0.4020   -4.8630 ca        1 CN2     -0.042300
     12 C7         -0.5980    1.5090   -5.3900 ca        1 CN2     -0.222000
     13 C5         -1.9660    1.6840   -5.1430 ca        1 CN2      0.156100
     14 C3         -2.6850    0.7380   -4.3750 ca        1 CN2      0.011100
     15 C1         -2.0110   -0.3830   -3.8540 ca        1 CN2      0.175100
     16 O1         -2.5900   -1.4010   -3.1350 os        1 CN2     -0.330900
     17 C2         -3.8850   -1.1870   -2.5720 c3        1 CN2      0.121700
     18 O2         -4.0060    0.9630   -4.0360 os        1 CN2     -0.330900
     19 C4         -4.9210    0.8990   -5.1350 c3        1 CN2      0.109700
     20 O3         -2.7040    2.7430   -5.6130 os        1 CN2     -0.308900
     21 C6         -2.0210    3.6890   -6.4340 c3        1 CN2      0.107700
     22 C22        -0.6230   -0.5440   -4.0840 ca        1 CN2     -0.149800
     23 C21         0.0980   -1.7310   -3.5880 cc        1 CN2     -0.065200
     24 C20        -0.3190   -2.9390   -4.0640 cd        1 CN2      0.006000
     25 C19         0.2390   -4.2390   -3.9150 cd        1 CN2     -0.230000
     26 C17         1.0800   -4.6630   -2.9390 cc        1 CN2      0.084900
     27 C16         1.4900   -3.8450   -1.7730 c         1 CN2      0.583500
     28 O5          1.5250   -4.2920   -0.6230 o         1 CN2     -0.483100
     29 O6          1.6340   -5.9120   -2.8570 os        1 CN2     -0.293900
     30 C18         1.3030   -6.8440   -3.8870 c3        1 CN2      0.102700
     31 H131        1.1190   -1.4670    0.0560 h1        1 CN2      0.143200
     32 H132        1.3590   -0.4910    1.5680 h1        1 CN2      0.143200
     33 HS1        -0.9420    0.6270    1.5000 hs        1 CN2      0.217800
     34 HN1         3.0540    1.1130   -1.6390 hn        1 CN2      0.455800
     35 H11         0.7040    0.5650   -2.5130 hx        1 CN2      0.140700
     36 H15         2.8810   -2.2770   -1.5480 ha        1 CN2      0.128000
     37 H101        3.3410   -0.1600   -4.0290 hc        1 CN2      0.065700
     38 H102        2.6280    1.4990   -3.8170 hc        1 CN2      0.065700
     39 H91         1.8680    0.8980   -5.9370 hc        1 CN2      0.078200
     40 H92         1.6640   -0.8510   -5.5180 hc        1 CN2      0.078200
     41 H7         -0.0450    2.2360   -6.0030 ha        1 CN2      0.151000
     42 H21        -4.0080   -2.0680   -1.8910 h1        1 CN2      0.057700
     43 H22        -3.9210   -0.2270   -2.0040 h1        1 CN2      0.057700
     44 H23        -4.6570   -1.1950   -3.3790 h1        1 CN2      0.057700
     45 H41        -4.6770    1.6790   -5.8960 h1        1 CN2      0.052700
     46 H42        -5.9110    1.1060   -4.6550 h1        1 CN2      0.052700
     47 H43        -4.9030   -0.1190   -5.5930 h1        1 CN2      0.052700
     48 H61        -2.8250    4.4240   -6.6940 h1        1 CN2      0.055033
     49 H62        -1.6200    3.1970   -7.3530 h1        1 CN2      0.055033
     50 H63        -1.2020    4.1870   -5.8590 h1        1 CN2      0.055033
     51 H20        -1.2180   -2.9160   -4.7210 ha        1 CN2      0.160000
     52 H19        -0.0960   -4.9650   -4.6830 ha        1 CN2      0.160000
     53 H181        1.8880   -7.7550   -3.5960 h1        1 CN2      0.062033
     54 H182        0.2060   -7.0590   -3.8810 h1        1 CN2      0.062033
     55 H183        1.6300   -6.4610   -4.8830 h1        1 CN2      0.062033
     56 H12         3.0980   -0.4760   -1.1530 hn        1 CN2      0.455800
@<TRIPOS>BOND
     1    1    2 2   
     2    2    3 1   
     3    2    5 1   
     4    3    4 1   
     5    3   31 1   
     6    3   32 1   
     7    4   33 1   
     8    5    6 1   
     9    5   34 1   
    10    5   56 1   
    11    6    7 1   
    12    6    9 1   
    13    6   35 1   
    14    7    8 2   
    15    7   23 1   
    16    8   27 1   
    17    8   36 1   
    18    9   10 1   
    19    9   37 1   
    20    9   38 1   
    21   10   11 1   
    22   10   39 1   
    23   10   40 1   
    24   11   12 ar  
    25   11   22 ar  
    26   12   13 ar  
    27   12   41 1   
    28   13   14 ar  
    29   13   20 1   
    30   14   15 ar  
    31   14   18 1   
    32   15   16 1   
    33   15   22 ar  
    34   16   17 1   
    35   17   42 1   
    36   17   43 1   
    37   17   44 1   
    38   18   19 1   
    39   19   45 1   
    40   19   46 1   
    41   19   47 1   
    42   20   21 1   
    43   21   48 1   
    44   21   49 1   
    45   21   50 1   
    46   22   23 1   
    47   23   24 2   
    48   24   25 1   
    49   24   51 1   
    50   25   26 2   
    51   25   52 1   
    52   26   27 1   
    53   26   29 1   
    54   27   28 2   
    55   29   30 1   
    56   30   53 1   
    57   30   54 1   
    58   30   55 1   
@<TRIPOS>SUBSTRUCTURE
     1 CN2         1 TEMP              0 ****  ****    0 ROOT
