@<TRIPOS>MOLECULE
CN2
   56    58     1     0     0
SMALL
bcc


@<TRIPOS>ATOM
      1 O4          2.5510    1.7700   -0.1860 o         1 CN2     -0.404100
      2 C12         1.8190    0.7980   -0.0680 c         1 CN2      0.545100
      3 C13         0.6370    0.6600    0.8410 c3        1 CN2     -0.114300
      4 S1         -0.8690    0.7270   -0.0550 sh        1 CN2     -0.254900
      5 N1          2.1510   -0.3890   -0.9380 ny        1 CN2     -0.674800
      6 C11         1.4730   -0.3090   -2.2910 c3        1 CN2      0.146700
      7 C14         1.4010   -1.6610   -2.9780 cc        1 CN2     -0.020200
      8 C15         2.4560   -2.4980   -2.9020 cd        1 CN2     -0.259200
      9 C10         2.1720    0.6860   -3.2270 c3        1 CN2     -0.086400
     10 C9          1.5880    0.5660   -4.6270 c3        1 CN2     -0.036100
     11 C8          0.0980    0.5070   -4.6060 ca        1 CN2     -0.036300
     12 C7         -0.6160    1.6210   -5.0500 ca        1 CN2     -0.222000
     13 C5         -2.0130    1.6220   -5.0040 ca        1 CN2      0.152100
     14 C3         -2.7080    0.5030   -4.4890 ca        1 CN2      0.010100
     15 C1         -1.9820   -0.6190   -4.0490 ca        1 CN2      0.165100
     16 O1         -2.5540   -1.7630   -3.5400 os        1 CN2     -0.339900
     17 C2         -3.8820   -1.6860   -3.0190 c3        1 CN2      0.123700
     18 O2         -4.0790    0.5530   -4.3080 os        1 CN2     -0.334900
     19 C4         -4.8350    0.5460   -5.5250 c3        1 CN2      0.110700
     20 O3         -2.8010    2.6660   -5.4240 os        1 CN2     -0.308900
     21 C6         -2.1330    3.7630   -6.0450 c3        1 CN2      0.106700
     22 C22        -0.5640   -0.6380   -4.1280 ca        1 CN2     -0.129800
     23 C21         0.1920   -1.8470   -3.7550 cc        1 CN2     -0.064200
     24 C20        -0.2800   -3.0610   -4.1530 cd        1 CN2     -0.003000
     25 C19         0.2120   -4.3670   -3.8570 cd        1 CN2     -0.229000
     26 C17         1.4900   -4.7110   -3.5660 cc        1 CN2      0.068900
     27 C16         2.6440   -3.7780   -3.5950 c         1 CN2      0.577500
     28 O5          3.7210   -4.0720   -4.1170 o         1 CN2     -0.463100
     29 O6          1.9180   -5.9750   -3.2540 os        1 CN2     -0.297900
     30 C18         0.9490   -7.0230   -3.2990 c3        1 CN2      0.103700
     31 H131        0.6540   -0.3260    1.3810 h1        1 CN2      0.140700
     32 H132        0.7150    1.4640    1.6230 h1        1 CN2      0.140700
     33 HS1        -1.1190    2.0310   -0.0090 hs        1 CN2      0.238800
     34 HN1         3.1700   -0.4240   -1.0800 hn        1 CN2      0.459300
     35 H11         0.4130    0.0570   -2.0620 hx        1 CN2      0.150700
     36 H15         3.3640   -2.2270   -2.3320 ha        1 CN2      0.131000
     37 H101        3.2740    0.4770   -3.2790 hc        1 CN2      0.069700
     38 H102        2.0340    1.7280   -2.8340 hc        1 CN2      0.069700
     39 H91         1.9910   -0.3580   -5.1260 hc        1 CN2      0.081200
     40 H92         1.9400    1.4470   -5.2290 hc        1 CN2      0.081200
     41 H7         -0.0730    2.4940   -5.4400 ha        1 CN2      0.151000
     42 H21        -4.0080   -0.7920   -2.3630 h1        1 CN2      0.056033
     43 H22        -3.9770   -2.6360   -2.4330 h1        1 CN2      0.056033
     44 H23        -4.6160   -1.6610   -3.8610 h1        1 CN2      0.056033
     45 H41        -5.8930    0.6060   -5.1680 h1        1 CN2      0.052700
     46 H42        -4.5750    1.4320   -6.1520 h1        1 CN2      0.052700
     47 H43        -4.6530   -0.4020   -6.0840 h1        1 CN2      0.052700
     48 H61        -1.5610    3.4230   -6.9410 h1        1 CN2      0.055367
     49 H62        -2.9770    4.4370   -6.3420 h1        1 CN2      0.055367
     50 H63        -1.4600    4.2740   -5.3140 h1        1 CN2      0.055367
     51 H20        -1.2190   -3.0700   -4.7500 ha        1 CN2      0.166000
     52 H19        -0.5570   -5.1620   -3.9200 ha        1 CN2      0.159000
     53 H181        1.5490   -7.9300   -3.0270 h1        1 CN2      0.060033
     54 H182        0.1410   -6.8410   -2.5510 h1        1 CN2      0.060033
     55 H183        0.5260   -7.1220   -4.3280 h1        1 CN2      0.060033
     56 H12         1.8510   -1.2560   -0.4800 hn        1 CN2      0.459300
@<TRIPOS>BOND
     1    1    2 2   
     2    2    3 1   
     3    2    5 1   
     4    3    4 1   
     5    3   31 1   
     6    3   32 1   
     7    4   33 1   
     8    5    6 1   
     9    5   34 1   
    10    5   56 1   
    11    6    7 1   
    12    6    9 1   
    13    6   35 1   
    14    7    8 2   
    15    7   23 1   
    16    8   27 1   
    17    8   36 1   
    18    9   10 1   
    19    9   37 1   
    20    9   38 1   
    21   10   11 1   
    22   10   39 1   
    23   10   40 1   
    24   11   12 ar  
    25   11   22 ar  
    26   12   13 ar  
    27   12   41 1   
    28   13   14 ar  
    29   13   20 1   
    30   14   15 ar  
    31   14   18 1   
    32   15   16 1   
    33   15   22 ar  
    34   16   17 1   
    35   17   42 1   
    36   17   43 1   
    37   17   44 1   
    38   18   19 1   
    39   19   45 1   
    40   19   46 1   
    41   19   47 1   
    42   20   21 1   
    43   21   48 1   
    44   21   49 1   
    45   21   50 1   
    46   22   23 1   
    47   23   24 2   
    48   24   25 1   
    49   24   51 1   
    50   25   26 2   
    51   25   52 1   
    52   26   27 1   
    53   26   29 1   
    54   27   28 2   
    55   29   30 1   
    56   30   53 1   
    57   30   54 1   
    58   30   55 1   
@<TRIPOS>SUBSTRUCTURE
     1 CN2         1 TEMP              0 ****  ****    0 ROOT
