@<TRIPOS>MOLECULE
CN2
   55    57     1     0     0
SMALL
bcc


@<TRIPOS>ATOM
      1 O4         -2.5460   -1.3390    1.5580 o         1 CN2     -0.599100
      2 C12        -2.4720   -0.4340    2.4130 c         1 CN2      0.659100
      3 C13        -3.1270   -0.6150    3.7680 c3        1 CN2     -0.091300
      4 S1         -3.6930    0.8490    4.5640 sh        1 CN2     -0.348900
      5 N1         -1.8120    0.7520    2.1800 n         1 CN2     -0.564900
      6 C11        -1.0500    0.9950    0.9790 c3        1 CN2      0.127900
      7 C14         0.4640    0.8840    1.1550 cc        1 CN2     -0.006200
      8 C15         1.0390    1.3630    2.2760 cd        1 CN2     -0.253200
      9 C10        -1.3410    2.3840    0.3740 c3        1 CN2     -0.079400
     10 C9         -0.3520    2.7170   -0.7310 c3        1 CN2     -0.040100
     11 C8         -0.1900    1.5860   -1.6890 ca        1 CN2     -0.032300
     12 C7         -0.7480    1.7050   -2.9630 ca        1 CN2     -0.202000
     13 C5         -0.6770    0.6430   -3.8700 ca        1 CN2      0.121100
     14 C3         -0.0580   -0.5650   -3.4860 ca        1 CN2      0.043100
     15 C1          0.5170   -0.6700   -2.2060 ca        1 CN2      0.132100
     16 O1          1.1840   -1.8350   -1.8590 os        1 CN2     -0.346900
     17 C2          0.3150   -2.9510   -1.6320 c3        1 CN2      0.113700
     18 O2         -0.1030   -1.6900   -4.2920 os        1 CN2     -0.327900
     19 C4          0.7240   -1.6010   -5.4540 c3        1 CN2      0.117700
     20 O3         -1.1690    0.6830   -5.1580 os        1 CN2     -0.317900
     21 C6         -1.8900    1.8560   -5.5210 c3        1 CN2      0.111700
     22 C22         0.4860    0.4130   -1.3000 ca        1 CN2     -0.080800
     23 C21         1.1630    0.3310    0.0060 cc        1 CN2     -0.043200
     24 C20         2.3850   -0.2620    0.0630 cd        1 CN2     -0.050000
     25 C19         3.2120   -0.5150    1.2010 cd        1 CN2     -0.212000
     26 C17         3.2490    0.2010    2.3470 cc        1 CN2      0.044900
     27 C16         2.4620    1.4380    2.6030 c         1 CN2      0.584500
     28 O5          2.9730    2.4380    3.1160 o         1 CN2     -0.506100
     29 O6          4.0520   -0.0810    3.4300 os        1 CN2     -0.304900
     30 C18         4.8610   -1.2500    3.3420 c3        1 CN2      0.106700
     31 H131       -3.9530   -1.3610    3.6490 h1        1 CN2      0.109200
     32 H132       -2.3660   -1.0530    4.4650 h1        1 CN2      0.109200
     33 HS1        -4.7230    1.1460    3.7890 hs        1 CN2      0.208800
     34 HN1        -1.7730    1.4290    2.9080 hn        1 CN2      0.325500
     35 H11        -1.3740    0.2040    0.2300 h1        1 CN2      0.110700
     36 H15         0.4190    1.8150    3.0730 ha        1 CN2      0.147000
     37 H101       -2.3850    2.3890   -0.0320 hc        1 CN2      0.052700
     38 H102       -1.2740    3.1770    1.1640 hc        1 CN2      0.052700
     39 H91        -0.7120    3.6350   -1.2680 hc        1 CN2      0.060700
     40 H92         0.6470    2.9690   -0.2810 hc        1 CN2      0.060700
     41 H7         -1.2530    2.6410   -3.2440 ha        1 CN2      0.142000
     42 H21         1.0220   -3.7810   -1.3820 h1        1 CN2      0.051367
     43 H22        -0.3690   -2.7370   -0.7760 h1        1 CN2      0.051367
     44 H23        -0.2670   -3.1850   -2.5550 h1        1 CN2      0.051367
     45 H41         0.5520   -2.5780   -5.9710 h1        1 CN2      0.044367
     46 H42         0.4010   -0.7470   -6.0970 h1        1 CN2      0.044367
     47 H43         1.7950   -1.4890   -5.1600 h1        1 CN2      0.044367
     48 H61        -2.2260    1.6380   -6.5670 h1        1 CN2      0.047033
     49 H62        -2.7690    2.0050   -4.8480 h1        1 CN2      0.047033
     50 H63        -1.2220    2.7500   -5.4990 h1        1 CN2      0.047033
     51 H20         2.8070   -0.6640   -0.8830 ha        1 CN2      0.154000
     52 H19         3.8990   -1.3730    1.0740 ha        1 CN2      0.142000
     53 H181        5.3730   -1.2810    4.3380 h1        1 CN2      0.048700
     54 H182        4.2290   -2.1580    3.1930 h1        1 CN2      0.048700
     55 H183        5.6070   -1.1490    2.5180 h1        1 CN2      0.048700
@<TRIPOS>BOND
     1    1    2 2   
     2    2    3 1   
     3    2    5 1   
     4    3    4 1   
     5    3   31 1   
     6    3   32 1   
     7    4   33 1   
     8    5    6 1   
     9    5   34 1   
    10    6    7 1   
    11    6    9 1   
    12    6   35 1   
    13    7    8 2   
    14    7   23 1   
    15    8   27 1   
    16    8   36 1   
    17    9   10 1   
    18    9   37 1   
    19    9   38 1   
    20   10   11 1   
    21   10   39 1   
    22   10   40 1   
    23   11   12 ar  
    24   11   22 ar  
    25   12   13 ar  
    26   12   41 1   
    27   13   14 ar  
    28   13   20 1   
    29   14   15 ar  
    30   14   18 1   
    31   15   16 1   
    32   15   22 ar  
    33   16   17 1   
    34   17   42 1   
    35   17   43 1   
    36   17   44 1   
    37   18   19 1   
    38   19   45 1   
    39   19   46 1   
    40   19   47 1   
    41   20   21 1   
    42   21   48 1   
    43   21   49 1   
    44   21   50 1   
    45   22   23 1   
    46   23   24 2   
    47   24   25 1   
    48   24   51 1   
    49   25   26 2   
    50   25   52 1   
    51   26   27 1   
    52   26   29 1   
    53   27   28 2   
    54   29   30 1   
    55   30   53 1   
    56   30   54 1   
    57   30   55 1   
@<TRIPOS>SUBSTRUCTURE
     1 CN2         1 TEMP              0 ****  ****    0 ROOT
