@<TRIPOS>MOLECULE
CN5
   91    88     1     0     0
SMALL
bcc


@<TRIPOS>ATOM
      1 P          -3.6350    5.9000   -1.3270 p3        1 CN5      2.531000
      2 O11        -2.8800    6.0750    0.0540 os        1 CN5     -0.730000
      3 O12        -4.3600    7.1880   -1.6730 os        1 CN5     -1.145000
      4 O13        -2.5720    5.5610   -2.4790 os        1 CN5     -0.745000
      5 O14        -4.6400    4.7660   -1.2170 o         1 CN5     -1.154000
      6 C1         -3.4990    5.5860    1.2280 c3        1 CN5      0.053000
      7 C2         -2.7270    6.0470    2.4270 c3        1 CN5     -0.192000
      8 C3         -2.9720    5.0950    3.5830 c3        1 CN5     -0.006000
      9 O31        -1.7300    4.7280    4.1630 os        1 CN5     -0.274000
     10 O32        -2.9260    4.1170    6.0290 o         1 CN5     -0.372000
     11 C31        -1.8360    4.2460    5.5160 c2        1 CN5      0.298000
     12 C32        -0.5530    4.0440    6.3660 c3        1 CN5     -0.161000
     13 C33        -0.4650    2.5780    6.8230 c3        1 CN5     -0.157000
     14 C34         1.0460    2.1880    7.0470 c3        1 CN5     -0.156000
     15 C35         1.1370    0.6980    7.4870 c3        1 CN5     -0.155000
     16 C36         2.2430   -0.0190    6.6700 c3        1 CN5     -0.160000
     17 C37         2.2590   -1.4900    7.0290 c3        1 CN5     -0.156000
     18 C38         2.4230   -2.3380    5.7390 c3        1 CN5     -0.159000
     19 C39         2.3820   -3.8290    6.0970 c3        1 CN5     -0.157000
     20 C3A         2.6120   -4.6650    4.8260 c3        1 CN5     -0.158000
     21 C3B         1.7850   -5.9800    4.9110 c3        1 CN5     -0.157000
     22 C3C         2.2040   -6.9260    3.7710 c3        1 CN5     -0.158000
     23 C3D         0.9460   -7.5990    3.1670 c3        1 CN5     -0.157000
     24 C3E         1.3790   -8.6120    2.0650 c3        1 CN5     -0.159000
     25 C3F         0.1630   -9.0950    1.3260 c3        1 CN5     -0.209000
     26 P'         -1.5520    2.4890   -7.6560 p3        1 CN5      2.532000
     27 O1'        -0.3680    1.3910   -7.8040 os        1 CN5     -0.735000
     28 O2'        -1.5790    3.3750   -8.8950 o         1 CN5     -1.146500
     29 O3'        -1.2900    3.3860   -6.3680 o         1 CN5     -0.752000
     30 O4'        -2.8870    1.7790   -7.5130 o         1 CN5     -1.146500
     31 C1'        -0.1890    0.7470   -9.0760 c3        1 CN5      0.049000
     32 C2'         0.7100   -0.5170   -8.9000 c3        1 CN5     -0.208000
     33 C3'         1.0960   -1.0610  -10.2720 c3        1 CN5     -0.001000
     34 O41         2.2340   -1.8760  -10.1480 os        1 CN5     -0.262000
     35 O42         2.2350   -2.0710  -12.4370 o         1 CN5     -0.389000
     36 C41         2.6520   -2.4890  -11.3820 c2        1 CN5      0.301000
     37 C42         3.5730   -3.6930  -11.3560 c3        1 CN5     -0.220000
     38 CA         -2.3720    4.1900   -5.8650 c3        1 CN5      0.004000
     39 CB         -1.8750    5.0650   -4.7560 c3        1 CN5      0.005000
     40 OA         -1.3180    6.2270   -5.2960 oh        1 CN5     -0.350000
     41 CC         -3.0460    5.4360   -3.8370 c3        1 CN5      0.006000
     42 H1         -3.5120    4.6120    1.2060 h1        1 CN5      0.067000
     43 H1A        -4.4160    5.9240    1.2800 h1        1 CN5      0.067000
     44 H2         -1.7720    6.0640    2.2150 hc        1 CN5      0.097000
     45 H2A        -3.0270    6.9620    2.6830 hc        1 CN5      0.097000
     46 H3         -3.5340    5.5370    4.2610 h1        1 CN5      0.089000
     47 H3A        -3.4310    4.2870    3.2510 h1        1 CN5      0.089000
     48 H32         0.2350    4.2660    5.8270 hc        1 CN5      0.111500
     49 H32A       -0.5870    4.6250    7.1460 hc        1 CN5      0.111500
     50 H33        -0.9620    2.4670    7.6670 hc        1 CN5      0.095000
     51 H33A       -0.8540    1.9970    6.1350 hc        1 CN5      0.095000
     52 H34         1.5450    2.3130    6.2080 hc        1 CN5      0.077500
     53 H34A        1.4310    2.7590    7.7440 hc        1 CN5      0.077500
     54 H35         1.3570    0.6520    8.4510 hc        1 CN5      0.075500
     55 H35A        0.2750    0.2570    7.3270 hc        1 CN5      0.075500
     56 H36         2.0620    0.0810    5.7240 hc        1 CN5      0.083500
     57 H36A        3.1150    0.3770    6.8790 hc        1 CN5      0.083500
     58 H37         1.4160   -1.7270    7.4710 hc        1 CN5      0.075500
     59 H37A        3.0080   -1.6700    7.6340 hc        1 CN5      0.075500
     60 H38         3.2890   -2.1260    5.3130 hc        1 CN5      0.081500
     61 H38A        1.6890   -2.1310    5.1130 hc        1 CN5      0.081500
     62 H39         3.0850   -4.0280    6.7500 hc        1 CN5      0.076500
     63 H39A        1.5080   -4.0500    6.4810 hc        1 CN5      0.076500
     64 H3AA        2.3280   -4.1510    4.0430 hc        1 CN5      0.080500
     65 H3AB        3.5650   -4.8840    4.7460 hc        1 CN5      0.080500
     66 H3B         0.8310   -5.7720    4.8290 hc        1 CN5      0.077000
     67 H3BA        1.9520   -6.4140    5.7720 hc        1 CN5      0.077000
     68 H3C         2.8030   -7.6140    4.1230 hc        1 CN5      0.079500
     69 H3CA        2.6660   -6.4180    3.0780 hc        1 CN5      0.079500
     70 H3D         0.3640   -6.9120    2.7700 hc        1 CN5      0.077000
     71 H3DA        0.4540   -8.0760    3.8770 hc        1 CN5      0.077000
     72 H3E         1.8290   -9.3680    2.4780 hc        1 CN5      0.078500
     73 H3EA        1.9890   -8.1720    1.4380 hc        1 CN5      0.078500
     74 H3F        -0.5860   -9.1630    1.9440 hc        1 CN5      0.069667
     75 H3FA       -0.0600   -8.4600    0.6120 hc        1 CN5      0.069667
     76 H3FB        0.3450   -9.9790    0.9340 hc        1 CN5      0.069667
     77 H1'        -1.0530    0.4830   -9.4280 h1        1 CN5      0.061500
     78 H1'A        0.2390    1.3660   -9.6960 h1        1 CN5      0.061500
     79 H2'         1.5230   -0.2750   -8.4030 hc        1 CN5      0.113000
     80 H2'A        0.2160   -1.2040   -8.4040 hc        1 CN5      0.113000
     81 H3'         0.3630   -1.5830  -10.6310 h1        1 CN5      0.080500
     82 H3'A        1.2940   -0.3100  -10.8800 h1        1 CN5      0.080500
     83 H42         3.6320   -4.0810  -12.2590 hc        1 CN5      0.107333
     84 H42A        3.2160   -4.3660  -10.7320 hc        1 CN5      0.107333
     85 H42B        4.4600   -3.4170  -11.0630 hc        1 CN5      0.107333
     86 HA         -2.7230    4.7450   -6.5810 h1        1 CN5      0.074500
     87 HAA        -3.0780    3.6100   -5.5290 h1        1 CN5      0.074500
     88 HB         -1.1800    4.5750   -4.2300 h1        1 CN5      0.105000
     89 HOA        -1.9550    6.7270   -5.6330 ho        1 CN5      0.213000
     90 HC         -3.7330    4.7330   -3.8810 h1        1 CN5      0.080500
     91 HCA        -3.4310    6.2880   -4.1270 h1        1 CN5      0.080500
@<TRIPOS>BOND
     1    1    2 1   
     2    1    4 1   
     3    1    5 1   
     4    2    6 1   
     5    4   41 1   
     6    6    7 1   
     7    6   42 1   
     8    6   43 1   
     9    7    8 1   
    10    7   44 1   
    11    7   45 1   
    12    8    9 1   
    13    8   46 1   
    14    8   47 1   
    15    9   11 1   
    16   10   11 1   
    17   11   12 1   
    18   12   13 1   
    19   12   48 1   
    20   12   49 1   
    21   13   14 1   
    22   13   50 1   
    23   13   51 1   
    24   14   15 1   
    25   14   52 1   
    26   14   53 1   
    27   15   16 1   
    28   15   54 1   
    29   15   55 1   
    30   16   17 1   
    31   16   56 1   
    32   16   57 1   
    33   17   18 1   
    34   17   58 1   
    35   17   59 1   
    36   18   19 1   
    37   18   60 1   
    38   18   61 1   
    39   19   20 1   
    40   19   62 1   
    41   19   63 1   
    42   20   21 1   
    43   20   64 1   
    44   20   65 1   
    45   21   22 1   
    46   21   66 1   
    47   21   67 1   
    48   22   23 1   
    49   22   68 1   
    50   22   69 1   
    51   23   24 1   
    52   23   70 1   
    53   23   71 1   
    54   24   25 1   
    55   24   72 1   
    56   24   73 1   
    57   25   74 1   
    58   25   75 1   
    59   25   76 1   
    60   26   27 1   
    61   26   28 1   
    62   26   30 1   
    63   27   31 1   
    64   29   38 1   
    65   31   32 1   
    66   31   77 1   
    67   31   78 1   
    68   32   33 1   
    69   32   79 1   
    70   32   80 1   
    71   33   34 1   
    72   33   81 1   
    73   33   82 1   
    74   34   36 1   
    75   35   36 1   
    76   36   37 1   
    77   37   83 1   
    78   37   84 1   
    79   37   85 1   
    80   38   39 1   
    81   38   86 1   
    82   38   87 1   
    83   39   40 1   
    84   39   41 1   
    85   39   88 1   
    86   40   89 1   
    87   41   90 1   
    88   41   91 1   
@<TRIPOS>SUBSTRUCTURE
     1 CN5         1 TEMP              0 ****  ****    0 ROOT
