@<TRIPOS>MOLECULE
CN5
   91    90     1     0     0
SMALL
bcc


@<TRIPOS>ATOM
      1 P           2.2200   -4.0130    1.2140 p5        1 CN5      1.423800
      2 O11         1.7140   -2.4290    1.2660 os        1 CN5     -0.574200
      3 O12         2.7910   -4.3300    2.5350 o         1 CN5     -0.827000
      4 O13         3.4210   -3.7440    0.1280 os        1 CN5     -0.591200
      5 O14         1.1570   -4.7770    0.5310 o         1 CN5     -0.827000
      6 C1          0.8560   -2.0090    0.2580 c3        1 CN5      0.196400
      7 C2         -0.4800   -1.5730    0.8630 c3        1 CN5     -0.112400
      8 C3         -1.3660   -0.9900   -0.2150 c3        1 CN5      0.143400
      9 O31        -2.5820   -0.5780    0.4520 os        1 CN5     -0.435900
     10 O32        -3.3680    0.1260   -1.5270 o         1 CN5     -0.562000
     11 C31        -3.5510   -0.0160   -0.3140 c         1 CN5      0.627100
     12 C32        -4.7540    0.3870    0.4870 c3        1 CN5     -0.131400
     13 C33        -6.0280    0.1710   -0.3000 c3        1 CN5     -0.078400
     14 C34        -7.2260    0.7090    0.4530 c3        1 CN5     -0.078400
     15 C35        -8.5060    0.4790   -0.3220 c3        1 CN5     -0.079400
     16 C36        -9.7060    1.0200    0.4250 c3        1 CN5     -0.078400
     17 C37       -10.9860    0.7890   -0.3500 c3        1 CN5     -0.079400
     18 C38       -12.1860    1.3300    0.3970 c3        1 CN5     -0.078400
     19 C39       -13.4650    1.0990   -0.3780 c3        1 CN5     -0.079400
     20 C3A       -14.6660    1.6400    0.3680 c3        1 CN5     -0.078400
     21 C3B       -15.9450    1.4090   -0.4060 c3        1 CN5     -0.079400
     22 C3C       -17.1460    1.9500    0.3400 c3        1 CN5     -0.079400
     23 C3D       -18.4250    1.7190   -0.4350 c3        1 CN5     -0.079400
     24 C3E       -19.6270    2.2600    0.3110 c3        1 CN5     -0.080400
     25 C3F       -20.9030    2.0320   -0.4570 c3        1 CN5     -0.092100
     26 P'          8.9620   -1.7100   -0.9820 p5        1 CN5      1.419800
     27 O1'         8.8820   -0.0570   -0.7680 os        1 CN5     -0.563200
     28 O2'         9.6250   -1.9300   -2.2830 o         1 CN5     -0.838500
     29 O4'         9.4570   -2.2510    0.3010 o         1 CN5     -0.838500
     30 C1'        10.1580    0.4900   -0.6750 c3        1 CN5      0.179400
     31 C2'        10.0380    1.9950   -0.4830 c3        1 CN5     -0.093400
     32 C3'        11.4150    2.6150   -0.3900 c3        1 CN5      0.141400
     33 O41        11.2000    4.0300   -0.1890 os        1 CN5     -0.434900
     34 O42        13.4240    4.3140   -0.1590 o         1 CN5     -0.566000
     35 C41        12.2990    4.8170   -0.0740 c         1 CN5      0.627100
     36 C42        11.9650    6.2530    0.1560 c3        1 CN5     -0.151100
     37 CA          6.6530   -1.8450    0.0740 c3        1 CN5      0.170400
     38 CB          5.1640   -2.1200   -0.1790 c3        1 CN5      0.118100
     39 OA          4.4680   -0.9380    0.2100 oh        1 CN5     -0.629800
     40 CC          4.6730   -3.3450    0.6100 c3        1 CN5      0.152400
     41 H1          1.3220   -1.1210   -0.2600 h1        1 CN5      0.030700
     42 H1A         0.6880   -2.8330   -0.4910 h1        1 CN5      0.030700
     43 H2         -0.9840   -2.4530    1.3380 hc        1 CN5      0.057200
     44 H2A        -0.2970   -0.8160    1.6670 hc        1 CN5      0.057200
     45 H3         -0.9090   -0.0910   -0.7030 h1        1 CN5      0.049700
     46 H3A        -1.6300   -1.7450   -1.0000 h1        1 CN5      0.049700
     47 H32        -4.7790   -0.1970    1.4450 hc        1 CN5      0.072200
     48 H32A       -4.6340    1.4720    0.7500 hc        1 CN5      0.072200
     49 H33        -5.9400    0.6790   -1.2970 hc        1 CN5      0.056700
     50 H33A       -6.1650   -0.9240   -0.4990 hc        1 CN5      0.056700
     51 H34        -7.2980    0.2090    1.4550 hc        1 CN5      0.038200
     52 H34A       -7.0920    1.8070    0.6400 hc        1 CN5      0.038200
     53 H35        -8.4310    0.9750   -1.3260 hc        1 CN5      0.042200
     54 H35A       -8.6410   -0.6200   -0.5070 hc        1 CN5      0.042200
     55 H36        -9.7790    0.5230    1.4280 hc        1 CN5      0.038200
     56 H36A       -9.5700    2.1180    0.6090 hc        1 CN5      0.038200
     57 H37       -10.9120    1.2850   -1.3530 hc        1 CN5      0.040200
     58 H37A      -11.1200   -0.3090   -0.5340 hc        1 CN5      0.040200
     59 H38       -12.2590    0.8340    1.4000 hc        1 CN5      0.038200
     60 H38A      -12.0500    2.4290    0.5810 hc        1 CN5      0.038200
     61 H39       -13.3920    1.5950   -1.3820 hc        1 CN5      0.039200
     62 H39A      -13.6000    0.0010   -0.5620 hc        1 CN5      0.039200
     63 H3AA      -14.7390    1.1440    1.3720 hc        1 CN5      0.038700
     64 H3AB      -14.5300    2.7390    0.5520 hc        1 CN5      0.038700
     65 H3B       -15.8720    1.9050   -1.4100 hc        1 CN5      0.039200
     66 H3BA      -16.0800    0.3110   -0.5900 hc        1 CN5      0.039200
     67 H3C       -17.2190    1.4540    1.3440 hc        1 CN5      0.038700
     68 H3CA      -17.0100    3.0490    0.5240 hc        1 CN5      0.038700
     69 H3D       -18.3520    2.2150   -1.4380 hc        1 CN5      0.039200
     70 H3DA      -18.5610    0.6210   -0.6190 hc        1 CN5      0.039200
     71 H3E       -19.6970    1.7640    1.3150 hc        1 CN5      0.037700
     72 H3EA      -19.4890    3.3580    0.4950 hc        1 CN5      0.037700
     73 H3F       -21.7760    2.4380    0.1100 hc        1 CN5      0.031033
     74 H3FA      -20.8610    2.5400   -1.4510 hc        1 CN5      0.031033
     75 H3FB      -21.0700    0.9410   -0.6290 hc        1 CN5      0.031033
     76 H1'        10.6950    0.0210    0.1980 h1        1 CN5      0.023700
     77 H1'A       10.7280    0.2550   -1.6190 h1        1 CN5      0.023700
     78 H2'         9.4700    2.4380   -1.3400 hc        1 CN5      0.057700
     79 H2'A        9.4530    2.2080    0.4490 hc        1 CN5      0.057700
     80 H3'        12.0010    2.2190    0.4790 h1        1 CN5      0.048200
     81 H3'A       12.0080    2.4760   -1.3310 h1        1 CN5      0.048200
     82 H42        12.6820    6.8940   -0.4100 hc        1 CN5      0.065700
     83 H42A       10.9210    6.4730   -0.1720 hc        1 CN5      0.065700
     84 H42B       12.0580    6.4720    1.2480 hc        1 CN5      0.065700
     85 HA          7.0790   -2.5580    0.8320 h1        1 CN5      0.041700
     86 HAA         6.7960   -0.7910    0.4400 h1        1 CN5      0.041700
     87 HB          4.9900   -2.2950   -1.2780 h1        1 CN5      0.058700
     88 HOA         3.5360   -1.1750    0.2890 ho        1 CN5      0.410000
     89 HC          4.6080   -3.1130    1.7080 h1        1 CN5      0.041700
     90 HCA         5.4070   -4.1830    0.4420 h1        1 CN5      0.041700
     91 O3'         7.3600   -1.9980   -1.1280 os        1 CN5     -0.562200
@<TRIPOS>BOND
     1    1    2 1   
     2    1    3 1   
     3    1    4 1   
     4    1    5 1   
     5    2    6 1   
     6    4   40 1   
     7    6    7 1   
     8    6   41 1   
     9    6   42 1   
    10    7    8 1   
    11    7   43 1   
    12    7   44 1   
    13    8    9 1   
    14    8   45 1   
    15    8   46 1   
    16    9   11 1   
    17   10   11 2   
    18   11   12 1   
    19   12   13 1   
    20   12   47 1   
    21   12   48 1   
    22   13   14 1   
    23   13   49 1   
    24   13   50 1   
    25   14   15 1   
    26   14   51 1   
    27   14   52 1   
    28   15   16 1   
    29   15   53 1   
    30   15   54 1   
    31   16   17 1   
    32   16   55 1   
    33   16   56 1   
    34   17   18 1   
    35   17   57 1   
    36   17   58 1   
    37   18   19 1   
    38   18   59 1   
    39   18   60 1   
    40   19   20 1   
    41   19   61 1   
    42   19   62 1   
    43   20   21 1   
    44   20   63 1   
    45   20   64 1   
    46   21   22 1   
    47   21   65 1   
    48   21   66 1   
    49   22   23 1   
    50   22   67 1   
    51   22   68 1   
    52   23   24 1   
    53   23   69 1   
    54   23   70 1   
    55   24   25 1   
    56   24   71 1   
    57   24   72 1   
    58   25   73 1   
    59   25   74 1   
    60   25   75 1   
    61   26   27 1   
    62   26   28 1   
    63   26   29 1   
    64   26   91 1   
    65   27   30 1   
    66   30   31 1   
    67   30   76 1   
    68   30   77 1   
    69   31   32 1   
    70   31   78 1   
    71   31   79 1   
    72   32   33 1   
    73   32   80 1   
    74   32   81 1   
    75   33   35 1   
    76   34   35 2   
    77   35   36 1   
    78   36   82 1   
    79   36   83 1   
    80   36   84 1   
    81   37   38 1   
    82   37   85 1   
    83   37   86 1   
    84   37   91 1   
    85   38   39 1   
    86   38   40 1   
    87   38   87 1   
    88   39   88 1   
    89   40   89 1   
    90   40   90 1   
@<TRIPOS>SUBSTRUCTURE
     1 CN5         1 TEMP              0 ****  ****    0 ROOT
