@<TRIPOS>MOLECULE
CN6
  106   103     1     0     0
SMALL
bcc


@<TRIPOS>ATOM
      1 P           5.2380    3.4800   -2.4150 p4        1 CN6      1.809100
      2 O11         3.9450    3.0500   -3.2290 os        1 CN6     -0.576200
      3 O12         6.4270    2.7040   -2.9130 o         1 CN6     -0.879300
      4 O13         5.0080    3.1660   -0.8400 os        1 CN6     -0.575200
      5 O14         5.4860    4.9610   -2.6060 os        1 CN6     -1.182000
      6 C1          4.0490    2.8850   -4.6250 c3        1 CN6      0.201400
      7 C2          2.8530    2.1240   -5.1280 c3        1 CN6      0.096100
      8 C3          1.9150    3.0690   -5.8230 c3        1 CN6      0.114400
      9 O31         1.2400    3.8610   -4.8590 os        1 CN6     -0.436900
     10 O32        -0.8800    3.4100   -5.5670 o         1 CN6     -0.573000
     11 C31        -0.0650    4.2510   -5.2500 c         1 CN6      0.656100
     12 C32        -0.4260    5.7430   -5.3410 c3        1 CN6     -0.166400
     13 C33        -1.6950    6.0160   -4.5210 c3        1 CN6     -0.080100
     14 O21         3.2860    1.0990   -6.0580 os        1 CN6     -0.435900
     15 O22         4.7330   -0.1390   -4.7630 o         1 CN6     -0.546000
     16 C21         3.7090   -0.1200   -5.4270 c         1 CN6      0.629100
     17 C22         2.8990   -1.4250   -5.6400 c3        1 CN6     -0.131400
     18 C23         3.3820   -2.1270   -6.9190 c3        1 CN6     -0.078400
     19 C24         3.4560   -3.6190   -6.6780 c3        1 CN6     -0.091100
     20 P'          3.0410    1.9910    3.8800 p4        1 CN6      1.817100
     21 O1'         2.7310    0.4740    4.2730 os        1 CN6     -0.573200
     22 O2'         1.7930    2.6280    3.3070 os        1 CN6     -1.182000
     23 O3'         4.2160    2.0310    2.7830 os        1 CN6     -0.577200
     24 O4'         3.4740    2.7480    5.1070 o         1 CN6     -0.857300
     25 C1'         1.3940    0.1230    4.6350 c3        1 CN6      0.178400
     26 C2'         1.4250   -0.8600    5.7960 c3        1 CN6      0.112100
     27 C3'         0.2170   -1.7620    5.7250 c3        1 CN6      0.114400
     28 O41        -0.5650   -1.4260    4.5680 os        1 CN6     -0.441900
     29 O42        -2.0100   -3.1280    5.0660 o         1 CN6     -0.575000
     30 C41        -1.8450   -2.0450    4.5360 c         1 CN6      0.661100
     31 C42        -3.0340   -1.3160    3.8930 c3        1 CN6     -0.168400
     32 C43        -3.9280   -2.3490    3.1190 c3        1 CN6     -0.065400
     33 C44        -5.1780   -1.5990    2.4900 c3        1 CN6     -0.082400
     34 C45        -5.8390   -2.4990    1.4260 c3        1 CN6     -0.076400
     35 C46        -6.9990   -1.7220    0.7390 c3        1 CN6     -0.080400
     36 C47        -7.4450   -2.4780   -0.5190 c3        1 CN6     -0.078400
     37 C48        -8.6190   -1.7380   -1.1710 c3        1 CN6     -0.079400
     38 C49        -8.8730   -2.3120   -2.5670 c3        1 CN6     -0.078400
     39 C4A       -10.0890   -1.5890   -3.2110 c3        1 CN6     -0.081400
     40 C4B       -10.1170   -1.8760   -4.7080 c3        1 CN6     -0.091100
     41 O51         2.5960   -1.6380    5.7230 os        1 CN6     -0.419900
     42 O52         2.5650   -1.6620    8.0250 o         1 CN6     -0.572000
     43 C51         3.1070   -2.0440    7.0070 c         1 CN6      0.634100
     44 C52         4.3040   -3.0060    7.0890 c3        1 CN6     -0.135400
     45 C53         4.9220   -2.9320    8.4860 c3        1 CN6     -0.078400
     46 C54         6.2050   -3.7420    8.5170 c3        1 CN6     -0.091100
     47 CA          4.6480    3.3160    2.2850 c3        1 CN6      0.186400
     48 CB          5.8950    3.1340    1.4140 c3        1 CN6      0.117100
     49 OA          6.0450    1.7920    1.0970 oh        1 CN6     -0.627800
     50 CC          5.7430    3.9430    0.1380 c3        1 CN6      0.133400
     51 H1          4.0820    3.7730   -5.0610 h1        1 CN6      0.045200
     52 H1A         4.8570    2.3920   -4.8340 h1        1 CN6      0.045200
     53 H2          2.3940    1.7060   -4.3740 h1        1 CN6      0.102700
     54 H3          2.4250    3.6520   -6.4270 h1        1 CN6      0.060700
     55 H3A         1.2640    2.5590   -6.3370 h1        1 CN6      0.060700
     56 H32        -0.5860    5.9860   -6.2870 hc        1 CN6      0.129200
     57 H33        -1.4950    5.9160   -3.5660 hc        1 CN6      0.030367
     58 H33A       -2.3950    5.3780   -4.7770 hc        1 CN6      0.030367
     59 H22         3.0330   -2.0250   -4.8640 hc        1 CN6      0.072200
     60 H22A        1.9550   -1.2100   -5.7240 hc        1 CN6      0.072200
     61 H23         2.7550   -1.9460   -7.6470 hc        1 CN6      0.052700
     62 H23A        4.2690   -1.7910   -7.1610 hc        1 CN6      0.052700
     63 H24         3.1270   -4.0950   -7.4700 hc        1 CN6      0.029367
     64 H24A        2.9010   -3.8530   -5.9020 hc        1 CN6      0.029367
     65 H24B        4.3830   -3.8760   -6.5060 hc        1 CN6      0.029367
     66 H1'         0.9060    0.9280    4.9020 h1        1 CN6      0.064700
     67 H1'A        0.9450   -0.2920    3.8670 h1        1 CN6      0.064700
     68 H2'         1.4130   -0.3660    6.6430 h1        1 CN6      0.093700
     69 H3'         0.5100   -2.6920    5.6610 h1        1 CN6      0.060700
     70 H3'A       -0.3240   -1.6460    6.5300 h1        1 CN6      0.060700
     71 H42        -3.5650   -0.8830    4.5890 hc        1 CN6      0.128200
     72 H42A       -2.7050   -0.6460    3.2740 hc        1 CN6      0.128200
     73 H43        -4.2430   -3.0460    3.7440 hc        1 CN6      0.039700
     74 H43A       -3.4030   -2.7660    2.4020 hc        1 CN6      0.039700
     75 H44        -5.8310   -1.3950    3.2000 hc        1 CN6      0.051200
     76 H44A       -4.8820   -0.7690    2.0740 hc        1 CN6      0.051200
     77 H45        -6.1960   -3.3050    1.8560 hc        1 CN6      0.033700
     78 H45A       -5.1810   -2.7510    0.7620 hc        1 CN6      0.033700
     79 H46        -7.7580   -1.6450    1.3630 hc        1 CN6      0.042200
     80 H46A       -6.6890   -0.8240    0.4890 hc        1 CN6      0.042200
     81 H47        -6.7070   -2.5270   -1.1430 hc        1 CN6      0.035700
     82 H47A       -7.7250   -3.3840   -0.2730 hc        1 CN6      0.035700
     83 H48        -9.4180   -1.8500   -0.6230 hc        1 CN6      0.040200
     84 H48A       -8.4060   -0.7930   -1.2440 hc        1 CN6      0.040200
     85 H49        -8.0830   -2.1780   -3.1220 hc        1 CN6      0.036700
     86 H49A       -9.0630   -3.2710   -2.4950 hc        1 CN6      0.036700
     87 H4A       -10.0110   -0.6320   -3.0670 hc        1 CN6      0.038700
     88 H4AA      -10.9260   -1.9180   -2.7970 hc        1 CN6      0.038700
     89 H4B       -10.8790   -1.4150   -5.1140 hc        1 CN6      0.028033
     90 H4BA       -9.2880   -1.5590   -5.1160 hc        1 CN6      0.028033
     91 H4BB      -10.2040   -2.8480   -4.8550 hc        1 CN6      0.028033
     92 H52         3.9990   -3.9230    6.9150 hc        1 CN6      0.079200
     93 H52A        4.9720   -2.7530    6.4230 hc        1 CN6      0.079200
     94 H53         4.2860   -3.3000    9.1470 hc        1 CN6      0.050200
     95 H53A        5.1200   -1.9930    8.7080 hc        1 CN6      0.050200
     96 H54         6.0210   -4.6560    8.2180 hc        1 CN6      0.029367
     97 H54A        6.5590   -3.7620    9.4370 hc        1 CN6      0.029367
     98 H54B        6.8670   -3.3290    7.9210 hc        1 CN6      0.029367
     99 HA          4.8600    3.9080    3.0420 h1        1 CN6      0.038200
    100 HAA         3.9270    3.7190    1.7440 h1        1 CN6      0.038200
    101 HB          6.6910    3.4460    1.9100 h1        1 CN6      0.054700
    102 HOA         6.9180    1.5580    1.1770 ho        1 CN6      0.416000
    103 HC          6.6220    4.1600   -0.2140 h1        1 CN6      0.042200
    104 HCA         5.2550    4.7700    0.3330 h1        1 CN6      0.042200
    105 H57         0.3140    6.2800   -4.9860 hc        1 CN6      0.129200
    106 H58        -2.0070    6.9350   -4.6960 hc        1 CN6      0.030367
@<TRIPOS>BOND
     1    1    2 1   
     2    1    3 2   
     3    1    4 1   
     4    2    6 1   
     5    4   50 1   
     6    6    7 1   
     7    6   51 1   
     8    6   52 1   
     9    7    8 1   
    10    7   14 1   
    11    7   53 1   
    12    8    9 1   
    13    8   54 1   
    14    8   55 1   
    15    9   11 1   
    16   10   11 2   
    17   11   12 1   
    18   12   13 1   
    19   12   56 1   
    20   12  105 1   
    21   13   57 1   
    22   13   58 1   
    23   13  106 1   
    24   14   16 1   
    25   15   16 2   
    26   16   17 1   
    27   17   18 1   
    28   17   59 1   
    29   17   60 1   
    30   18   19 1   
    31   18   61 1   
    32   18   62 1   
    33   19   63 1   
    34   19   64 1   
    35   19   65 1   
    36   20   21 1   
    37   20   23 1   
    38   20   24 2   
    39   21   25 1   
    40   23   47 1   
    41   25   26 1   
    42   25   66 1   
    43   25   67 1   
    44   26   27 1   
    45   26   41 1   
    46   26   68 1   
    47   27   28 1   
    48   27   69 1   
    49   27   70 1   
    50   28   30 1   
    51   29   30 2   
    52   30   31 1   
    53   31   32 1   
    54   31   71 1   
    55   31   72 1   
    56   32   33 1   
    57   32   73 1   
    58   32   74 1   
    59   33   34 1   
    60   33   75 1   
    61   33   76 1   
    62   34   35 1   
    63   34   77 1   
    64   34   78 1   
    65   35   36 1   
    66   35   79 1   
    67   35   80 1   
    68   36   37 1   
    69   36   81 1   
    70   36   82 1   
    71   37   38 1   
    72   37   83 1   
    73   37   84 1   
    74   38   39 1   
    75   38   85 1   
    76   38   86 1   
    77   39   40 1   
    78   39   87 1   
    79   39   88 1   
    80   40   89 1   
    81   40   90 1   
    82   40   91 1   
    83   41   43 1   
    84   42   43 2   
    85   43   44 1   
    86   44   45 1   
    87   44   92 1   
    88   44   93 1   
    89   45   46 1   
    90   45   94 1   
    91   45   95 1   
    92   46   96 1   
    93   46   97 1   
    94   46   98 1   
    95   47   48 1   
    96   47   99 1   
    97   47  100 1   
    98   48   49 1   
    99   48   50 1   
   100   48  101 1   
   101   49  102 1   
   102   50  103 1   
   103   50  104 1   
@<TRIPOS>SUBSTRUCTURE
     1 CN6         1 TEMP              0 ****  ****    0 ROOT
