@<TRIPOS>MOLECULE
CN6
  106   105     1     0     0
SMALL
bcc


@<TRIPOS>ATOM
      1 P          -6.9280    3.1880   -1.9630 p5        1 CN6      1.431800
      2 O11        -7.4380    1.6190   -2.1110 os        1 CN6     -0.569200
      3 O12        -7.4050    3.9070   -3.1560 o         1 CN6     -0.828000
      4 O13        -5.3100    2.9300   -2.1480 os        1 CN6     -0.594200
      5 O14        -7.1750    3.5770   -0.5590 o         1 CN6     -0.828000
      6 C1         -7.3270    0.8910   -0.9270 c3        1 CN6      0.179400
      7 C2         -7.7390   -0.5570   -1.2240 c3        1 CN6      0.143100
      8 C3         -6.7040   -1.3160   -2.0460 c3        1 CN6      0.120400
      9 O31        -5.4600   -1.2780   -1.3350 os        1 CN6     -0.428900
     10 O32        -4.6420   -2.6800   -2.8660 o         1 CN6     -0.593000
     11 C31        -4.4100   -1.9640   -1.8850 c         1 CN6      0.643100
     12 C32        -3.1220   -1.7060   -1.1740 c3        1 CN6     -0.147400
     13 C33        -2.1470   -2.8370   -1.3510 c3        1 CN6     -0.080100
     14 O21        -7.9030   -1.1710    0.0720 os        1 CN6     -0.415900
     15 O22        -9.3110   -2.6860   -0.8120 o         1 CN6     -0.574000
     16 C21        -8.6970   -2.2650    0.1750 c         1 CN6      0.636100
     17 C22        -8.6940   -2.8320    1.5650 c3        1 CN6     -0.133400
     18 C23       -10.0210   -3.4780    1.8980 c3        1 CN6     -0.078400
     19 C24        -9.9700   -4.1640    3.2380 c3        1 CN6     -0.091100
     20 P'         -0.8480    0.7130    1.5710 p5        1 CN6      1.437800
     21 O1'         0.4070    0.8740    0.4830 os        1 CN6     -0.570200
     22 O2'        -0.6990   -0.6200    2.1910 o         1 CN6     -0.840500
     23 O4'        -0.8930    1.9910    2.3090 o         1 CN6     -0.840500
     24 C1'         1.5060    1.6070    0.8960 c3        1 CN6      0.193400
     25 C2'         2.7650    0.7120    0.9030 c3        1 CN6      0.111100
     26 C3'         4.0260    1.5660    1.0300 c3        1 CN6      0.126400
     27 O41         5.0210    0.9270    0.2060 os        1 CN6     -0.423900
     28 O42         6.5600    2.3090    1.0700 o         1 CN6     -0.568000
     29 C41         6.2990    1.3750    0.3040 c         1 CN6      0.631100
     30 C42         7.2330    0.6320   -0.6050 c3        1 CN6     -0.132400
     31 C43         8.6300    0.5780   -0.0260 c3        1 CN6     -0.077400
     32 C44         9.5940   -0.0580   -1.0040 c3        1 CN6     -0.079400
     33 C45        10.9900   -0.1330   -0.4240 c3        1 CN6     -0.078400
     34 C46        11.9580   -0.7630   -1.4020 c3        1 CN6     -0.079400
     35 C47        13.3540   -0.8390   -0.8220 c3        1 CN6     -0.078400
     36 C48        14.3230   -1.4690   -1.7990 c3        1 CN6     -0.079400
     37 C49        15.7190   -1.5460   -1.2190 c3        1 CN6     -0.079400
     38 C4A        16.6890   -2.1750   -2.1960 c3        1 CN6     -0.080400
     39 C4B        18.0800   -2.2540   -1.6230 c3        1 CN6     -0.091100
     40 O51         2.6940   -0.1120    2.0770 os        1 CN6     -0.449900
     41 O52         3.0900   -1.9820    0.9030 o         1 CN6     -0.572000
     42 C51         2.6070   -1.4720    1.9180 c         1 CN6      0.670100
     43 C52         1.9240   -2.1270    3.0730 c3        1 CN6     -0.164400
     44 C53         2.2610   -3.5980    3.1650 c3        1 CN6     -0.069400
     45 C54         1.4370   -4.2720    4.2310 c3        1 CN6     -0.090100
     46 CA         -2.4140    1.8970   -0.0440 c3        1 CN6      0.168400
     47 CB         -3.5690    1.7300   -1.0360 c3        1 CN6      0.111100
     48 OA         -2.9940    1.5340   -2.3230 oh        1 CN6     -0.627800
     49 CC         -4.4830    2.9680   -1.0230 c3        1 CN6      0.144400
     50 H1         -6.2650    0.9290   -0.5600 h1        1 CN6      0.049700
     51 H1A        -8.0000    1.3370   -0.1460 h1        1 CN6      0.049700
     52 H2         -8.7150   -0.5810   -1.7820 h1        1 CN6      0.077700
     53 H3         -7.0140   -2.3820   -2.1950 h1        1 CN6      0.062700
     54 H3A        -6.5720   -0.8030   -3.0350 h1        1 CN6      0.062700
     55 H32        -2.6970   -0.7390   -1.5810 hc        1 CN6      0.120700
     56 H33        -2.5360   -3.7750   -0.8850 hc        1 CN6      0.035367
     57 H33A       -1.9660   -3.0360   -2.4360 hc        1 CN6      0.035367
     58 H22        -7.8650   -3.5880    1.6140 hc        1 CN6      0.079200
     59 H22A       -8.4530   -2.0180    2.2980 hc        1 CN6      0.079200
     60 H23       -10.8250   -2.6950    1.9030 hc        1 CN6      0.051200
     61 H23A      -10.2860   -4.2160    1.0950 hc        1 CN6      0.051200
     62 H24        -9.7130   -3.4360    4.0450 hc        1 CN6      0.029367
     63 H24A      -10.9600   -4.6220    3.4760 hc        1 CN6      0.029367
     64 H24B       -9.1980   -4.9720    3.2390 hc        1 CN6      0.029367
     65 H1'         1.6880    2.4330    0.1490 h1        1 CN6      0.039200
     66 H1'A        1.3370    2.0500    1.9170 h1        1 CN6      0.039200
     67 H2'         2.7970    0.0780   -0.0250 h1        1 CN6      0.104700
     68 H3'         3.8680    2.6030    0.6380 h1        1 CN6      0.060200
     69 H3'A        4.3920    1.6110    2.0880 h1        1 CN6      0.060200
     70 H42         6.8350   -0.4030   -0.7780 hc        1 CN6      0.078200
     71 H42A        7.2370    1.1670   -1.5920 hc        1 CN6      0.078200
     72 H43         8.9690    1.6160    0.2310 hc        1 CN6      0.054700
     73 H43A        8.6160   -0.0100    0.9290 hc        1 CN6      0.054700
     74 H44         9.2390   -1.0890   -1.2670 hc        1 CN6      0.040200
     75 H44A        9.6140    0.5380   -1.9550 hc        1 CN6      0.040200
     76 H45        11.3420    0.8990   -0.1570 hc        1 CN6      0.040700
     77 H45A       10.9710   -0.7310    0.5250 hc        1 CN6      0.040700
     78 H46        11.6050   -1.7940   -1.6690 hc        1 CN6      0.039200
     79 H46A       11.9780   -0.1640   -2.3510 hc        1 CN6      0.039200
     80 H47        13.7070    0.1920   -0.5540 hc        1 CN6      0.039200
     81 H47A       13.3350   -1.4380    0.1270 hc        1 CN6      0.039200
     82 H48        13.9700   -2.5000   -2.0670 hc        1 CN6      0.039200
     83 H48A       14.3420   -0.8700   -2.7480 hc        1 CN6      0.039200
     84 H49        16.0720   -0.5150   -0.9520 hc        1 CN6      0.038700
     85 H49A       15.6990   -2.1440   -0.2710 hc        1 CN6      0.038700
     86 H4A        16.3330   -3.2050   -2.4640 hc        1 CN6      0.038200
     87 H4AA       16.7050   -1.5760   -3.1450 hc        1 CN6      0.038200
     88 H4B        18.4610   -1.2340   -1.3730 hc        1 CN6      0.030033
     89 H4BA       18.0880   -2.8680   -0.6900 hc        1 CN6      0.030033
     90 H4BB       18.7780   -2.7210   -2.3590 hc        1 CN6      0.030033
     91 H52         2.1910   -1.5940    4.0210 hc        1 CN6      0.121200
     92 H52A        0.8090   -1.9710    2.9050 hc        1 CN6      0.121200
     93 H53         2.0700   -4.0820    2.1700 hc        1 CN6      0.038700
     94 H53A        3.3530   -3.7260    3.3880 hc        1 CN6      0.038700
     95 H54         1.6400   -3.8200    5.2320 hc        1 CN6      0.028700
     96 H54A        0.3470   -4.1580    4.0120 hc        1 CN6      0.028700
     97 H54B        1.6800   -5.3610    4.2790 hc        1 CN6      0.028700
     98 HA         -2.7120    2.5820    0.7970 h1        1 CN6      0.040200
     99 HAA        -1.5080    2.3130   -0.5620 h1        1 CN6      0.040200
    100 HB         -4.1650    0.8070   -0.7770 h1        1 CN6      0.056700
    101 HOA        -3.6740    1.7730   -2.9690 ho        1 CN6      0.419000
    102 HC         -3.8380    3.8900   -1.0830 h1        1 CN6      0.042700
    103 HCA        -5.0940    2.9960   -0.0800 h1        1 CN6      0.042700
    104 H57        -3.3160   -1.5090   -0.0840 hc        1 CN6      0.120700
    105 H58        -1.1790   -2.5690   -0.8620 hc        1 CN6      0.035367
    106 O3'        -2.0800    0.6460    0.5000 os        1 CN6     -0.567200
@<TRIPOS>BOND
     1    1    2 1   
     2    1    3 1   
     3    1    4 1   
     4    1    5 1   
     5    2    6 1   
     6    4   49 1   
     7    6    7 1   
     8    6   50 1   
     9    6   51 1   
    10    7    8 1   
    11    7   14 1   
    12    7   52 1   
    13    8    9 1   
    14    8   53 1   
    15    8   54 1   
    16    9   11 1   
    17   10   11 2   
    18   11   12 1   
    19   12   13 1   
    20   12   55 1   
    21   12  104 1   
    22   13   56 1   
    23   13   57 1   
    24   13  105 1   
    25   14   16 1   
    26   15   16 2   
    27   16   17 1   
    28   17   18 1   
    29   17   58 1   
    30   17   59 1   
    31   18   19 1   
    32   18   60 1   
    33   18   61 1   
    34   19   62 1   
    35   19   63 1   
    36   19   64 1   
    37   20   21 1   
    38   20   22 1   
    39   20   23 1   
    40   20  106 1   
    41   21   24 1   
    42   24   25 1   
    43   24   65 1   
    44   24   66 1   
    45   25   26 1   
    46   25   40 1   
    47   25   67 1   
    48   26   27 1   
    49   26   68 1   
    50   26   69 1   
    51   27   29 1   
    52   28   29 2   
    53   29   30 1   
    54   30   31 1   
    55   30   70 1   
    56   30   71 1   
    57   31   32 1   
    58   31   72 1   
    59   31   73 1   
    60   32   33 1   
    61   32   74 1   
    62   32   75 1   
    63   33   34 1   
    64   33   76 1   
    65   33   77 1   
    66   34   35 1   
    67   34   78 1   
    68   34   79 1   
    69   35   36 1   
    70   35   80 1   
    71   35   81 1   
    72   36   37 1   
    73   36   82 1   
    74   36   83 1   
    75   37   38 1   
    76   37   84 1   
    77   37   85 1   
    78   38   39 1   
    79   38   86 1   
    80   38   87 1   
    81   39   88 1   
    82   39   89 1   
    83   39   90 1   
    84   40   42 1   
    85   41   42 2   
    86   42   43 1   
    87   43   44 1   
    88   43   91 1   
    89   43   92 1   
    90   44   45 1   
    91   44   93 1   
    92   44   94 1   
    93   45   95 1   
    94   45   96 1   
    95   45   97 1   
    96   46   47 1   
    97   46   98 1   
    98   46   99 1   
    99   46  106 1   
   100   47   48 1   
   101   47   49 1   
   102   47  100 1   
   103   48  101 1   
   104   49  102 1   
   105   49  103 1   
@<TRIPOS>SUBSTRUCTURE
     1 CN6         1 TEMP              0 ****  ****    0 ROOT
