@<TRIPOS>MOLECULE
CN8
   70    72     1     0     0
SMALL
bcc


@<TRIPOS>ATOM
      1 O5         -0.0030   -1.3380   -0.4820 o         1 CN8     -0.407100
      2 C29         0.8680   -0.4990   -0.3070 c         1 CN8      0.540100
      3 N8          0.6770    0.8460   -0.9340 n4        1 CN8     -0.664800
      4 C30         0.8470    0.8140   -2.4350 c3        1 CN8      0.110800
      5 C31         2.2890    0.7580   -2.8760 c3        1 CN8     -0.146100
      6 C27         2.1540   -0.7180    0.5090 c3        1 CN8      0.109500
      7 N7          2.1730    0.1850    1.6550 n3        1 CN8     -0.818200
      8 C26         2.1110   -0.5870    2.8820 c3        1 CN8      0.155800
      9 C28         2.2330   -2.1820    1.0180 c3        1 CN8     -0.124400
     10 C25         2.4900   -2.0670    2.5350 c3        1 CN8      0.085500
     11 N6          1.7410   -3.0950    3.3520 n4        1 CN8     -0.657800
     12 C16         2.3210   -3.2900    4.7260 c         1 CN8      0.505100
     13 O4          2.9360   -2.3600    5.2230 o         1 CN8     -0.362100
     14 C15         2.0860   -4.6480    5.4150 c3        1 CN8      0.071500
     15 N5          3.1180   -4.8770    6.4900 n4        1 CN8     -0.755000
     16 C17         4.2250   -5.7730    6.0600 c3        1 CN8      0.070100
     17 C14         0.6450   -4.6790    5.9790 c3        1 CN8     -0.091700
     18 C12         0.3260   -5.9680    6.6170 cc        1 CN8      0.134600
     19 N4          1.1050   -7.1500    6.4810 nc        1 CN8     -0.398000
     20 N3          0.5530   -8.1050    7.1000 nd        1 CN8     -0.091800
     21 C13        -0.7980   -6.3220    7.3980 cd        1 CN8     -0.112600
     22 N2         -0.6050   -7.6820    7.6720 na        1 CN8      0.065400
     23 C11        -1.4500   -8.5000    8.5310 c3        1 CN8      0.027300
     24 C10        -1.7960   -9.8690    7.9030 c3        1 CN8      0.086800
     25 N1         -2.5590  -10.7480    8.8190 n4        1 CN8     -0.693800
     26 C9         -2.9670  -12.0980    8.1400 c         1 CN8      0.597700
     27 O1         -2.6710  -12.1450    6.9540 o         1 CN8     -0.461100
     28 C4         -3.6100  -13.0520    8.9960 ca        1 CN8     -0.277600
     29 C3         -3.9430  -14.2980    8.4050 ca        1 CN8     -0.018000
     30 C2         -4.5660  -15.2830    9.1460 ca        1 CN8     -0.158500
     31 C1         -4.8890  -15.0810   10.5030 ca        1 CN8      0.064900
     32 S1         -5.6290  -16.1780   11.4850 sh        1 CN8      0.021300
     33 C6         -4.5550  -13.8290   11.0880 ca        1 CN8     -0.158500
     34 C5         -3.9340  -12.8420   10.3580 ca        1 CN8     -0.018000
     35 H8          1.3360    1.5240   -0.5340 hn        1 CN8      0.477800
     36 H27         3.0190   -0.5230   -0.1990 h1        1 CN8      0.128700
     37 H301        0.3610    1.7570   -2.8320 hx        1 CN8      0.132700
     38 H302        0.2680   -0.0770   -2.8210 hx        1 CN8      0.132700
     39 H311        2.3010    0.7690   -4.0010 hc        1 CN8      0.088367
     40 H312        2.7960   -0.1770   -2.5380 hc        1 CN8      0.088367
     41 H313        2.8730    1.6460   -2.5270 hc        1 CN8      0.088367
     42 H7          2.9600    0.8110    1.6360 hn        1 CN8      0.431800
     43 H281        3.0880   -2.7080    0.5170 hc        1 CN8      0.117200
     44 H282        1.2950   -2.7440    0.7700 hc        1 CN8      0.117200
     45 H261        2.8080   -0.1790    3.6680 h1        1 CN8      0.103700
     46 H262        1.0580   -0.5200    3.2760 h1        1 CN8      0.103700
     47 H25         3.5880   -2.2330    2.7520 hx        1 CN8      0.133700
     48 H6          1.7500   -3.9890    2.8400 hn        1 CN8      0.480800
     49 H15         2.2010   -5.4890    4.6580 hx        1 CN8      0.164700
     50 H5          3.5100   -3.9750    6.8070 hn        1 CN8      0.487300
     51 H141       -0.0600   -4.5110    5.1170 hc        1 CN8      0.095200
     52 H142        0.4950   -3.8440    6.7190 hc        1 CN8      0.095200
     53 H171        4.7670   -5.3230    5.1870 hx        1 CN8      0.132700
     54 H172        3.8170   -6.7870    5.7870 hx        1 CN8      0.132700
     55 H173        4.9430   -5.8880    6.9240 hx        1 CN8      0.132700
     56 H13        -1.6570   -5.7470    7.7560 h4        1 CN8      0.231000
     57 H111       -0.9030   -8.6520    9.5090 h1        1 CN8      0.100200
     58 H112       -2.3950   -7.9150    8.7270 h1        1 CN8      0.100200
     59 H101       -2.4120   -9.7250    6.9660 hx        1 CN8      0.134200
     60 H102       -0.8560  -10.4250    7.6060 hx        1 CN8      0.134200
     61 H1         -1.9970  -10.9730    9.6460 hn        1 CN8      0.453300
     62 H3         -3.6990  -14.4760    7.3420 ha        1 CN8      0.143500
     63 HA         -3.7060  -11.8930   10.8660 ha        1 CN8      0.143500
     64 H2         -4.8140  -16.2440    8.6610 ha        1 CN8      0.178500
     65 HB         -5.7940  -17.1960   10.6500 hs        1 CN8      0.205800
     66 HC         -4.8060  -13.6570   12.1510 ha        1 CN8      0.178500
     67 H82        -0.2840    1.1640   -0.7330 hn        1 CN8      0.477800
     68 H62         0.7590   -2.7900    3.4530 hn        1 CN8      0.480800
     69 H52         2.6440   -5.3100    7.3050 hn        1 CN8      0.487300
     70 H12        -3.4180  -10.2860    9.1290 hn        1 CN8      0.453300
@<TRIPOS>BOND
     1    1    2 2   
     2    2    3 1   
     3    2    6 1   
     4    3    4 1   
     5    3   35 1   
     6    3   67 1   
     7    4    5 1   
     8    4   37 1   
     9    4   38 1   
    10    5   39 1   
    11    5   40 1   
    12    5   41 1   
    13    6    7 1   
    14    6    9 1   
    15    6   36 1   
    16    7    8 1   
    17    7   42 1   
    18    8   10 1   
    19    8   45 1   
    20    8   46 1   
    21    9   10 1   
    22    9   43 1   
    23    9   44 1   
    24   10   11 1   
    25   10   47 1   
    26   11   12 1   
    27   11   48 1   
    28   11   68 1   
    29   12   13 2   
    30   12   14 1   
    31   14   15 1   
    32   14   17 1   
    33   14   49 1   
    34   15   16 1   
    35   15   50 1   
    36   15   69 1   
    37   16   53 1   
    38   16   54 1   
    39   16   55 1   
    40   17   18 1   
    41   17   51 1   
    42   17   52 1   
    43   18   19 1   
    44   18   21 2   
    45   19   20 2   
    46   20   22 1   
    47   21   22 1   
    48   21   56 1   
    49   22   23 1   
    50   23   24 1   
    51   23   57 1   
    52   23   58 1   
    53   24   25 1   
    54   24   59 1   
    55   24   60 1   
    56   25   26 1   
    57   25   61 1   
    58   25   70 1   
    59   26   27 2   
    60   26   28 1   
    61   28   29 ar  
    62   28   34 ar  
    63   29   30 ar  
    64   29   62 1   
    65   30   31 ar  
    66   30   64 1   
    67   31   32 1   
    68   31   33 ar  
    69   32   65 1   
    70   33   34 ar  
    71   33   66 1   
    72   34   63 1   
@<TRIPOS>SUBSTRUCTURE
     1 CN8         1 TEMP              0 ****  ****    0 ROOT
