@<TRIPOS>MOLECULE
CN8
   66    68     1     0     0
SMALL
bcc


@<TRIPOS>ATOM
      1 O5          4.2100   -0.7670   -0.6060 o         1 CN8     -0.614100
      2 C29         3.1600   -0.8890    0.0560 c         1 CN8      0.655100
      3 N8          2.1440   -1.7430   -0.3230 n         1 CN8     -0.541900
      4 C30         2.1250   -2.3620   -1.6230 c3        1 CN8      0.074000
      5 C31         1.1430   -1.7540   -2.6130 c3        1 CN8     -0.122100
      6 C27         3.0430   -0.1410    1.4000 c3        1 CN8      0.091500
      7 N7          1.6930    0.3590    1.6610 n3        1 CN8     -0.812200
      8 C26         1.1480   -0.3350    2.8170 c3        1 CN8      0.128800
      9 C28         3.4740   -1.0810    2.5440 c3        1 CN8     -0.108400
     10 C25         2.2980   -1.1030    3.5490 c3        1 CN8      0.077700
     11 N6          1.9250   -2.4210    3.9820 n         1 CN8     -0.562900
     12 C16         1.8000   -2.7680    5.3090 c         1 CN8      0.620100
     13 O4          2.0290   -1.9510    6.2250 o         1 CN8     -0.616100
     14 C15         1.3650   -4.2240    5.6210 c3        1 CN8      0.112500
     15 N5          1.7990   -4.6870    6.9260 n3        1 CN8     -0.806200
     16 C17         3.2190   -4.9170    7.0280 c3        1 CN8      0.143100
     17 C14        -0.1700   -4.2720    5.4720 c3        1 CN8     -0.083700
     18 C12        -0.6580   -5.6600    5.4170 cc        1 CN8      0.242600
     19 N4         -1.2450   -6.2640    4.2740 nc        1 CN8     -0.358000
     20 N3         -1.5720   -7.4600    4.5370 nd        1 CN8     -0.177800
     21 C13        -0.6590   -6.6390    6.4290 cd        1 CN8     -0.181600
     22 N2         -1.2370   -7.7610    5.8180 na        1 CN8      0.043400
     23 C11        -1.4980   -9.0250    6.4700 c3        1 CN8      0.023300
     24 C10        -3.0020   -9.2420    6.7850 c3        1 CN8      0.082000
     25 N1         -3.2680  -10.5150    7.3860 n         1 CN8     -0.573900
     26 C9         -3.0050  -10.7610    8.7220 c         1 CN8      0.671700
     27 O1         -2.5410   -9.8610    9.4520 o         1 CN8     -0.604100
     28 C4         -3.3310  -12.1130    9.2530 ca        1 CN8     -0.154600
     29 C3         -3.8230  -12.2040   10.5630 ca        1 CN8     -0.071500
     30 C2         -4.1350  -13.4440   11.1070 ca        1 CN8     -0.143000
     31 C1         -3.9500  -14.6150   10.3560 ca        1 CN8      0.033900
     32 S1         -4.3620  -16.0730   11.1070 sh        1 CN8     -0.225700
     33 C6         -3.4430  -14.5200    9.0560 ca        1 CN8     -0.143000
     34 C5         -3.1350  -13.2770    8.5060 ca        1 CN8     -0.071500
     35 H8          1.2570   -1.6290    0.1130 hn        1 CN8      0.312500
     36 H27         3.7750    0.7160    1.3180 h1        1 CN8      0.080700
     37 H301        3.1650   -2.3180   -2.0600 h1        1 CN8      0.061700
     38 H302        1.8570   -3.4480   -1.4700 h1        1 CN8      0.061700
     39 H311        0.0980   -1.7890   -2.2210 hc        1 CN8      0.041700
     40 H312        1.1850   -2.3350   -3.5650 hc        1 CN8      0.041700
     41 H313        1.4030   -0.6910   -2.8340 hc        1 CN8      0.041700
     42 H7          1.7120    1.3500    1.8070 hn        1 CN8      0.369800
     43 H281        4.3920   -0.6840    3.0420 hc        1 CN8      0.068700
     44 H282        3.7180   -2.0990    2.1510 hc        1 CN8      0.068700
     45 H261        0.6510    0.3740    3.5310 h1        1 CN8      0.055700
     46 H262        0.3640   -1.0480    2.4390 h1        1 CN8      0.055700
     47 H25         2.5900   -0.5130    4.4680 h1        1 CN8      0.094700
     48 H6          1.6990   -3.0860    3.2800 hn        1 CN8      0.316500
     49 H15         1.8200   -4.9140    4.8490 h1        1 CN8      0.080700
     50 H5          1.4990   -4.0370    7.6320 hn        1 CN8      0.376800
     51 H141       -0.6560   -3.7410    6.3350 hc        1 CN8      0.067700
     52 H142       -0.4560   -3.7240    4.5350 hc        1 CN8      0.067700
     53 H171        3.5170   -5.7240    6.3080 h1        1 CN8      0.038367
     54 H172        3.8370   -4.0030    6.8140 h1        1 CN8      0.038367
     55 H173        3.4430   -5.2650    8.0710 h1        1 CN8      0.038367
     56 H13        -0.2940   -6.6290    7.4550 h4        1 CN8      0.206000
     57 H111       -1.1260   -9.8550    5.8050 h1        1 CN8      0.076700
     58 H112       -0.9160   -9.0420    7.4360 h1        1 CN8      0.076700
     59 H101       -3.3390   -8.4300    7.4940 h1        1 CN8      0.072700
     60 H102       -3.6010   -9.1650    5.8340 h1        1 CN8      0.072700
     61 H1         -3.5790  -11.2520    6.8030 hn        1 CN8      0.317500
     62 H3         -3.9510  -11.2840   11.1560 ha        1 CN8      0.146500
     63 HA         -2.7220  -13.2330    7.4870 ha        1 CN8      0.146500
     64 H2         -4.5260  -13.5120   12.1350 ha        1 CN8      0.144000
     65 HB         -4.0570  -16.9250   10.1440 hs        1 CN8      0.190800
     66 HC         -3.2820  -15.4290    8.4570 ha        1 CN8      0.144000
@<TRIPOS>BOND
     1    1    2 2   
     2    2    3 1   
     3    2    6 1   
     4    3    4 1   
     5    3   35 1   
     6    4    5 1   
     7    4   37 1   
     8    4   38 1   
     9    5   39 1   
    10    5   40 1   
    11    5   41 1   
    12    6    7 1   
    13    6    9 1   
    14    6   36 1   
    15    7    8 1   
    16    7   42 1   
    17    8   10 1   
    18    8   45 1   
    19    8   46 1   
    20    9   10 1   
    21    9   43 1   
    22    9   44 1   
    23   10   11 1   
    24   10   47 1   
    25   11   12 1   
    26   11   48 1   
    27   12   13 2   
    28   12   14 1   
    29   14   15 1   
    30   14   17 1   
    31   14   49 1   
    32   15   16 1   
    33   15   50 1   
    34   16   53 1   
    35   16   54 1   
    36   16   55 1   
    37   17   18 1   
    38   17   51 1   
    39   17   52 1   
    40   18   19 1   
    41   18   21 2   
    42   19   20 2   
    43   20   22 1   
    44   21   22 1   
    45   21   56 1   
    46   22   23 1   
    47   23   24 1   
    48   23   57 1   
    49   23   58 1   
    50   24   25 1   
    51   24   59 1   
    52   24   60 1   
    53   25   26 1   
    54   25   61 1   
    55   26   27 2   
    56   26   28 1   
    57   28   29 ar  
    58   28   34 ar  
    59   29   30 ar  
    60   29   62 1   
    61   30   31 ar  
    62   30   64 1   
    63   31   32 1   
    64   31   33 ar  
    65   32   65 1   
    66   33   34 ar  
    67   33   66 1   
    68   34   63 1   
@<TRIPOS>SUBSTRUCTURE
     1 CN8         1 TEMP              0 ****  ****    0 ROOT
