@<TRIPOS>MOLECULE
CN8
   70    72     1     0     0
SMALL
bcc


@<TRIPOS>ATOM
      1 O5         -0.0000   -1.3490   -0.4910 o         1 CN8     -0.407100
      2 C29         0.8680   -0.5070   -0.3160 c         1 CN8      0.540100
      3 N8          0.6750    0.8350   -0.9470 ny        1 CN8     -0.664800
      4 C30         0.8490    0.8000   -2.4470 c3        1 CN8      0.110800
      5 C31         2.2930    0.7480   -2.8830 c3        1 CN8     -0.146100
      6 C27         2.1510   -0.7190    0.5060 c3        1 CN8      0.109500
      7 N7          2.1620    0.1870    1.6510 n7        1 CN8     -0.818200
      8 C26         2.0980   -0.5830    2.8780 c3        1 CN8      0.155800
      9 C28         2.2340   -2.1820    1.0190 c3        1 CN8     -0.124400
     10 C25         2.4840   -2.0620    2.5370 c3        1 CN8      0.085500
     11 N6          1.7360   -3.0910    3.3530 ny        1 CN8     -0.657800
     12 C16         2.3100   -3.2810    4.7300 c         1 CN8      0.505100
     13 O4          2.9200   -2.3470    5.2280 o         1 CN8     -0.362100
     14 C15         2.0790   -4.6380    5.4210 c3        1 CN8      0.071500
     15 N5          3.1070   -4.8610    6.5010 ny        1 CN8     -0.755000
     16 C17         4.2200   -5.7530    6.0770 c3        1 CN8      0.070100
     17 C14         0.6360   -4.6750    5.9790 c3        1 CN8     -0.091700
     18 C12         0.3200   -5.9640    6.6190 cc        1 CN8      0.134600
     19 N4          1.1040   -7.1420    6.4880 nc        1 CN8     -0.398000
     20 N3          0.5540   -8.0990    7.1080 nd        1 CN8     -0.091800
     21 C13        -0.8060   -6.3210    7.3950 cd        1 CN8     -0.112600
     22 N2         -0.6080   -7.6790    7.6730 na        1 CN8      0.065400
     23 C11        -1.4540   -8.4990    8.5310 c3        1 CN8      0.027300
     24 C10        -1.7900   -9.8710    7.9040 c3        1 CN8      0.086800
     25 N1         -2.5540  -10.7510    8.8190 ny        1 CN8     -0.693800
     26 C9         -2.9530  -12.1050    8.1410 c         1 CN8      0.597700
     27 O1         -2.6510  -12.1530    6.9570 o         1 CN8     -0.461100
     28 C4         -3.5960  -13.0590    8.9970 ca        1 CN8     -0.277600
     29 C3         -3.9210  -14.3070    8.4070 ca        1 CN8     -0.018000
     30 C2         -4.5430  -15.2940    9.1470 ca        1 CN8     -0.158500
     31 C1         -4.8740  -15.0900   10.5030 ca        1 CN8      0.064900
     32 S1         -5.6130  -16.1880   11.4830 sh        1 CN8      0.021300
     33 C6         -4.5470  -13.8350   11.0860 ca        1 CN8     -0.158500
     34 C5         -3.9270  -12.8470   10.3570 ca        1 CN8     -0.018000
     35 H8         -0.2890    1.1510   -0.7500 hn        1 CN8      0.477800
     36 H27         3.0180   -0.5220   -0.1990 h1        1 CN8      0.128700
     37 H301        0.2760   -0.0940   -2.8330 hx        1 CN8      0.132700
     38 H302        0.3620    1.7400   -2.8490 hx        1 CN8      0.132700
     39 H311        2.8030   -0.1850   -2.5400 hc        1 CN8      0.088367
     40 H312        2.3100    0.7560   -4.0080 hc        1 CN8      0.088367
     41 H313        2.8730    1.6390   -2.5350 hc        1 CN8      0.088367
     42 H7          2.9460    0.8160    1.6330 hn        1 CN8      0.431800
     43 H281        3.0930   -2.7050    0.5220 hc        1 CN8      0.117200
     44 H282        1.2980   -2.7480    0.7680 hc        1 CN8      0.117200
     45 H261        2.7900   -0.1710    3.6660 h1        1 CN8      0.103700
     46 H262        1.0430   -0.5200    3.2680 h1        1 CN8      0.103700
     47 H25         3.5810   -2.2230    2.7590 hx        1 CN8      0.133700
     48 H6          1.7500   -3.9860    2.8430 hn        1 CN8      0.480800
     49 H15         2.2010   -5.4810    4.6660 hx        1 CN8      0.164700
     50 H5          3.4940   -3.9570    6.8170 hn        1 CN8      0.487300
     51 H141       -0.0660   -4.5110    5.1140 hc        1 CN8      0.095200
     52 H142        0.4790   -3.8380    6.7160 hc        1 CN8      0.095200
     53 H171        4.7630   -5.3030    5.2050 hx        1 CN8      0.132700
     54 H172        4.9340   -5.8630    6.9450 hx        1 CN8      0.132700
     55 H173        3.8170   -6.7700    5.8050 hx        1 CN8      0.132700
     56 H13        -1.6700   -5.7490    7.7490 h4        1 CN8      0.231000
     57 H111       -0.9100   -8.6460    9.5120 h1        1 CN8      0.100200
     58 H112       -2.4020   -7.9170    8.7220 h1        1 CN8      0.100200
     59 H101       -0.8470  -10.4230    7.6130 hx        1 CN8      0.134200
     60 H102       -2.4040   -9.7310    6.9650 hx        1 CN8      0.134200
     61 H1         -3.4160  -10.2910    9.1240 hn        1 CN8      0.453300
     62 H3         -3.6720  -14.4870    7.3450 ha        1 CN8      0.143500
     63 HA         -3.7050  -11.8960   10.8640 ha        1 CN8      0.143500
     64 H2         -4.7840  -16.2570    8.6630 ha        1 CN8      0.178500
     65 HB         -5.7710  -17.2080   10.6500 hs        1 CN8      0.205800
     66 HC         -4.8030  -13.6620   12.1470 ha        1 CN8      0.178500
     67 H82         1.3300    1.5170   -0.5460 hn        1 CN8      0.477800
     68 H62         0.7520   -2.7900    3.4490 hn        1 CN8      0.480800
     69 H52         2.6320   -5.2940    7.3140 hn        1 CN8      0.487300
     70 H12        -1.9940  -10.9710    9.6490 hn        1 CN8      0.453300
@<TRIPOS>BOND
     1    1    2 2   
     2    2    3 1   
     3    2    6 1   
     4    3    4 1   
     5    3   35 1   
     6    3   67 1   
     7    4    5 1   
     8    4   37 1   
     9    4   38 1   
    10    5   39 1   
    11    5   40 1   
    12    5   41 1   
    13    6    7 1   
    14    6    9 1   
    15    6   36 1   
    16    7    8 1   
    17    7   42 1   
    18    8   10 1   
    19    8   45 1   
    20    8   46 1   
    21    9   10 1   
    22    9   43 1   
    23    9   44 1   
    24   10   11 1   
    25   10   47 1   
    26   11   12 1   
    27   11   48 1   
    28   11   68 1   
    29   12   13 2   
    30   12   14 1   
    31   14   15 1   
    32   14   17 1   
    33   14   49 1   
    34   15   16 1   
    35   15   50 1   
    36   15   69 1   
    37   16   53 1   
    38   16   54 1   
    39   16   55 1   
    40   17   18 1   
    41   17   51 1   
    42   17   52 1   
    43   18   19 1   
    44   18   21 2   
    45   19   20 2   
    46   20   22 1   
    47   21   22 1   
    48   21   56 1   
    49   22   23 1   
    50   23   24 1   
    51   23   57 1   
    52   23   58 1   
    53   24   25 1   
    54   24   59 1   
    55   24   60 1   
    56   25   26 1   
    57   25   61 1   
    58   25   70 1   
    59   26   27 2   
    60   26   28 1   
    61   28   29 ar  
    62   28   34 ar  
    63   29   30 ar  
    64   29   62 1   
    65   30   31 ar  
    66   30   64 1   
    67   31   32 1   
    68   31   33 ar  
    69   32   65 1   
    70   33   34 ar  
    71   33   66 1   
    72   34   63 1   
@<TRIPOS>SUBSTRUCTURE
     1 CN8         1 TEMP              0 ****  ****    0 ROOT
