@<TRIPOS>MOLECULE
CNE
   81    82     1     0     0
SMALL
bcc


@<TRIPOS>ATOM
      1 C24         1.1250    0.7250    1.1410 ca        1 CNE     -0.188000
      2 C25         2.4030    0.1600    1.1860 ca        1 CNE      0.138100
      3 C20         2.9650   -0.2470    2.4160 ca        1 CNE     -0.164300
      4 C21         2.2130   -0.0960    3.5830 ca        1 CNE     -0.054000
      5 C22         0.9210    0.4480    3.5450 ca        1 CNE     -0.097800
      6 C23         0.3910    0.8650    2.3170 ca        1 CNE     -0.028000
      7 C26         0.1950    0.6060    4.7970 ce        1 CNE     -0.047200
      8 C27        -1.0760    0.2920    5.0720 cf        1 CNE     -0.181200
      9 C28        -2.0580   -0.2990    4.1550 c         1 CNE      0.632300
     10 O7         -2.9720   -1.0760    4.8130 os        1 CNE     -0.427900
     11 O6         -2.1820   -0.1740    2.9330 o         1 CNE     -0.552000
     12 C29        -4.0020   -1.6700    4.0180 c3        1 CNE      0.125700
     13 O8          3.1850   -0.0710    0.0660 os        1 CNE     -0.406900
     14 C30         2.7430    0.5670   -1.1480 c3        1 CNE      0.128400
     15 C31         3.7690    0.2190   -2.2000 c3        1 CNE     -0.113100
     16 C19         4.3510   -0.7740    2.4880 c3        1 CNE     -0.068100
     17 C18         4.4300   -2.1490    1.8740 c         1 CNE      0.597100
     18 N2          5.0800   -2.1950    0.4990 ny        1 CNE     -0.668800
     19 O5          4.0310   -3.2050    2.3340 o         1 CNE     -0.435100
     20 C14         5.6490   -3.5280    0.1260 c3        1 CNE      0.049500
     21 C13         7.1130   -3.5800    0.6360 c         1 CNE      0.665100
     22 C15         5.6140   -3.8050   -1.3890 c3        1 CNE     -0.079700
     23 C17         4.1950   -4.0620   -1.8510 c3        1 CNE     -0.118600
     24 C16         6.2610   -2.7140   -2.2110 c3        1 CNE     -0.118600
     25 O4          7.8730   -2.6230    0.3920 o         1 CNE     -0.590100
     26 N1          7.5060   -4.6960    1.3330 ns        1 CNE     -0.525900
     27 C10         8.6840   -4.6470    2.1710 c3        1 CNE      0.014700
     28 C9          9.3320   -6.0390    2.2890 c         1 CNE      0.573100
     29 C11         8.4100   -4.1730    3.6130 c3        1 CNE     -0.218400
     30 C12         7.6990   -2.8600    3.6970 c         1 CNE      0.677100
     31 O2          6.7570   -2.4640    2.9950 o         1 CNE     -0.595000
     32 O3          8.0460   -1.9620    4.6570 oh        1 CNE     -0.561100
     33 C8         10.8170   -6.0930    2.1500 c3        1 CNE     -0.140300
     34 O1          8.6380   -7.0370    2.4870 o         1 CNE     -0.494100
     35 S1         11.6340   -5.0380    3.3040 ss        1 CNE     -0.266200
     36 C7         12.5290   -3.8840    2.2930 c3        1 CNE      0.035000
     37 C6         13.7090   -4.4520    1.6090 ca        1 CNE     -0.127300
     38 C5         13.6380   -4.7960    0.2380 ca        1 CNE      0.125900
     39 C4         14.7530   -5.3190   -0.4400 ca        1 CNE     -0.155000
     40 C3         15.9480   -5.5020    0.2490 ca        1 CNE     -0.083000
     41 C2         16.0430   -5.1690    1.5980 ca        1 CNE     -0.129000
     42 C1         14.9330   -4.6460    2.2700 ca        1 CNE      0.056400
     43 F1         12.4770   -4.6190   -0.4420 f         1 CNE     -0.147900
     44 Cl1        15.1030   -4.2450    3.9120 cl        1 CNE     -0.064400
     45 H24         0.6820    1.0600    0.1920 ha        1 CNE      0.156000
     46 H21         2.6420   -0.4110    4.5480 ha        1 CNE      0.148000
     47 H23        -0.6280    1.2920    2.2750 ha        1 CNE      0.183000
     48 H26         0.8130    1.0260    5.6170 ha        1 CNE      0.143000
     49 H27        -1.4750    0.4530    6.0920 ha        1 CNE      0.167000
     50 H291       -4.5960   -0.8740    3.5090 h1        1 CNE      0.056367
     51 H292       -4.6170   -2.2290    4.7660 h1        1 CNE      0.056367
     52 H293       -3.5500   -2.3550    3.2620 h1        1 CNE      0.056367
     53 H301        1.7320    0.1670   -1.4250 h1        1 CNE      0.062200
     54 H302        2.6840    1.6730   -0.9770 h1        1 CNE      0.062200
     55 H311        3.5410    0.7940   -3.1310 hc        1 CNE      0.053700
     56 H312        4.7980    0.4830   -1.8580 hc        1 CNE      0.053700
     57 H313        3.7330   -0.8720   -2.4370 hc        1 CNE      0.053700
     58 H191        4.6970   -0.8950    3.5560 hc        1 CNE      0.112200
     59 H192        5.0570   -0.0540    1.9890 hc        1 CNE      0.112200
     60 HN2         5.8430   -1.4990    0.4800 hn        1 CNE      0.476300
     61 H14         5.0130   -4.3160    0.6380 hx        1 CNE      0.127700
     62 H15         6.2110   -4.7550   -1.5270 hc        1 CNE      0.096700
     63 H171        3.7020   -4.8430   -1.2230 hc        1 CNE      0.057200
     64 H172        3.5780   -3.1310   -1.8180 hc        1 CNE      0.057200
     65 H173        4.2100   -4.4230   -2.9100 hc        1 CNE      0.057200
     66 H161        7.2810   -2.4700   -1.8220 hc        1 CNE      0.057200
     67 H162        5.6450   -1.7810   -2.2130 hc        1 CNE      0.057200
     68 H163        6.3620   -3.0590   -3.2700 hc        1 CNE      0.057200
     69 HN1         6.8440   -5.4100    1.5440 hn        1 CNE      0.336500
     70 H10         9.4220   -3.9340    1.6920 h1        1 CNE      0.111700
     71 H111        7.7800   -4.9340    4.1530 hc        1 CNE      0.112200
     72 H112        9.4130   -4.1200    4.1300 hc        1 CNE      0.112200
     73 H81        11.0960   -5.8330    1.0950 h1        1 CNE      0.121200
     74 H82        11.1640   -7.1440    2.3440 h1        1 CNE      0.121200
     75 H71        11.8390   -3.4160    1.5460 h1        1 CNE      0.095200
     76 H72        12.8410   -3.0890    3.0230 h1        1 CNE      0.095200
     77 H4         14.6690   -5.5740   -1.5070 ha        1 CNE      0.161000
     78 H3         16.8240   -5.9130   -0.2770 ha        1 CNE      0.156000
     79 H2         16.9940   -5.3160    2.1360 ha        1 CNE      0.164000
     80 H22         4.3710   -1.9110   -0.1960 hn        1 CNE      0.476300
     81 H12         8.7830   -2.2960    5.1910 ho        1 CNE      0.448000
@<TRIPOS>BOND
     1    1    2 ar  
     2    1    6 ar  
     3    1   45 1   
     4    2    3 ar  
     5    2   13 1   
     6    3    4 ar  
     7    3   16 1   
     8    4    5 ar  
     9    4   46 1   
    10    5    6 ar  
    11    5    7 1   
    12    6   47 1   
    13    7    8 2   
    14    7   48 1   
    15    8    9 1   
    16    8   49 1   
    17    9   10 1   
    18    9   11 2   
    19   10   12 1   
    20   12   50 1   
    21   12   51 1   
    22   12   52 1   
    23   13   14 1   
    24   14   15 1   
    25   14   53 1   
    26   14   54 1   
    27   15   55 1   
    28   15   56 1   
    29   15   57 1   
    30   16   17 1   
    31   16   58 1   
    32   16   59 1   
    33   17   18 1   
    34   17   19 2   
    35   18   20 1   
    36   18   60 1   
    37   18   80 1   
    38   20   21 1   
    39   20   22 1   
    40   20   61 1   
    41   21   25 2   
    42   21   26 1   
    43   22   23 1   
    44   22   24 1   
    45   22   62 1   
    46   23   63 1   
    47   23   64 1   
    48   23   65 1   
    49   24   66 1   
    50   24   67 1   
    51   24   68 1   
    52   26   27 1   
    53   26   69 1   
    54   27   28 1   
    55   27   29 1   
    56   27   70 1   
    57   28   33 1   
    58   28   34 2   
    59   29   30 1   
    60   29   71 1   
    61   29   72 1   
    62   30   31 2   
    63   30   32 1   
    64   32   81 1   
    65   33   35 1   
    66   33   73 1   
    67   33   74 1   
    68   35   36 1   
    69   36   37 1   
    70   36   75 1   
    71   36   76 1   
    72   37   38 ar  
    73   37   42 ar  
    74   38   39 ar  
    75   38   43 1   
    76   39   40 ar  
    77   39   77 1   
    78   40   41 ar  
    79   40   78 1   
    80   41   42 ar  
    81   41   79 1   
    82   42   44 1   
@<TRIPOS>SUBSTRUCTURE
     1 CNE         1 TEMP              0 ****  ****    0 ROOT
