@<TRIPOS>MOLECULE
CNE
   79    74     1     0     0
SMALL
bcc


@<TRIPOS>ATOM
      1 C24        -5.2240    3.0310    1.7200 c1        1 CNE     -0.134250
      2 C25        -4.3840    3.5510    0.7470 c1        1 CNE      0.080000
      3 C20        -3.1910    2.8910    0.4280 c1        1 CNE     -0.125000
      4 C21        -2.8490    1.7190    1.0850 c1        1 CNE     -0.078000
      5 C22        -3.6890    1.1960    2.0610 c1        1 CNE     -0.079000
      6 C23        -4.8790    1.8510    2.3810 c1        1 CNE     -0.134250
      7 C26        -3.2730   -0.1020    2.8400 c2        1 CNE     -0.045000
      8 C27        -4.0850   -1.1820    2.8370 c1        1 CNE     -0.189000
      9 C28        -5.4230   -1.1420    2.0650 c1        1 CNE      0.344000
     10 O7         -6.6020   -1.6180    2.6710 os        1 CNE     -0.273000
     11 O6         -5.4460   -0.7550    0.8980 o         1 CNE     -0.392000
     12 C29        -6.9430   -2.9590    2.3050 c3        1 CNE     -0.060000
     13 O8         -4.7070    4.7790    0.1040 os        1 CNE     -0.225000
     14 C30        -5.3410    5.7460    0.9590 c3        1 CNE     -0.021000
     15 C31        -6.2550    6.6230    0.1290 c3        1 CNE     -0.217000
     16 C19        -2.1970    3.5350   -0.5830 c3        1 CNE     -0.133000
     17 C18        -1.8840    2.5370   -1.7130 c2        1 CNE      0.301000
     18 N2         -0.5770    2.5800   -2.3870 n         1 CNE     -0.353000
     19 O5         -2.7670    1.7840   -2.1300 o         1 CNE     -0.384000
     20 C14         0.0700    1.3540   -2.7760 c3        1 CNE      0.005000
     21 C13         1.2890    1.1110   -1.8810 c2        1 CNE      0.279000
     22 C15         0.5120    1.4530   -4.2060 c3        1 CNE     -0.105000
     23 C17        -0.5040    0.7160   -5.1230 c3        1 CNE     -0.211500
     24 C16         0.5840    2.9350   -4.6150 c3        1 CNE     -0.211500
     25 O4          1.9920    2.0560   -1.5330 o         1 CNE     -0.389000
     26 N1          1.5510   -0.2270   -1.3490 n         1 CNE     -0.348000
     27 C10         2.5500   -0.4140   -0.3000 c3        1 CNE     -0.009000
     28 C9          3.6360   -1.3130   -0.7910 c2        1 CNE      0.230000
     29 C11         1.9030   -1.0310    0.9160 c3        1 CNE     -0.245000
     30 C12         2.0110   -0.0820    2.0790 c2        1 CNE      0.336000
     31 O2          0.9790    0.3430    2.6360 o         1 CNE     -0.578000
     32 O3          3.1360    0.2340    2.5230 o         1 CNE     -0.578000
     33 C8          4.9280   -1.4390   -0.0050 c3        1 CNE     -0.353000
     34 O1          3.5120   -1.8930   -1.8680 o         1 CNE     -0.311000
     35 S1          5.5020   -3.1210   -0.0780 ss        1 CNE      0.079000
     36 C7          6.7740   -3.3830    1.1660 c3        1 CNE     -0.268000
     37 C6          7.1160   -4.9020    1.2450 c2        1 CNE     -0.056000
     38 C5          6.2720   -5.7680    1.9300 c2        1 CNE      0.119000
     39 C4          6.5530   -7.1330    1.9630 c1        1 CNE     -0.175000
     40 C3          7.6900   -7.6350    1.3050 c1        1 CNE     -0.134250
     41 C2          8.5360   -6.7680    0.6190 c1        1 CNE     -0.134250
     42 C1          8.2570   -5.4040    0.5840 c1        1 CNE     -0.036000
     43 F1          5.1600   -5.2810    2.5690 f         1 CNE     -0.086000
     44 CL1         9.2670   -4.3210   -0.3790 cl        1 CNE     -0.014000
     45 H24        -6.0520    3.4710    1.9250 ha        1 CNE      0.142250
     46 H21        -2.0320    1.2680    0.8650 ha        1 CNE      0.151000
     47 H23        -5.4810    1.4760    3.0800 ha        1 CNE      0.142250
     48 H26        -2.4230   -0.1290    3.3310 ha        1 CNE      0.205000
     49 H27        -3.8140   -2.0190    3.3400 ha        1 CNE      0.202000
     50 H291       -6.8380   -3.0720    1.3180 h1        1 CNE      0.079667
     51 H292       -7.8720   -3.1380    2.5570 h1        1 CNE      0.079667
     52 H293       -6.3510   -3.5880    2.7710 h1        1 CNE      0.079667
     53 H301       -4.6690    6.2920    1.3830 h1        1 CNE      0.078500
     54 H302       -5.8630    5.2860    1.6420 h1        1 CNE      0.078500
     55 H311       -5.7240    7.1100   -0.5360 hc        1 CNE      0.084000
     56 H312       -6.9150    6.0620   -0.3280 hc        1 CNE      0.084000
     57 H313       -6.7240    7.2750    0.7210 hc        1 CNE      0.084000
     58 H191       -2.6040    4.3540   -0.9720 hc        1 CNE      0.123000
     59 H192       -1.3580    3.7740   -0.1130 hc        1 CNE      0.123000
     60 HN2        -0.2080    3.3880   -2.6210 hn        1 CNE      0.242000
     61 H14        -0.5620    0.6070   -2.6780 h1        1 CNE      0.131000
     62 H15         1.4290    1.0280   -4.3070 hc        1 CNE      0.099000
     63 H171       -1.3240    1.2930   -5.2500 hc        1 CNE      0.077333
     64 H172       -0.0860    0.5410   -6.0010 hc        1 CNE      0.077333
     65 H173       -0.7650   -0.1380   -4.7070 hc        1 CNE      0.077333
     66 H161        0.9960    3.0100   -5.4770 hc        1 CNE      0.077333
     67 H162       -0.3180    3.3060   -4.6520 hc        1 CNE      0.077333
     68 H163        1.1080    3.4270   -3.9630 hc        1 CNE      0.077333
     69 HN1         1.0550   -0.9530   -1.6530 hn        1 CNE      0.229000
     70 H10         2.9330    0.4540   -0.0590 h1        1 CNE      0.153000
     71 H111        0.9840   -1.2060    0.7340 hc        1 CNE      0.089500
     72 H112        2.3540   -1.8670    1.1340 hc        1 CNE      0.089500
     73 H81         4.7640   -1.1810    0.9540 h1        1 CNE      0.163500
     74 H82         5.5980   -0.8510   -0.3870 h1        1 CNE      0.163500
     75 H71         7.5670   -2.8850    0.9260 h1        1 CNE      0.162000
     76 H72         6.4420   -3.0720    2.0510 h1        1 CNE      0.162000
     77 H4          5.9420   -7.7590    2.4570 ha        1 CNE      0.145000
     78 H3          7.8850   -8.5860    1.3270 ha        1 CNE      0.142250
     79 H2          9.3650   -7.1320    0.1380 ha        1 CNE      0.142250
@<TRIPOS>BOND
     1    1    6 1   
     2    1   45 1   
     3    2    3 1   
     4    2   13 1   
     5    3   16 1   
     6    4    5 1   
     7    4   46 1   
     8    5    7 1   
     9    6   47 1   
    10    7    8 1   
    11    7   48 1   
    12    8   49 1   
    13    9   10 1   
    14    9   11 1   
    15   10   12 1   
    16   12   50 1   
    17   12   51 1   
    18   12   52 1   
    19   13   14 1   
    20   14   15 1   
    21   14   53 1   
    22   14   54 1   
    23   15   55 1   
    24   15   56 1   
    25   15   57 1   
    26   16   17 1   
    27   16   58 1   
    28   16   59 1   
    29   17   18 1   
    30   17   19 1   
    31   18   20 1   
    32   18   60 1   
    33   20   21 1   
    34   20   22 1   
    35   20   61 1   
    36   21   25 1   
    37   21   26 1   
    38   22   23 1   
    39   22   24 1   
    40   22   62 1   
    41   23   63 1   
    42   23   64 1   
    43   23   65 1   
    44   24   66 1   
    45   24   67 1   
    46   24   68 1   
    47   26   27 1   
    48   26   69 1   
    49   27   28 1   
    50   27   29 1   
    51   27   70 1   
    52   28   33 1   
    53   28   34 1   
    54   29   30 1   
    55   29   71 1   
    56   29   72 1   
    57   30   31 1   
    58   30   32 1   
    59   33   35 1   
    60   33   73 1   
    61   33   74 1   
    62   35   36 1   
    63   36   37 1   
    64   36   75 1   
    65   36   76 1   
    66   37   38 1   
    67   37   42 1   
    68   38   39 1   
    69   38   43 1   
    70   39   77 1   
    71   40   41 1   
    72   40   78 1   
    73   41   79 1   
    74   42   44 1   
@<TRIPOS>SUBSTRUCTURE
     1 CNE         1 TEMP              0 ****  ****    0 ROOT
