@<TRIPOS>MOLECULE
CNE
   79    80     1     0     0
SMALL
bcc


@<TRIPOS>ATOM
      1 C24         1.7320   -1.6140    4.9350 ca        1 CNE     -0.216000
      2 C25         0.7210   -1.6670    3.9670 ca        1 CNE      0.160100
      3 C20        -0.6270   -1.4090    4.3190 ca        1 CNE     -0.112300
      4 C21        -0.9210   -1.1030    5.6450 ca        1 CNE     -0.059000
      5 C22         0.0860   -1.0440    6.6270 ca        1 CNE     -0.132800
      6 C23         1.4110   -1.3030    6.2520 ca        1 CNE     -0.062000
      7 C26        -0.2890   -0.7210    7.9880 ce        1 CNE      0.006800
      8 C27         0.5640   -0.5720    9.0170 cf        1 CNE     -0.243200
      9 C28         0.0750   -0.2520   10.3570 c         1 CNE      0.634300
     10 O7          1.0890   -0.1040   11.2740 os        1 CNE     -0.441900
     11 O6         -1.0840   -0.1050   10.7600 o         1 CNE     -0.554000
     12 C29         0.6970    0.2170   12.6070 c3        1 CNE      0.128700
     13 O8          0.9310   -1.9840    2.6460 os        1 CNE     -0.329900
     14 C30         2.3010   -2.0700    2.2160 c3        1 CNE      0.132400
     15 C31         2.2480   -2.2370    0.7150 c3        1 CNE     -0.117100
     16 C19        -1.7100   -1.4860    3.3050 c3        1 CNE     -0.106100
     17 C18        -1.9440   -0.1590    2.5890 c         1 CNE      0.667100
     18 N2         -0.9040    0.3470    1.8500 n         1 CNE     -0.550900
     19 O5         -3.0480    0.4180    2.6860 o         1 CNE     -0.621100
     20 C14        -1.0260    1.5100    1.0060 c3        1 CNE      0.043700
     21 C13        -0.1690    1.3300   -0.2770 c         1 CNE      0.641100
     22 C15        -0.5820    2.8370    1.6700 c3        1 CNE     -0.075700
     23 C17        -1.6200    3.2980    2.6700 c3        1 CNE     -0.091600
     24 C16         0.7820    2.7300    2.3140 c3        1 CNE     -0.091600
     25 O4          0.9110    0.6910   -0.2400 o         1 CNE     -0.677100
     26 N1         -0.6020    1.9700   -1.4070 n         1 CNE     -0.509900
     27 C10         0.0530    1.7490   -2.6820 c3        1 CNE      0.024700
     28 C9          1.4560    2.3470   -2.7660 c         1 CNE      0.580100
     29 C11        -0.7830    2.2980   -3.8450 c3        1 CNE     -0.226400
     30 C12        -2.0630    1.4450   -3.9460 c         1 CNE      0.907600
     31 O2         -2.1100    0.5670   -4.8510 o         1 CNE     -0.835800
     32 O3         -2.9630    1.6520   -3.0810 o         1 CNE     -0.835800
     33 C8          2.5040    1.4120   -3.3040 c3        1 CNE     -0.124300
     34 O1          1.7380    3.4980   -2.4260 o         1 CNE     -0.534100
     35 S1          2.3600    1.0540   -5.0240 ss        1 CNE     -0.290200
     36 C7          1.1760   -0.2830   -5.1170 c3        1 CNE      0.006000
     37 C6          1.5450   -1.1350   -6.2660 ca        1 CNE     -0.066300
     38 C5          2.2250   -2.3600   -6.0560 ca        1 CNE      0.136900
     39 C4          2.5680   -3.1960   -7.1340 ca        1 CNE     -0.177000
     40 C3          2.2340   -2.8170   -8.4290 ca        1 CNE     -0.108000
     41 C2          1.5630   -1.6210   -8.6610 ca        1 CNE     -0.149000
     42 C1          1.2210   -0.7880   -7.5880 ca        1 CNE      0.053400
     43 F1          2.5540   -2.7520   -4.8010 f         1 CNE     -0.140900
     44 CL1         0.3990    0.6550   -7.9290 cl        1 CNE     -0.048400
     45 H24         2.7780   -1.8140    4.6650 ha        1 CNE      0.142000
     46 H21        -1.9670   -0.8950    5.9270 ha        1 CNE      0.147000
     47 H23         2.2160   -1.2640    7.0020 ha        1 CNE      0.133000
     48 H26        -1.3760   -0.5920    8.1660 ha        1 CNE      0.147000
     49 H27         1.6560   -0.6720    8.9260 ha        1 CNE      0.152000
     50 H291        1.6670    0.2920   13.1570 h1        1 CNE      0.047033
     51 H292        0.1430    1.1860   12.6200 h1        1 CNE      0.047033
     52 H293        0.0530   -0.5950   13.0220 h1        1 CNE      0.047033
     53 H301        2.7800   -2.9530    2.7160 h1        1 CNE      0.037200
     54 H302        2.8430   -1.1310    2.5010 h1        1 CNE      0.037200
     55 H311        3.2890   -2.3140    0.3230 hc        1 CNE      0.063700
     56 H312        1.6820   -3.1590    0.4420 hc        1 CNE      0.063700
     57 H313        1.7410   -1.3560    0.2440 hc        1 CNE      0.063700
     58 H191       -1.4630   -2.2700    2.5380 hc        1 CNE      0.083200
     59 H192       -2.6790   -1.7720    3.7950 hc        1 CNE      0.083200
     60 HN2        -0.0440   -0.1560    1.7950 hn        1 CNE      0.337500
     61 H14        -2.1200    1.6190    0.7270 h1        1 CNE      0.101700
     62 H15        -0.5250    3.6030    0.8430 hc        1 CNE      0.067700
     63 H171       -1.2810    4.2380    3.1670 hc        1 CNE      0.036867
     64 H172       -2.5940    3.4930    2.1580 hc        1 CNE      0.036867
     65 H173       -1.7920    2.5190    3.4510 hc        1 CNE      0.036867
     66 H161        0.7330    2.1370    3.2580 hc        1 CNE      0.036867
     67 H162        1.5000    2.2340    1.6160 hc        1 CNE      0.036867
     68 H163        1.1670    3.7490    2.5620 hc        1 CNE      0.036867
     69 HN1        -1.5730    2.2290   -1.4890 hn        1 CNE      0.365500
     70 H10         0.1590    0.6270   -2.8280 h1        1 CNE      0.059700
     71 H111       -1.0490    3.3690   -3.6760 hc        1 CNE      0.057200
     72 H112       -0.1890    2.2190   -4.7890 hc        1 CNE      0.057200
     73 H81         2.4890    0.4790   -2.6860 h1        1 CNE      0.093200
     74 H82         3.5140    1.8870   -3.2030 h1        1 CNE      0.093200
     75 H71         0.1270    0.1290   -5.2320 h1        1 CNE      0.122200
     76 H72         1.1950   -0.8720   -4.1650 h1        1 CNE      0.122200
     77 H4          3.0940   -4.1400   -6.9380 ha        1 CNE      0.140000
     78 H3          2.4990   -3.4690   -9.2740 ha        1 CNE      0.130000
     79 H2          1.2940   -1.3290   -9.6870 ha        1 CNE      0.143000
@<TRIPOS>BOND
     1    1    2 ar  
     2    1    6 ar  
     3    1   45 1   
     4    2    3 ar  
     5    2   13 1   
     6    3    4 ar  
     7    3   16 1   
     8    4    5 ar  
     9    4   46 1   
    10    5    6 ar  
    11    5    7 1   
    12    6   47 1   
    13    7    8 2   
    14    7   48 1   
    15    8    9 1   
    16    8   49 1   
    17    9   10 1   
    18    9   11 2   
    19   10   12 1   
    20   12   50 1   
    21   12   51 1   
    22   12   52 1   
    23   13   14 1   
    24   14   15 1   
    25   14   53 1   
    26   14   54 1   
    27   15   55 1   
    28   15   56 1   
    29   15   57 1   
    30   16   17 1   
    31   16   58 1   
    32   16   59 1   
    33   17   18 1   
    34   17   19 2   
    35   18   20 1   
    36   18   60 1   
    37   20   21 1   
    38   20   22 1   
    39   20   61 1   
    40   21   25 2   
    41   21   26 1   
    42   22   23 1   
    43   22   24 1   
    44   22   62 1   
    45   23   63 1   
    46   23   64 1   
    47   23   65 1   
    48   24   66 1   
    49   24   67 1   
    50   24   68 1   
    51   26   27 1   
    52   26   69 1   
    53   27   28 1   
    54   27   29 1   
    55   27   70 1   
    56   28   33 1   
    57   28   34 2   
    58   29   30 1   
    59   29   71 1   
    60   29   72 1   
    61   30   31 1   
    62   30   32 1   
    63   33   35 1   
    64   33   73 1   
    65   33   74 1   
    66   35   36 1   
    67   36   37 1   
    68   36   75 1   
    69   36   76 1   
    70   37   38 ar  
    71   37   42 ar  
    72   38   39 ar  
    73   38   43 1   
    74   39   40 ar  
    75   39   77 1   
    76   40   41 ar  
    77   40   78 1   
    78   41   42 ar  
    79   41   79 1   
    80   42   44 1   
@<TRIPOS>SUBSTRUCTURE
     1 CNE         1 TEMP              0 ****  ****    0 ROOT
