@<TRIPOS>MOLECULE
CNE
   81    82     1     0     0
SMALL
bcc


@<TRIPOS>ATOM
      1 C24         1.8490    0.7120    2.0740 ca        1 CNE     -0.192000
      2 C25         3.0460    0.0310    2.3230 ca        1 CNE      0.132100
      3 C20         3.1360   -0.9110    3.3730 ca        1 CNE     -0.191300
      4 C21         2.0040   -1.1520    4.1550 ca        1 CNE     -0.061000
      5 C22         0.7930   -0.4980    3.8950 ca        1 CNE     -0.100800
      6 C23         0.7290    0.4390    2.8540 ca        1 CNE     -0.017000
      7 C26        -0.3540   -0.7750    4.7480 ce        1 CNE     -0.041200
      8 C27        -1.6120   -1.0510    4.3840 cf        1 CNE     -0.186200
      9 C28        -2.1210   -1.1580    3.0130 c         1 CNE      0.630300
     10 O7         -3.3850   -1.6800    2.9740 os        1 CNE     -0.426900
     11 O6         -1.5930   -0.8510    1.9380 o         1 CNE     -0.559000
     12 C29        -3.9900   -1.8100    1.6860 c3        1 CNE      0.126700
     13 O8          4.1890    0.1790    1.5660 os        1 CNE     -0.390900
     14 C30         4.2380    1.3060    0.6690 c3        1 CNE      0.135400
     15 C31         5.6350    1.3020    0.0940 c3        1 CNE     -0.114100
     16 C19         4.4210   -1.5780    3.6970 c3        1 CNE     -0.085100
     17 C18         4.6560   -2.8240    2.8820 c         1 CNE      0.585100
     18 N2          4.5810   -2.6120    1.3840 n4        1 CNE     -0.665800
     19 O5          4.9040   -3.9480    3.2880 o         1 CNE     -0.443100
     20 C14         5.2050   -3.6860    0.5480 c3        1 CNE      0.050500
     21 C13         6.6150   -3.1940    0.1280 c         1 CNE      0.665100
     22 C15         4.3790   -4.0440   -0.7020 c3        1 CNE     -0.078700
     23 C17         3.1910   -4.9020   -0.3220 c3        1 CNE     -0.117600
     24 C16         3.9360   -2.8330   -1.4930 c3        1 CNE     -0.117600
     25 O4          6.7340   -2.0640   -0.3860 o         1 CNE     -0.589100
     26 N1          7.6770   -4.0390    0.3440 n         1 CNE     -0.525900
     27 C10         9.0190   -3.5050    0.4230 c3        1 CNE      0.012700
     28 C9         10.0560   -4.5540   -0.0210 c         1 CNE      0.575100
     29 C11         9.4280   -3.0560    1.8410 c3        1 CNE     -0.221400
     30 C12         8.4920   -2.0570    2.4430 c         1 CNE      0.676100
     31 O2          7.2520   -2.1040    2.4550 o         1 CNE     -0.597000
     32 O3          8.9800   -0.9740    3.1000 oh        1 CNE     -0.559100
     33 C8         11.1440   -4.0450   -0.9080 c3        1 CNE     -0.133300
     34 O1          9.9700   -5.7240    0.3500 o         1 CNE     -0.495100
     35 S1         12.1090   -2.8130   -0.0890 ss        1 CNE     -0.285200
     36 C7         13.7320   -3.5190    0.0570 c3        1 CNE      0.041000
     37 C6         13.8740   -4.5690    1.0850 ca        1 CNE     -0.132300
     38 C5         13.9050   -5.9320    0.7040 ca        1 CNE      0.141900
     39 C4         14.0810   -6.9500    1.6590 ca        1 CNE     -0.152000
     40 C3         14.2260   -6.6120    3.0000 ca        1 CNE     -0.084000
     41 C2         14.1970   -5.2770    3.4000 ca        1 CNE     -0.136000
     42 C1         14.0210   -4.2690    2.4490 ca        1 CNE      0.046400
     43 F1         13.7670   -6.2700   -0.6010 f         1 CNE     -0.135900
     44 CL1        13.9970   -2.6540    2.9860 cl        1 CNE     -0.083400
     45 H24         1.7810    1.4570    1.2680 ha        1 CNE      0.159000
     46 H21         2.0660   -1.8680    4.9910 ha        1 CNE      0.147000
     47 H23        -0.2250    0.9500    2.6360 ha        1 CNE      0.173000
     48 H26        -0.1170   -0.7590    5.8320 ha        1 CNE      0.146000
     49 H27        -2.3810   -1.2440    5.1570 ha        1 CNE      0.169000
     50 H291       -3.3870   -2.5020    1.0510 h1        1 CNE      0.056367
     51 H292       -4.9990   -2.2340    1.9150 h1        1 CNE      0.056367
     52 H293       -4.0660   -0.8090    1.1980 h1        1 CNE      0.056367
     53 H301        4.0240    2.2440    1.2430 h1        1 CNE      0.054200
     54 H302        3.4640    1.1620   -0.1300 h1        1 CNE      0.054200
     55 H311        6.3840    1.5560    0.8810 hc        1 CNE      0.061700
     56 H312        5.6920    2.0600   -0.7230 hc        1 CNE      0.061700
     57 H313        5.8900    0.2950   -0.3210 hc        1 CNE      0.061700
     58 H191        5.2940   -0.8840    3.5070 hc        1 CNE      0.127700
     59 H192        4.4510   -1.8850    4.7800 hc        1 CNE      0.127700
     60 HN2         5.0560   -1.7070    1.1770 hn        1 CNE      0.484300
     61 H14         5.2780   -4.6170    1.1930 hx        1 CNE      0.126700
     62 H15         5.0710   -4.6590   -1.3490 hc        1 CNE      0.095700
     63 H171        3.5170   -5.8200    0.2240 hc        1 CNE      0.057867
     64 H172        2.6500   -5.2190   -1.2480 hc        1 CNE      0.057867
     65 H173        2.4700   -4.3400    0.3210 hc        1 CNE      0.057867
     66 H161        4.7740   -2.1000   -1.6070 hc        1 CNE      0.057867
     67 H162        3.0670   -2.3220   -1.0120 hc        1 CNE      0.057867
     68 H163        3.6120   -3.1560   -2.5140 hc        1 CNE      0.057867
     69 HN1         7.5280   -4.9200    0.7860 hn        1 CNE      0.334500
     70 H10         9.0770   -2.6110   -0.2710 h1        1 CNE      0.115700
     71 H111       10.4750   -2.6360    1.7620 hc        1 CNE      0.113200
     72 H112        9.4660   -3.9460    2.5280 hc        1 CNE      0.113200
     73 H81        11.7880   -4.8990   -1.2480 h1        1 CNE      0.116200
     74 H82        10.6900   -3.5720   -1.8170 h1        1 CNE      0.116200
     75 H71        14.3730   -2.6290    0.3030 h1        1 CNE      0.106700
     76 H72        14.0590   -3.9090   -0.9420 h1        1 CNE      0.106700
     77 H4         14.1050   -8.0000    1.3320 ha        1 CNE      0.165000
     78 H3         14.3710   -7.4050    3.7510 ha        1 CNE      0.155000
     79 H2         14.3210   -5.0190    4.4640 ha        1 CNE      0.160000
     80 H22         3.5920   -2.5070    1.1270 hn        1 CNE      0.484300
     81 H12         9.9500   -0.9630    3.0710 ho        1 CNE      0.449000
@<TRIPOS>BOND
     1    1    2 ar  
     2    1    6 ar  
     3    1   45 1   
     4    2    3 ar  
     5    2   13 1   
     6    3    4 ar  
     7    3   16 1   
     8    4    5 ar  
     9    4   46 1   
    10    5    6 ar  
    11    5    7 1   
    12    6   47 1   
    13    7    8 2   
    14    7   48 1   
    15    8    9 1   
    16    8   49 1   
    17    9   10 1   
    18    9   11 2   
    19   10   12 1   
    20   12   50 1   
    21   12   51 1   
    22   12   52 1   
    23   13   14 1   
    24   14   15 1   
    25   14   53 1   
    26   14   54 1   
    27   15   55 1   
    28   15   56 1   
    29   15   57 1   
    30   16   17 1   
    31   16   58 1   
    32   16   59 1   
    33   17   18 1   
    34   17   19 2   
    35   18   20 1   
    36   18   60 1   
    37   18   80 1   
    38   20   21 1   
    39   20   22 1   
    40   20   61 1   
    41   21   25 2   
    42   21   26 1   
    43   22   23 1   
    44   22   24 1   
    45   22   62 1   
    46   23   63 1   
    47   23   64 1   
    48   23   65 1   
    49   24   66 1   
    50   24   67 1   
    51   24   68 1   
    52   26   27 1   
    53   26   69 1   
    54   27   28 1   
    55   27   29 1   
    56   27   70 1   
    57   28   33 1   
    58   28   34 2   
    59   29   30 1   
    60   29   71 1   
    61   29   72 1   
    62   30   31 2   
    63   30   32 1   
    64   32   81 1   
    65   33   35 1   
    66   33   73 1   
    67   33   74 1   
    68   35   36 1   
    69   36   37 1   
    70   36   75 1   
    71   36   76 1   
    72   37   38 ar  
    73   37   42 ar  
    74   38   39 ar  
    75   38   43 1   
    76   39   40 ar  
    77   39   77 1   
    78   40   41 ar  
    79   40   78 1   
    80   41   42 ar  
    81   41   79 1   
    82   42   44 1   
@<TRIPOS>SUBSTRUCTURE
     1 CNE         1 TEMP              0 ****  ****    0 ROOT
