@<TRIPOS>MOLECULE
CNE
   81    82     1     0     0
SMALL
bcc


@<TRIPOS>ATOM
      1 C24         2.2660    0.7810    1.0980 ca        1 CNE     -0.192000
      2 C25         3.2620    0.1170    1.8220 ca        1 CNE      0.132100
      3 C20         2.9800   -0.4480    3.0860 ca        1 CNE     -0.190300
      4 C21         1.6850   -0.3330    3.5980 ca        1 CNE     -0.060000
      5 C22         0.6740    0.3040    2.8680 ca        1 CNE     -0.099800
      6 C23         0.9770    0.8650    1.6190 ca        1 CNE     -0.017000
      7 C26        -0.6560    0.4090    3.4520 ce        1 CNE     -0.042200
      8 C27        -1.8370    0.1380    2.8820 cf        1 CNE     -0.186200
      9 C28        -2.0560   -0.3540    1.5170 c         1 CNE      0.630300
     10 O7         -3.3470   -0.7600    1.3200 os        1 CNE     -0.425900
     11 O6         -1.2730   -0.4440    0.5650 o         1 CNE     -0.559000
     12 C29        -3.6810   -1.2400    0.0160 c3        1 CNE      0.126700
     13 O8          4.5480   -0.0790    1.3630 os        1 CNE     -0.390900
     14 C30         4.9580    0.6920    0.2170 c3        1 CNE      0.134400
     15 C31         6.4250    0.3850    0.0310 c3        1 CNE     -0.114100
     16 C19         4.0470   -1.0830    3.8980 c3        1 CNE     -0.085100
     17 C18         4.2530   -2.5370    3.5600 c         1 CNE      0.584100
     18 N2          4.5380   -2.8020    2.0970 n4        1 CNE     -0.665800
     19 O5          4.2280   -3.4920    4.3200 o         1 CNE     -0.442100
     20 C14         5.1470   -4.1350    1.7890 c3        1 CNE      0.050500
     21 C13         6.6770   -3.9260    1.6330 c         1 CNE      0.666100
     22 C15         4.5730   -4.7890    0.5180 c3        1 CNE     -0.078700
     23 C17         3.2070   -5.3790    0.7990 c3        1 CNE     -0.118100
     24 C16         4.5210   -3.8500   -0.6670 c3        1 CNE     -0.118100
     25 O4          7.0930   -3.0330    0.8690 o         1 CNE     -0.591100
     26 N1          7.5090   -4.7500    2.3520 n         1 CNE     -0.525900
     27 C10         8.8730   -4.3480    2.6140 c3        1 CNE      0.014700
     28 C9          9.7820   -5.5780    2.7910 c         1 CNE      0.573100
     29 C11         9.0430   -3.4960    3.8890 c3        1 CNE     -0.219400
     30 C12         8.1600   -2.2900    3.9370 c         1 CNE      0.676100
     31 O2          6.9640   -2.2180    3.6190 o         1 CNE     -0.595000
     32 O3          8.6470   -1.1120    4.4070 oh        1 CNE     -0.560100
     33 C8         11.0970   -5.5380    2.0860 c3        1 CNE     -0.140300
     34 O1          9.4190   -6.5300    3.4830 o         1 CNE     -0.494100
     35 S1         12.0490   -4.1200    2.5330 ss        1 CNE     -0.266200
     36 C7         12.2860   -3.2460    1.0050 c3        1 CNE      0.035000
     37 C6         13.2300   -3.8890    0.0680 ca        1 CNE     -0.128300
     38 C5         12.7420   -4.6270   -1.0370 ca        1 CNE      0.125900
     39 C4         13.6200   -5.2310   -1.9530 ca        1 CNE     -0.155000
     40 C3         14.9930   -5.1040   -1.7700 ca        1 CNE     -0.083000
     41 C2         15.4980   -4.3800   -0.6920 ca        1 CNE     -0.129000
     42 C1         14.6220   -3.7760    0.2160 ca        1 CNE      0.056400
     43 F1         11.4030   -4.7560   -1.2240 f         1 CNE     -0.147900
     44 CL1        15.2860   -2.8960    1.5080 cl        1 CNE     -0.064400
     45 H24         2.4860    1.2360    0.1200 ha        1 CNE      0.159000
     46 H21         1.4560   -0.7500    4.5930 ha        1 CNE      0.148000
     47 H23         0.1830    1.3590    1.0330 ha        1 CNE      0.173000
     48 H26        -0.6530    0.7470    4.5080 ha        1 CNE      0.146000
     49 H27        -2.7720    0.2650    3.4610 ha        1 CNE      0.169000
     50 H291       -3.4990   -0.4410   -0.7420 h1        1 CNE      0.056367
     51 H292       -4.7680   -1.4890    0.1000 h1        1 CNE      0.056367
     52 H293       -3.0690   -2.1430   -0.2240 h1        1 CNE      0.056367
     53 H301        4.7800    1.7800    0.4210 h1        1 CNE      0.054200
     54 H302        4.3530    0.3660   -0.6700 h1        1 CNE      0.054200
     55 H311        7.0260    0.8160    0.8680 hc        1 CNE      0.061367
     56 H312        6.5990   -0.7200    0.0070 hc        1 CNE      0.061367
     57 H313        6.7690    0.8320   -0.9320 hc        1 CNE      0.061367
     58 H191        3.7980   -1.0340    4.9960 hc        1 CNE      0.128200
     59 H192        5.0380   -0.5580    3.7430 hc        1 CNE      0.128200
     60 HN2         5.1850   -2.0530    1.7680 hn        1 CNE      0.483800
     61 H14         4.9210   -4.8200    2.6640 hx        1 CNE      0.127700
     62 H15         5.2840   -5.6330    0.2720 hc        1 CNE      0.095700
     63 H171        2.8420   -5.9180   -0.1100 hc        1 CNE      0.057533
     64 H172        3.2510   -6.1070    1.6440 hc        1 CNE      0.057533
     65 H173        2.4640   -4.5840    1.0490 hc        1 CNE      0.057533
     66 H161        5.4700   -3.2650   -0.7570 hc        1 CNE      0.057533
     67 H162        4.3850   -4.4440   -1.6050 hc        1 CNE      0.057533
     68 H163        3.6600   -3.1410   -0.5920 hc        1 CNE      0.057533
     69 HN1         9.5790   -1.2000    4.6600 ho        1 CNE      0.448000
     70 H10         9.2350   -3.7450    1.7260 h1        1 CNE      0.111700
     71 H111       10.1320   -3.2000    3.9340 hc        1 CNE      0.111700
     72 H112        8.8150   -4.1200    4.7980 hc        1 CNE      0.111700
     73 H81        11.6910   -6.4500    2.3660 h1        1 CNE      0.121200
     74 H82        10.9220   -5.5750    0.9790 h1        1 CNE      0.121200
     75 H71        12.6790   -2.2470    1.3370 h1        1 CNE      0.094700
     76 H72        11.2990   -3.0800    0.5030 h1        1 CNE      0.094700
     77 H4         13.2110   -5.7960   -2.8040 ha        1 CNE      0.161000
     78 H3         15.6860   -5.5770   -2.4850 ha        1 CNE      0.156000
     79 H2         16.5870   -4.2820   -0.5560 ha        1 CNE      0.164000
     80 H22         3.6570   -2.6990    1.5780 hn        1 CNE      0.483800
     81 H12         7.1220   -5.4240    2.9760 hn        1 CNE      0.335500
@<TRIPOS>BOND
     1    1    2 ar  
     2    1    6 ar  
     3    1   45 1   
     4    2    3 ar  
     5    2   13 1   
     6    3    4 ar  
     7    3   16 1   
     8    4    5 ar  
     9    4   46 1   
    10    5    6 ar  
    11    5    7 1   
    12    6   47 1   
    13    7    8 2   
    14    7   48 1   
    15    8    9 1   
    16    8   49 1   
    17    9   10 1   
    18    9   11 2   
    19   10   12 1   
    20   12   50 1   
    21   12   51 1   
    22   12   52 1   
    23   13   14 1   
    24   14   15 1   
    25   14   53 1   
    26   14   54 1   
    27   15   55 1   
    28   15   56 1   
    29   15   57 1   
    30   16   17 1   
    31   16   58 1   
    32   16   59 1   
    33   17   18 1   
    34   17   19 2   
    35   18   20 1   
    36   18   60 1   
    37   18   80 1   
    38   20   21 1   
    39   20   22 1   
    40   20   61 1   
    41   21   25 2   
    42   21   26 1   
    43   22   23 1   
    44   22   24 1   
    45   22   62 1   
    46   23   63 1   
    47   23   64 1   
    48   23   65 1   
    49   24   66 1   
    50   24   67 1   
    51   24   68 1   
    52   26   27 1   
    53   26   81 1   
    54   27   28 1   
    55   27   29 1   
    56   27   70 1   
    57   28   33 1   
    58   28   34 2   
    59   29   30 1   
    60   29   71 1   
    61   29   72 1   
    62   30   31 2   
    63   30   32 1   
    64   32   69 1   
    65   33   35 1   
    66   33   73 1   
    67   33   74 1   
    68   35   36 1   
    69   36   37 1   
    70   36   75 1   
    71   36   76 1   
    72   37   38 ar  
    73   37   42 ar  
    74   38   39 ar  
    75   38   43 1   
    76   39   40 ar  
    77   39   77 1   
    78   40   41 ar  
    79   40   78 1   
    80   41   42 ar  
    81   41   79 1   
    82   42   44 1   
@<TRIPOS>SUBSTRUCTURE
     1 CNE         1 TEMP              0 ****  ****    0 ROOT
