@<TRIPOS>MOLECULE
CNG
   31    31     1     0     0
SMALL
bcc


@<TRIPOS>ATOM
      1 C14        -2.7200    1.0030    0.4140 c         1 CNG      0.885600
      2 O32        -2.6240    0.7690    1.6540 o         1 CNG     -0.849300
      3 C5         -2.1210   -0.0240   -0.5830 c3        1 CNG      0.020800
      4 N21        -1.1640   -0.9710   -0.0400 n3        1 CNG     -0.807200
      5 C49         0.2160   -0.4770   -0.0170 c3        1 CNG      0.180500
      6 C48         1.1720   -1.5720    0.4960 c3        1 CNG     -0.097900
      7 C47         2.3440   -1.8190   -0.4310 c3        1 CNG     -0.065900
      8 C46         3.4250   -0.7570   -0.4170 c3        1 CNG     -0.068400
      9 C45         3.0280    0.5330   -1.1040 c3        1 CNG     -0.069400
     10 C44         2.6190    1.6620   -0.1810 c3        1 CNG     -0.068400
     11 C43         1.8000    1.2890    1.0340 c3        1 CNG     -0.065900
     12 C42         0.3860    0.8340    0.7680 c3        1 CNG     -0.097900
     13 H5         -2.9780   -0.6360   -0.9810 h1        1 CNG      0.031200
     14 H5A        -1.6710    0.5380   -1.4450 h1        1 CNG      0.031200
     15 HN21       -1.4450   -1.1750    0.9080 hn        1 CNG      0.361800
     16 H49         0.4750   -0.2620   -1.0960 h1        1 CNG      0.034700
     17 H48         1.5380   -1.3110    1.5210 hc        1 CNG      0.055450
     18 H48A        0.6200   -2.5470    0.5970 hc        1 CNG      0.055450
     19 H47         2.8210   -2.7940   -0.1330 hc        1 CNG      0.026700
     20 H47A        1.9650   -1.9480   -1.4800 hc        1 CNG      0.026700
     21 H46         3.7470   -0.5550    0.6380 hc        1 CNG      0.025700
     22 H46A        4.3220   -1.1790   -0.9490 hc        1 CNG      0.025700
     23 H45         3.9010    0.8950   -1.7140 hc        1 CNG      0.030700
     24 H45A        2.2010    0.3300   -1.8360 hc        1 CNG      0.030700
     25 H44         3.5540    2.1710    0.1830 hc        1 CNG      0.025700
     26 H44A        2.0460    2.4170   -0.7830 hc        1 CNG      0.025700
     27 H43         2.3490    0.5210    1.6400 hc        1 CNG      0.026700
     28 H43A        1.7340    2.2080    1.6830 hc        1 CNG      0.026700
     29 H42        -0.1630    1.6400    0.2070 hc        1 CNG      0.055450
     30 H42A       -0.1460    0.7320    1.7570 hc        1 CNG      0.055450
     31 OXT        -3.2840    2.0200   -0.0780 o         1 CNG     -0.849300
@<TRIPOS>BOND
     1    1    2 1   
     2    1    3 1   
     3    1   31 1   
     4    3    4 1   
     5    3   13 1   
     6    3   14 1   
     7    4    5 1   
     8    4   15 1   
     9    5    6 1   
    10    5   12 1   
    11    5   16 1   
    12    6    7 1   
    13    6   17 1   
    14    6   18 1   
    15    7    8 1   
    16    7   19 1   
    17    7   20 1   
    18    8    9 1   
    19    8   21 1   
    20    8   22 1   
    21    9   10 1   
    22    9   23 1   
    23    9   24 1   
    24   10   11 1   
    25   10   25 1   
    26   10   26 1   
    27   11   12 1   
    28   11   27 1   
    29   11   28 1   
    30   12   29 1   
    31   12   30 1   
@<TRIPOS>SUBSTRUCTURE
     1 CNG         1 TEMP              0 ****  ****    0 ROOT
