@<TRIPOS>MOLECULE
CNG
   31    30     1     0     0
SMALL
bcc


@<TRIPOS>ATOM
      1 C14         1.6550    1.6970   -3.8250 c1        1 CNG      0.772000
      2 O32         2.8260    2.1450   -3.9900 o         1 CNG     -0.817500
      3 C5          1.0400    1.6800   -2.4420 c2        1 CNG      0.147100
      4 N21         1.1170    0.3370   -1.8940 nh        1 CNG     -0.371100
      5 C49         0.4480    0.3010   -0.6400 c3        1 CNG      0.004000
      6 C48         1.4580   -0.0330    0.4600 c3        1 CNG     -0.099400
      7 C47         0.7990   -0.8640    1.5780 c3        1 CNG     -0.065900
      8 C46        -0.1800   -0.0090    2.3880 c3        1 CNG     -0.072400
      9 C45        -1.4950   -0.7490    2.6070 c3        1 CNG     -0.068400
     10 C44        -2.0130   -1.3130    1.3140 c3        1 CNG     -0.072400
     11 C43        -1.8180   -0.3290    0.1780 c3        1 CNG     -0.065900
     12 C42        -0.6580   -0.7370   -0.6930 c3        1 CNG     -0.099400
     13 H5          0.1070    1.9540   -2.4990 h4        1 CNG     -0.058200
     14 H5A         1.5290    2.3030   -1.8570 h4        1 CNG     -0.058200
     15 HN21        2.0070    0.1020   -1.7760 hn        1 CNG      0.206700
     16 H49         0.0560    1.1790   -0.4610 h1        1 CNG      0.032700
     17 H48         2.2080   -0.5510    0.0680 hc        1 CNG      0.056200
     18 H48A        1.8020    0.7900    0.8360 hc        1 CNG      0.056200
     19 H47         0.3200   -1.6090    1.1820 hc        1 CNG      0.027950
     20 H47A        1.5070   -1.2150    2.1840 hc        1 CNG      0.027950
     21 H46        -0.3560    0.8220    1.9040 hc        1 CNG      0.030700
     22 H46A        0.2250    0.2060    3.2710 hc        1 CNG      0.030700
     23 H45        -2.1650   -0.1200    2.9790 hc        1 CNG      0.020700
     24 H45A       -1.3510   -1.4820    3.2440 hc        1 CNG      0.020700
     25 H44        -1.5370   -2.1350    1.1110 hc        1 CNG      0.030700
     26 H44A       -2.9640   -1.5090    1.4080 hc        1 CNG      0.030700
     27 H43        -2.6340   -0.2970   -0.3650 hc        1 CNG      0.027950
     28 H43A       -1.6450    0.5530    0.5470 hc        1 CNG      0.027950
     29 H42        -0.3060   -1.6030   -0.3800 hc        1 CNG      0.056200
     30 H42A       -0.9720   -0.8320   -1.6280 hc        1 CNG      0.056200
     31 OXT         0.9910    1.3150   -4.8060 o         1 CNG     -0.817500
@<TRIPOS>BOND
     1    1    2 2   
     2    1   31 2   
     3    3    4 2   
     4    3   13 1   
     5    3   14 1   
     6    4    5 1   
     7    4   15 1   
     8    5    6 1   
     9    5   12 1   
    10    5   16 1   
    11    6    7 1   
    12    6   17 1   
    13    6   18 1   
    14    7    8 1   
    15    7   19 1   
    16    7   20 1   
    17    8    9 1   
    18    8   21 1   
    19    8   22 1   
    20    9   10 1   
    21    9   23 1   
    22    9   24 1   
    23   10   11 1   
    24   10   25 1   
    25   10   26 1   
    26   11   12 1   
    27   11   27 1   
    28   11   28 1   
    29   12   29 1   
    30   12   30 1   
@<TRIPOS>SUBSTRUCTURE
     1 CNG         1 TEMP              0 ****  ****    0 ROOT
