@<TRIPOS>MOLECULE
CNH
   13    12     1     0     0
SMALL
bcc


@<TRIPOS>ATOM
      1 C1          0.0020   -0.0330   -0.0270 c3        1 CNH      0.223900
      2 C2          1.5210   -0.0070   -0.1790 c3        1 CNH     -0.106100
      3 C3         -0.4010   -0.0400    1.4470 c3        1 CNH     -0.106100
      4 C4         -0.5340   -1.2260   -0.6980 c1        1 CNH      0.177700
      5 O6         -0.5780    1.1430   -0.5840 oh        1 CNH     -0.579800
      6 N5         -0.9610   -2.1700   -1.2240 n1        1 CNH     -0.356800
      7 HC21        1.8080   -0.0180   -1.2570 hc        1 CNH      0.056033
      8 HC22        1.9730   -0.8930    0.3250 hc        1 CNH      0.056033
      9 HC23        1.9200    0.9240    0.2900 hc        1 CNH      0.056033
     10 HC31       -1.5120   -0.0130    1.5400 hc        1 CNH      0.056033
     11 HC32       -0.0070   -0.9600    1.9390 hc        1 CNH      0.056033
     12 HC33        0.0230    0.8620    1.9470 hc        1 CNH      0.056033
     13 HO6        -0.2760    1.2100   -1.4980 ho        1 CNH      0.409000
@<TRIPOS>BOND
     1    1    2 1   
     2    1    3 1   
     3    1    4 1   
     4    1    5 1   
     5    2    7 1   
     6    2    8 1   
     7    2    9 1   
     8    3   10 1   
     9    3   11 1   
    10    3   12 1   
    11    4    6 3   
    12    5   13 1   
@<TRIPOS>SUBSTRUCTURE
     1 CNH         1 TEMP              0 ****  ****    0 ROOT
