@<TRIPOS>MOLECULE
CNH
   13    12     1     0     0
SMALL
bcc


@<TRIPOS>ATOM
      1 C1         -0.0120   -0.0140    0.3430 c3        1 CNH      0.223900
      2 C2          0.7330   -1.2390    0.8690 c3        1 CNH     -0.106100
      3 C3         -1.4490    0.0180    0.8620 c3        1 CNH     -0.106100
      4 C4         -0.0110   -0.0370   -1.1270 c1        1 CNH      0.177700
      5 O6          0.5990    1.1850    0.8130 oh        1 CNH     -0.579800
      6 N5         -0.0150   -0.0550   -2.2880 n1        1 CNH     -0.356800
      7 HC21        0.7710   -1.1920    1.9840 hc        1 CNH      0.056033
      8 HC22        0.2050   -2.1710    0.5590 hc        1 CNH      0.056033
      9 HC23        1.7760   -1.2640    0.4740 hc        1 CNH      0.056033
     10 HC31       -1.9990   -0.8800    0.4970 hc        1 CNH      0.056033
     11 HC32       -1.4360    0.0230    1.9770 hc        1 CNH      0.056033
     12 HC33       -1.9630    0.9420    0.5060 hc        1 CNH      0.056033
     13 HO6         1.5300    1.1530    0.5610 ho        1 CNH      0.409000
@<TRIPOS>BOND
     1    1    2 1   
     2    1    3 1   
     3    1    4 1   
     4    1    5 1   
     5    2    7 1   
     6    2    8 1   
     7    2    9 1   
     8    3   10 1   
     9    3   11 1   
    10    3   12 1   
    11    4    6 3   
    12    5   13 1   
@<TRIPOS>SUBSTRUCTURE
     1 CNH         1 TEMP              0 ****  ****    0 ROOT
