@<TRIPOS>MOLECULE
CNH
   13    12     1     0     0
SMALL
bcc


@<TRIPOS>ATOM
      1 C1          0.0020   -0.0330   -0.0270 c3        1 CNH      0.223900
      2 C2          1.5210   -0.0040   -0.1800 c3        1 CNH     -0.106100
      3 C3         -0.4000   -0.0450    1.4480 c3        1 CNH     -0.106100
      4 C4         -0.5340   -1.2240   -0.7010 c1        1 CNH      0.177700
      5 O6         -0.5800    1.1440   -0.5800 oh        1 CNH     -0.579800
      6 N5         -0.9590   -2.1680   -1.2280 n1        1 CNH     -0.356800
      7 HC21        1.8070   -0.0120   -1.2580 hc        1 CNH      0.056033
      8 HC22        1.9740   -0.8910    0.3220 hc        1 CNH      0.056033
      9 HC23        1.9180    0.9260    0.2910 hc        1 CNH      0.056033
     10 HC31       -1.5110   -0.0190    1.5420 hc        1 CNH      0.056033
     11 HC32       -0.0050   -0.9650    1.9370 hc        1 CNH      0.056033
     12 HC33        0.0230    0.8570    1.9500 hc        1 CNH      0.056033
     13 HO6        -0.2790    1.2130   -1.4940 ho        1 CNH      0.409000
@<TRIPOS>BOND
     1    1    2 1   
     2    1    3 1   
     3    1    4 1   
     4    1    5 1   
     5    2    7 1   
     6    2    8 1   
     7    2    9 1   
     8    3   10 1   
     9    3   11 1   
    10    3   12 1   
    11    4    6 3   
    12    5   13 1   
@<TRIPOS>SUBSTRUCTURE
     1 CNH         1 TEMP              0 ****  ****    0 ROOT
