@<TRIPOS>MOLECULE
CNH
   13    12     1     0     0
SMALL
bcc


@<TRIPOS>ATOM
      1 C1          0.0050   -0.0300   -0.0290 c3        1 CNH      0.223900
      2 C2          1.5260   -0.0300   -0.1670 c3        1 CNH     -0.106100
      3 C3         -0.4120   -0.0250    1.4410 c3        1 CNH     -0.106100
      4 C4         -0.5450   -1.2160   -0.7020 c1        1 CNH      0.177700
      5 O6         -0.5500    1.1530   -0.5960 oh        1 CNH     -0.579800
      6 N5         -0.9820   -2.1550   -1.2280 n1        1 CNH     -0.356800
      7 HC21        1.8230   -0.0500   -1.2430 hc        1 CNH      0.056033
      8 HC22        1.9580   -0.9210    0.3450 hc        1 CNH      0.056033
      9 HC23        1.9350    0.8970    0.3020 hc        1 CNH      0.056033
     10 HC31       -1.5240    0.0220    1.5230 hc        1 CNH      0.056033
     11 HC32       -0.0390   -0.9500    1.9390 hc        1 CNH      0.056033
     12 HC33        0.0220    0.8720    1.9420 hc        1 CNH      0.056033
     13 HO6        -0.2380    1.2120   -1.5070 ho        1 CNH      0.409000
@<TRIPOS>BOND
     1    1    2 1   
     2    1    3 1   
     3    1    4 1   
     4    1    5 1   
     5    2    7 1   
     6    2    8 1   
     7    2    9 1   
     8    3   10 1   
     9    3   11 1   
    10    3   12 1   
    11    4    6 3   
    12    5   13 1   
@<TRIPOS>SUBSTRUCTURE
     1 CNH         1 TEMP              0 ****  ****    0 ROOT
