@<TRIPOS>MOLECULE
CNH
   13    12     1     0     0
SMALL
bcc


@<TRIPOS>ATOM
      1 C1         -0.2250   -0.0380   -0.2720 c3        1 CNH      0.222900
      2 C2          1.2770    0.0910   -0.4000 c3        1 CNH     -0.125100
      3 C3         -0.6280    0.1630    1.1720 c3        1 CNH     -0.125100
      4 C4         -0.6540   -1.4160   -0.7280 c1        1 CNH      0.224700
      5 O6         -0.8490    0.9360   -1.0730 oh        1 CNH     -0.582800
      6 N5         -0.9760   -2.4540   -1.0720 n1        1 CNH     -0.354800
      7 HC21        1.5330    0.0050   -1.3420 hc        1 CNH      0.054700
      8 HC22        1.7110   -0.6160    0.1230 hc        1 CNH      0.054700
      9 HC23        1.5590    0.9670   -0.0630 hc        1 CNH      0.054700
     10 HC31       -1.6050    0.1440    1.2450 hc        1 CNH      0.054700
     11 HC32       -0.2460   -0.5550    1.7210 hc        1 CNH      0.054700
     12 HC33       -0.2930    1.0280    1.4870 hc        1 CNH      0.054700
     13 HO6        -0.6030    1.7460   -0.8000 ho        1 CNH      0.410000
@<TRIPOS>BOND
     1    1    2 1   
     2    1    3 1   
     3    1    4 1   
     4    1    5 1   
     5    2    7 1   
     6    2    8 1   
     7    2    9 1   
     8    3   10 1   
     9    3   11 1   
    10    3   12 1   
    11    4    6 3   
    12    5   13 1   
@<TRIPOS>SUBSTRUCTURE
     1 CNH         1 TEMP              0 ****  ****    0 ROOT
