@<TRIPOS>MOLECULE
CNI
   19    20     1     0     0
SMALL
bcc


@<TRIPOS>ATOM
      1 C1         -0.0130   -0.0230   -0.0760 c         1 CNI      0.570500
      2 C2          1.5240   -0.0110   -0.0710 c         1 CNI      0.574500
      3 C3         -0.0040   -0.0090    2.2790 ca        1 CNI      0.035000
      4 C4          1.5020    0.0300    2.2840 ca        1 CNI      0.044000
      5 C5         -0.6870   -0.0240    3.5780 ca        1 CNI     -0.038000
      6 C6          2.1700    0.0740    3.5880 ca        1 CNI     -0.073000
      7 C8          1.4750    0.0590    4.7520 ca        1 CNI      0.059000
      8 O1         -0.6430   -0.0250   -1.1320 o         1 CNI     -0.385100
      9 O2          2.1570   -0.0320   -1.1250 o         1 CNI     -0.388100
     10 N2          2.2040    0.0280    1.1880 nc        1 CNI     -0.284400
     11 N1         -0.7010   -0.0340    1.1810 nc        1 CNI     -0.275400
     12 C7          0.0170   -0.0040    4.7370 ca        1 CNI     -0.127200
     13 N3         -0.7310   -0.0500    6.0360 no        1 CNI      0.311200
     14 O3         -1.8680    0.3360    6.0380 o         1 CNI     -0.173500
     15 O5         -0.1860   -0.4810    7.0100 o         1 CNI     -0.173500
     16 C           2.1720    0.1230    5.9900 cg        1 CNI      0.203800
     17 N17         2.7610    0.1770    6.9910 n1        1 CNI     -0.277800
     18 H5         -1.7970   -0.0500    3.5690 ha        1 CNI      0.207000
     19 H6          3.2760    0.1240    3.5870 ha        1 CNI      0.192000
@<TRIPOS>BOND
     1    1    2 1   
     2    1    8 2   
     3    1   11 1   
     4    2    9 2   
     5    2   10 1   
     6    3    4 ar  
     7    3    5 ar  
     8    3   11 2   
     9    4    6 ar  
    10    4   10 2   
    11    5   12 ar  
    12    5   18 1   
    13    6    7 ar  
    14    6   19 1   
    15    7   12 ar  
    16    7   16 1   
    17   12   13 1   
    18   13   14 1   
    19   13   15 1   
    20   16   17 3   
@<TRIPOS>SUBSTRUCTURE
     1 CNI         1 TEMP              0 ****  ****    0 ROOT
