@<TRIPOS>MOLECULE
CNI
   19    20     1     0     0
SMALL
bcc


@<TRIPOS>ATOM
      1 C1          3.1620    0.8330    0.0030 c         1 CNI      0.570500
      2 C2          3.2570   -0.7010    0.0230 c         1 CNI      0.574500
      3 C3          0.8120    0.6690    0.0010 ca        1 CNI      0.035000
      4 C4          0.9050   -0.8340   -0.0060 ca        1 CNI      0.044000
      5 C5         -0.5290    1.2660    0.0080 ca        1 CNI     -0.038000
      6 C6         -0.3520   -1.5870   -0.0300 ca        1 CNI     -0.073000
      7 C8         -1.5580   -0.9700   -0.0240 ca        1 CNI      0.059000
      8 O1          4.1730    1.5310   -0.0140 o         1 CNI     -0.385100
      9 O2          4.3510   -1.2620    0.0520 o         1 CNI     -0.388100
     10 N2          2.0460   -1.4620    0.0050 nc        1 CNI     -0.284400
     11 N1          1.8620    1.4370    0.0060 nc        1 CNI     -0.275400
     12 C7         -1.6400    0.4870    0.0090 ca        1 CNI     -0.127200
     13 N3         -2.9840    1.1490    0.0450 no        1 CNI      0.311200
     14 O3         -3.0630    2.2750   -0.3640 o         1 CNI     -0.173500
     15 O5         -3.9190    0.5510    0.4920 o         1 CNI     -0.173500
     16 C          -2.7480   -1.7480   -0.0670 cg        1 CNI      0.203800
     17 N17        -3.7090   -2.4020   -0.1050 n1        1 CNI     -0.277800
     18 H5         -0.5940    2.3740    0.0110 ha        1 CNI      0.207000
     19 H6         -0.2780   -2.6910   -0.0570 ha        1 CNI      0.192000
@<TRIPOS>BOND
     1    1    2 1   
     2    1    8 2   
     3    1   11 1   
     4    2    9 2   
     5    2   10 1   
     6    3    4 ar  
     7    3    5 ar  
     8    3   11 2   
     9    4    6 ar  
    10    4   10 2   
    11    5   12 ar  
    12    5   18 1   
    13    6    7 ar  
    14    6   19 1   
    15    7   12 ar  
    16    7   16 1   
    17   12   13 1   
    18   13   14 1   
    19   13   15 1   
    20   16   17 3   
@<TRIPOS>SUBSTRUCTURE
     1 CNI         1 TEMP              0 ****  ****    0 ROOT
