@<TRIPOS>MOLECULE
CNI
   19    17     1     0     0
SMALL
bcc


@<TRIPOS>ATOM
      1 C1         -0.6800   -0.0010   -3.3820 c1        1 CNI      0.192000
      2 C2          0.8370   -0.0010   -3.3820 c1        1 CNI      0.196000
      3 C3         -0.6740   -0.0010   -0.9080 c1        1 CNI      0.035000
      4 C4          0.8310   -0.0010   -0.9080 c1        1 CNI      0.044000
      5 C5         -1.4380   -0.0010    0.4170 c2        1 CNI     -0.038000
      6 C6          1.5950   -0.0010    0.4170 c2        1 CNI     -0.073000
      7 C8          0.8370   -0.0010    1.7290 c1        1 CNI      0.063000
      8 O1         -1.2870   -0.0010   -4.4340 o         1 CNI     -0.146000
      9 O2          1.4440   -0.0010   -4.4340 o         1 CNI     -0.149000
     10 N2          1.5480   -0.0010   -2.1510 n2        1 CNI     -0.145000
     11 N1         -1.3910   -0.0010   -2.1510 n2        1 CNI     -0.136000
     12 C7         -0.6800   -0.0010    1.7290 c1        1 CNI     -0.082000
     13 N3         -1.3890   -0.0010    2.9570 no        1 CNI      0.566000
     14 O3         -1.6920   -1.0600    3.4880 o         1 CNI     -0.323500
     15 O5         -1.7330    1.1810    3.5480 o         1 CNI     -0.323500
     16 C           1.5930   -0.0010    3.0390 c1        1 CNI     -0.126000
     17 N17         2.1600   -0.0210    4.0290 n1        1 CNI      0.048000
     18 H5         -2.3880   -0.1960    0.3070 ha        1 CNI      0.207000
     19 H6          2.5080    0.1120    0.0900 ha        1 CNI      0.192000
@<TRIPOS>BOND
     1    1    8 1   
     2    1   11 1   
     3    2    9 1   
     4    2   10 1   
     5    3    5 1   
     6    3   11 1   
     7    4    6 1   
     8    4   10 1   
     9    5   12 1   
    10    5   18 1   
    11    6    7 1   
    12    6   19 1   
    13    7   16 1   
    14   12   13 1   
    15   13   14 1   
    16   13   15 1   
    17   16   17 1   
@<TRIPOS>SUBSTRUCTURE
     1 CNI         1 TEMP              0 ****  ****    0 ROOT
