@<TRIPOS>MOLECULE
CNL
   29    30     1     0     0
SMALL
bcc


@<TRIPOS>ATOM
      1 C1          1.2120   -0.3560   -0.0020 c3        1 CNL      0.153800
      2 C2          1.2200    0.5460   -1.2450 c3        1 CNL     -0.098400
      3 C3          0.0090    1.4680   -1.2110 c3        1 CNL     -0.074400
      4 C4         -0.8350    1.1330    0.0170 c3        1 CNL     -0.083700
      5 C5          0.0100    1.4370    1.2530 c3        1 CNL     -0.074400
      6 C6          1.2200    0.5150    1.2620 c3        1 CNL     -0.098400
      7 C7          2.3730   -1.3330   -0.0150 c3        1 CNL     -0.083100
      8 C8         -1.1880   -0.3680   -0.0020 c3        1 CNL      0.154800
      9 C9         -1.9800   -0.7690    1.2380 c3        1 CNL     -0.098100
     10 C10        -1.9810   -0.7380   -1.2510 c3        1 CNL     -0.098100
     11 O           0.0190   -1.1600   -0.0120 os        1 CNL     -0.414600
     12 H21         2.1680    1.1380   -1.2650 hc        1 CNL      0.049200
     13 H22         1.1920   -0.0980   -2.1600 hc        1 CNL      0.049200
     14 H31        -0.6010    1.3520   -2.1420 hc        1 CNL      0.043700
     15 H32         0.3340    2.5390   -1.1590 hc        1 CNL      0.043700
     16 H4         -1.7770    1.7370    0.0250 hc        1 CNL      0.060700
     17 H51        -0.6000    1.2980    2.1810 hc        1 CNL      0.043700
     18 H52         0.3340    2.5090    1.2270 hc        1 CNL      0.043700
     19 H61         1.1930   -0.1510    2.1620 hc        1 CNL      0.049200
     20 H62         2.1690    1.1060    1.2970 hc        1 CNL      0.049200
     21 H71         2.3270   -1.9950    0.8830 hc        1 CNL      0.044367
     22 H72         2.3270   -1.9720   -0.9290 hc        1 CNL      0.044367
     23 H73         3.3340   -0.7670   -0.0080 hc        1 CNL      0.044367
     24 H91        -2.8570   -0.0920    1.3610 hc        1 CNL      0.041033
     25 H92        -2.3400   -1.8210    1.1360 hc        1 CNL      0.041033
     26 H93        -1.3360   -0.7120    2.1480 hc        1 CNL      0.041033
     27 H101       -1.3370   -0.6580   -2.1590 hc        1 CNL      0.041033
     28 H102       -2.3410   -1.7920   -1.1750 hc        1 CNL      0.041033
     29 H103       -2.8580   -0.0580   -1.3560 hc        1 CNL      0.041033
@<TRIPOS>BOND
     1    1    2 1   
     2    1    6 1   
     3    1    7 1   
     4    1   11 1   
     5    2    3 1   
     6    2   12 1   
     7    2   13 1   
     8    3    4 1   
     9    3   14 1   
    10    3   15 1   
    11    4    5 1   
    12    4    8 1   
    13    4   16 1   
    14    5    6 1   
    15    5   17 1   
    16    5   18 1   
    17    6   19 1   
    18    6   20 1   
    19    7   21 1   
    20    7   22 1   
    21    7   23 1   
    22    8    9 1   
    23    8   10 1   
    24    8   11 1   
    25    9   24 1   
    26    9   25 1   
    27    9   26 1   
    28   10   27 1   
    29   10   28 1   
    30   10   29 1   
@<TRIPOS>SUBSTRUCTURE
     1 CNL         1 TEMP              0 ****  ****    0 ROOT
