@<TRIPOS>MOLECULE
CNL
   29    30     1     0     0
SMALL
bcc


@<TRIPOS>ATOM
      1 C1          0.0070   -0.0280   -0.0220 c3        1 CNL      0.153800
      2 C2          1.5420   -0.0050    0.0110 c3        1 CNL     -0.098400
      3 C3          2.0210   -0.0410    1.4550 c3        1 CNL     -0.074400
      4 C4          0.8060   -0.0230    2.3810 c3        1 CNL     -0.083700
      5 C5          0.0140   -1.3040    2.1250 c3        1 CNL     -0.074400
      6 C6         -0.5000   -1.2900    0.6920 c3        1 CNL     -0.098400
      7 C7         -0.5220    0.0600   -1.4420 c3        1 CNL     -0.083100
      8 C8         -0.0750    1.1960    2.0400 c3        1 CNL      0.154800
      9 C9         -1.3370    1.2270    2.8960 c3        1 CNL     -0.098100
     10 C10         0.6910    2.5030    2.2190 c3        1 CNL     -0.098100
     11 O          -0.4960    1.1340    0.6610 os        1 CNL     -0.414600
     12 H21         1.9010    0.9280   -0.4940 hc        1 CNL      0.049200
     13 H22         1.9370   -0.8810   -0.5610 hc        1 CNL      0.049200
     14 H31         2.6850    0.8330    1.6730 hc        1 CNL      0.043700
     15 H32         2.6200   -0.9690    1.6450 hc        1 CNL      0.043700
     16 H4          1.1260    0.0350    3.4510 hc        1 CNL      0.060700
     17 H51         0.6760   -2.1910    2.2940 hc        1 CNL      0.043700
     18 H52        -0.8360   -1.3830    2.8490 hc        1 CNL      0.043700
     19 H61        -0.1500   -2.1950    0.1360 hc        1 CNL      0.049200
     20 H62        -1.6190   -1.2870    0.6810 hc        1 CNL      0.049200
     21 H71        -0.1630    0.9990   -1.9270 hc        1 CNL      0.044367
     22 H72        -1.6380    0.0700   -1.4340 hc        1 CNL      0.044367
     23 H73        -0.1640   -0.8190   -2.0270 hc        1 CNL      0.044367
     24 H91        -1.8860    2.1850    2.7300 hc        1 CNL      0.041033
     25 H92        -1.0640    1.1430    3.9740 hc        1 CNL      0.041033
     26 H93        -2.0170    0.3880    2.6180 hc        1 CNL      0.041033
     27 H101       -0.0030    3.3700    2.1020 hc        1 CNL      0.041033
     28 H102        1.4910    2.5950    1.4470 hc        1 CNL      0.041033
     29 H103        1.1490    2.5350    3.2350 hc        1 CNL      0.041033
@<TRIPOS>BOND
     1    1    2 1   
     2    1    6 1   
     3    1    7 1   
     4    1   11 1   
     5    2    3 1   
     6    2   12 1   
     7    2   13 1   
     8    3    4 1   
     9    3   14 1   
    10    3   15 1   
    11    4    5 1   
    12    4    8 1   
    13    4   16 1   
    14    5    6 1   
    15    5   17 1   
    16    5   18 1   
    17    6   19 1   
    18    6   20 1   
    19    7   21 1   
    20    7   22 1   
    21    7   23 1   
    22    8    9 1   
    23    8   10 1   
    24    8   11 1   
    25    9   24 1   
    26    9   25 1   
    27    9   26 1   
    28   10   27 1   
    29   10   28 1   
    30   10   29 1   
@<TRIPOS>SUBSTRUCTURE
     1 CNL         1 TEMP              0 ****  ****    0 ROOT
