@<TRIPOS>MOLECULE
CNL
   29    30     1     0     0
SMALL
bcc


@<TRIPOS>ATOM
      1 C1          0.0060   -0.0280   -0.0220 c3        1 CNL      0.153800
      2 C2          1.5410   -0.0030    0.0090 c3        1 CNL     -0.098400
      3 C3          2.0220   -0.0400    1.4520 c3        1 CNL     -0.074400
      4 C4          0.8080   -0.0240    2.3800 c3        1 CNL     -0.083700
      5 C5          0.0170   -1.3050    2.1240 c3        1 CNL     -0.074400
      6 C6         -0.4990   -1.2900    0.6920 c3        1 CNL     -0.098400
      7 C7         -0.5260    0.0620   -1.4410 c3        1 CNL     -0.083100
      8 C8         -0.0750    1.1950    2.0410 c3        1 CNL      0.154800
      9 C9         -1.3360    1.2240    2.8990 c3        1 CNL     -0.098100
     10 C10         0.6900    2.5030    2.2210 c3        1 CNL     -0.098100
     11 O          -0.4970    1.1340    0.6620 os        1 CNL     -0.414600
     12 H21         1.8980    0.9310   -0.4950 hc        1 CNL      0.049200
     13 H22         1.9360   -0.8780   -0.5640 hc        1 CNL      0.049200
     14 H31         2.6850    0.8350    1.6700 hc        1 CNL      0.043700
     15 H32         2.6220   -0.9660    1.6410 hc        1 CNL      0.043700
     16 H4          1.1290    0.0340    3.4490 hc        1 CNL      0.060700
     17 H51         0.6800   -2.1920    2.2910 hc        1 CNL      0.043700
     18 H52        -0.8320   -1.3850    2.8490 hc        1 CNL      0.043700
     19 H61        -0.1490   -2.1940    0.1340 hc        1 CNL      0.049200
     20 H62        -1.6190   -1.2880    0.6830 hc        1 CNL      0.049200
     21 H71        -0.1660    1.0000   -1.9260 hc        1 CNL      0.044367
     22 H72        -1.6410    0.0710   -1.4320 hc        1 CNL      0.044367
     23 H73        -0.1680   -0.8170   -2.0270 hc        1 CNL      0.044367
     24 H91        -1.8860    2.1820    2.7340 hc        1 CNL      0.041033
     25 H92        -1.0610    1.1400    3.9760 hc        1 CNL      0.041033
     26 H93        -2.0150    0.3840    2.6210 hc        1 CNL      0.041033
     27 H101       -0.0050    3.3690    2.1050 hc        1 CNL      0.041033
     28 H102        1.4890    2.5960    1.4480 hc        1 CNL      0.041033
     29 H103        1.1490    2.5350    3.2360 hc        1 CNL      0.041033
@<TRIPOS>BOND
     1    1    2 1   
     2    1    6 1   
     3    1    7 1   
     4    1   11 1   
     5    2    3 1   
     6    2   12 1   
     7    2   13 1   
     8    3    4 1   
     9    3   14 1   
    10    3   15 1   
    11    4    5 1   
    12    4    8 1   
    13    4   16 1   
    14    5    6 1   
    15    5   17 1   
    16    5   18 1   
    17    6   19 1   
    18    6   20 1   
    19    7   21 1   
    20    7   22 1   
    21    7   23 1   
    22    8    9 1   
    23    8   10 1   
    24    8   11 1   
    25    9   24 1   
    26    9   25 1   
    27    9   26 1   
    28   10   27 1   
    29   10   28 1   
    30   10   29 1   
@<TRIPOS>SUBSTRUCTURE
     1 CNL         1 TEMP              0 ****  ****    0 ROOT
