@<TRIPOS>MOLECULE
CNL
   29    30     1     0     0
SMALL
bcc


@<TRIPOS>ATOM
      1 C1         -0.4220   -0.4250   -1.3170 c3        1 CNL      0.153800
      2 C2          1.0370   -0.4250   -1.3170 c3        1 CNL     -0.098400
      3 C3          1.6130   -0.4250   -0.0350 c3        1 CNL     -0.074400
      4 C4          0.6520   -0.4180    1.0420 c3        1 CNL     -0.083700
      5 C5         -0.4600   -1.3240    0.8960 c3        1 CNL     -0.074400
      6 C6         -1.0450   -1.3190   -0.3940 c3        1 CNL     -0.098400
      7 C7         -0.9770   -0.6220   -2.7410 c3        1 CNL     -0.083100
      8 C8         -0.0110    0.9810    0.9210 c3        1 CNL      0.154800
      9 C9         -1.0910    1.1620    2.0030 c3        1 CNL     -0.098100
     10 C10         1.0500    2.0920    1.0210 c3        1 CNL     -0.098100
     11 O          -0.7830    0.9660   -0.7750 os        1 CNL     -0.414600
     12 H21         1.3460   -1.2180   -1.7950 hc        1 CNL      0.049200
     13 H22         1.3460    0.3670   -1.7950 hc        1 CNL      0.049200
     14 H31         2.1720   -1.2200    0.0530 hc        1 CNL      0.043700
     15 H32         2.1790    0.3650    0.0500 hc        1 CNL      0.043700
     16 H4          1.0880   -0.5260    1.9090 hc        1 CNL      0.060700
     17 H51        -1.1450   -1.0820    1.5480 hc        1 CNL      0.043700
     18 H52        -0.1510   -2.2290    1.0920 hc        1 CNL      0.043700
     19 H61        -0.9980   -2.2230   -0.7590 hc        1 CNL      0.049200
     20 H62        -1.9850   -1.0680   -0.3060 hc        1 CNL      0.049200
     21 H71        -0.7320   -1.5090   -3.0660 hc        1 CNL      0.044367
     22 H72        -0.6000    0.0560   -3.3330 hc        1 CNL      0.044367
     23 H73        -1.9490   -0.5370   -2.7260 hc        1 CNL      0.044367
     24 H91        -1.2080    2.1130    2.1900 hc        1 CNL      0.041033
     25 H92        -1.9340    0.7860    1.6880 hc        1 CNL      0.041033
     26 H93        -0.8140    0.7030    2.8190 hc        1 CNL      0.041033
     27 H101        1.4400    2.2500    0.1400 hc        1 CNL      0.041033
     28 H102        0.6310    2.9130    1.3440 hc        1 CNL      0.041033
     29 H103        1.7500    1.8180    1.6430 hc        1 CNL      0.041033
@<TRIPOS>BOND
     1    1    2 1   
     2    1    6 1   
     3    1    7 1   
     4    1   11 1   
     5    2    3 1   
     6    2   12 1   
     7    2   13 1   
     8    3    4 1   
     9    3   14 1   
    10    3   15 1   
    11    4    5 1   
    12    4    8 1   
    13    4   16 1   
    14    5    6 1   
    15    5   17 1   
    16    5   18 1   
    17    6   19 1   
    18    6   20 1   
    19    7   21 1   
    20    7   22 1   
    21    7   23 1   
    22    8    9 1   
    23    8   10 1   
    24    8   11 1   
    25    9   24 1   
    26    9   25 1   
    27    9   26 1   
    28   10   27 1   
    29   10   28 1   
    30   10   29 1   
@<TRIPOS>SUBSTRUCTURE
     1 CNL         1 TEMP              0 ****  ****    0 ROOT
