@<TRIPOS>MOLECULE
CNM
   10     9     1     0     0
SMALL
bcc


@<TRIPOS>ATOM
      1 C1          0.0830   -0.0040   -0.1030 c         1 CNM      0.556100
      2 O1          1.2930   -0.0080    0.0250 o         1 CNM     -0.372100
      3 N1         -0.6870    0.0270    1.2140 nz        1 CNM     -0.773400
      4 C2         -0.7540   -0.0260   -1.3310 c3        1 CNM     -0.189100
      5 HN1        -0.0330    0.0430    2.0070 hn        1 CNM      0.470800
      6 HN2        -1.2830   -0.8020    1.2910 hn        1 CNM      0.470800
      7 H21        -0.0710   -0.0550   -2.2240 hc        1 CNM      0.122700
      8 H22        -1.3910    0.8940   -1.3990 hc        1 CNM      0.122700
      9 H23        -1.4110   -0.9330   -1.3550 hc        1 CNM      0.122700
     10 H13        -1.2780    0.8630    1.2540 hn        1 CNM      0.470800
@<TRIPOS>BOND
     1    1    2 2   
     2    1    3 1   
     3    1    4 1   
     4    3    5 1   
     5    3    6 1   
     6    3   10 1   
     7    4    7 1   
     8    4    8 1   
     9    4    9 1   
@<TRIPOS>SUBSTRUCTURE
     1 CNM         1 TEMP              0 ****  ****    0 ROOT
