@<TRIPOS>MOLECULE
CNM
    9     7     1     0     0
SMALL
bcc


@<TRIPOS>ATOM
      1 C1          0.5430    0.0000    0.1790 c1        1 CNM      0.300000
      2 O1          1.7570    0.0000    0.1790 o         1 CNM     -0.374000
      3 N1         -0.1670    0.0000    1.4080 n2        1 CNM     -0.443000
      4 C2         -0.2140    0.0000   -1.1310 c3        1 CNM     -0.242000
      5 HN1        -1.0790    0.0000    1.4080 hn        1 CNM      0.223500
      6 HN2         0.2890    0.0000    2.1970 hn        1 CNM      0.223500
      7 H21        -0.7750    0.7970   -1.1830 hc        1 CNM      0.104667
      8 H22        -0.7750   -0.7970   -1.1830 hc        1 CNM      0.104667
      9 H23         0.4200    0.0000   -1.8730 hc        1 CNM      0.104667
@<TRIPOS>BOND
     1    1    2 1   
     2    1    4 1   
     3    3    5 1   
     4    3    6 1   
     5    4    7 1   
     6    4    8 1   
     7    4    9 1   
@<TRIPOS>SUBSTRUCTURE
     1 CNM         1 TEMP              0 ****  ****    0 ROOT
