@<TRIPOS>MOLECULE
CNM
   10     9     1     0     0
SMALL
bcc


@<TRIPOS>ATOM
      1 C1          0.0840   -0.0030   -0.1020 c         1 CNM      0.556100
      2 O1          1.2930   -0.0020    0.0270 o         1 CNM     -0.372100
      3 N1         -0.6880    0.0330    1.2140 n4        1 CNM     -0.773400
      4 C2         -0.7530   -0.0330   -1.3310 c3        1 CNM     -0.189100
      5 HN1        -1.2820    0.8670    1.2480 hn        1 CNM      0.470800
      6 HN2        -1.2810   -0.7980    1.2950 hn        1 CNM      0.470800
      7 H21        -1.3870    0.8870   -1.4070 hc        1 CNM      0.122700
      8 H22        -1.4110   -0.9390   -1.3490 hc        1 CNM      0.122700
      9 H23        -0.0690   -0.0700   -2.2230 hc        1 CNM      0.122700
     10 H13        -0.0350    0.0560    2.0070 hn        1 CNM      0.470800
@<TRIPOS>BOND
     1    1    2 2   
     2    1    3 1   
     3    1    4 1   
     4    3    5 1   
     5    3    6 1   
     6    3   10 1   
     7    4    7 1   
     8    4    8 1   
     9    4    9 1   
@<TRIPOS>SUBSTRUCTURE
     1 CNM         1 TEMP              0 ****  ****    0 ROOT
