@<TRIPOS>MOLECULE
CNM
    9     8     1     0     0
SMALL
bcc


@<TRIPOS>ATOM
      1 C1          0.0820   -0.0000   -0.0240 c         1 CNM      0.656100
      2 O1          1.2980   -0.0000   -0.3050 o         1 CNM     -0.613100
      3 N1         -0.8530   -0.0000   -1.0320 n         1 CNM     -0.683000
      4 C2         -0.4090    0.0000    1.4020 c3        1 CNM     -0.174100
      5 HN1        -0.5570   -0.0000   -1.9750 hn        1 CNM      0.310000
      6 HN2        -1.8180   -0.0000   -0.8330 hn        1 CNM      0.310000
      7 H21         0.4740    0.0000    2.0860 hc        1 CNM      0.065367
      8 H22        -1.0240    0.9090    1.6040 hc        1 CNM      0.065367
      9 H23        -1.0240   -0.9090    1.6040 hc        1 CNM      0.065367
@<TRIPOS>BOND
     1    1    2 2   
     2    1    3 1   
     3    1    4 1   
     4    3    5 1   
     5    3    6 1   
     6    4    7 1   
     7    4    8 1   
     8    4    9 1   
@<TRIPOS>SUBSTRUCTURE
     1 CNM         1 TEMP              0 ****  ****    0 ROOT
