@<TRIPOS>MOLECULE
CNM
   10     9     1     0     0
SMALL
bcc


@<TRIPOS>ATOM
      1 C1          0.0840   -0.0100   -0.1000 c         1 CNM      0.556100
      2 O1          1.2920   -0.0210    0.0340 o         1 CNM     -0.372100
      3 N1         -0.6930    0.0460    1.2130 n4        1 CNM     -0.773400
      4 C2         -0.7490   -0.0420   -1.3310 c3        1 CNM     -0.189100
      5 HN1        -0.0420    0.0650    2.0090 hn        1 CNM      0.470800
      6 HN2        -1.2970   -0.7760    1.2970 hn        1 CNM      0.470800
      7 H21        -0.0620   -0.0820   -2.2210 hc        1 CNM      0.122700
      8 H22        -1.3830    0.8780   -1.4130 hc        1 CNM      0.122700
      9 H23        -1.4070   -0.9480   -1.3490 hc        1 CNM      0.122700
     10 H13        -1.2750    0.8880    1.2390 hn        1 CNM      0.470800
@<TRIPOS>BOND
     1    1    2 2   
     2    1    3 1   
     3    1    4 1   
     4    3    5 1   
     5    3    6 1   
     6    3   10 1   
     7    4    7 1   
     8    4    8 1   
     9    4    9 1   
@<TRIPOS>SUBSTRUCTURE
     1 CNM         1 TEMP              0 ****  ****    0 ROOT
