@<TRIPOS>MOLECULE
CNN
    6     5     1     0     0
SMALL
bcc


@<TRIPOS>ATOM
      1 N1         -0.0170   -0.0000    0.0000 nz        1 CNN     -0.617200
      2 C           1.3880    0.0000    0.0090 c1        1 CNN      0.178600
      3 N2          2.5520    0.0000    0.0170 n1        1 CNN     -0.074800
      4 HN11       -0.3640    0.8470    0.4870 hn        1 CNN      0.504800
      5 HN12       -0.3540    0.0000   -0.9800 hn        1 CNN      0.504800
      6 H13        -0.3640   -0.8470    0.4860 hn        1 CNN      0.504800
@<TRIPOS>BOND
     1    1    2 1   
     2    1    4 1   
     3    1    5 1   
     4    1    6 1   
     5    2    3 3   
@<TRIPOS>SUBSTRUCTURE
     1 CNN         1 TEMP              0 ****  ****    0 ROOT
