@<TRIPOS>MOLECULE
CNN
    5     4     1     0     0
SMALL
bcc


@<TRIPOS>ATOM
      1 N1         -0.0000   -0.2370    1.2150 n3        1 CNN     -0.718400
      2 C           0.0000   -0.0260   -0.1310 c1        1 CNN      0.297600
      3 N2          0.0000    0.0570   -1.2980 n1        1 CNN     -0.390800
      4 HN11       -0.8330    0.1040    1.6530 hn        1 CNN      0.405800
      5 HN12        0.8330    0.1040    1.6530 hn        1 CNN      0.405800
@<TRIPOS>BOND
     1    1    2 1   
     2    1    4 1   
     3    1    5 1   
     4    2    3 3   
@<TRIPOS>SUBSTRUCTURE
     1 CNN         1 TEMP              0 ****  ****    0 ROOT
