@<TRIPOS>MOLECULE
CNN
    5     4     1     0     0
SMALL
bcc


@<TRIPOS>ATOM
      1 N1         -0.6970   -0.0390   -0.2080 n3        1 CNN     -0.718400
      2 C           0.7250   -0.0390   -0.2080 c1        1 CNN      0.297600
      3 N2          1.8650   -0.0390   -0.1880 n1        1 CNN     -0.390800
      4 HN11       -1.0010   -0.6380    0.4100 hn        1 CNN      0.405800
      5 HN12       -0.8920    0.7560    0.1940 hn        1 CNN      0.405800
@<TRIPOS>BOND
     1    1    2 1   
     2    1    4 1   
     3    1    5 1   
     4    2    3 3   
@<TRIPOS>SUBSTRUCTURE
     1 CNN         1 TEMP              0 ****  ****    0 ROOT
