@<TRIPOS>MOLECULE
CNO
   70    65     1     0     0
SMALL
bcc


@<TRIPOS>ATOM
      1 C1          9.1900   -2.1940    3.1040 c1        1 CNO      0.324000
      2 O2         10.3790   -1.9940    2.7410 os        1 CNO     -0.572000
      3 O3          8.2370   -1.8310    2.3660 o         1 CNO     -0.539000
      4 C4          8.9060   -2.8860    4.4190 c3        1 CNO      0.002000
      5 C5          9.5950   -2.1390    5.5420 c3        1 CNO     -0.204500
      6 C6          9.4280   -4.3070    4.3650 c3        1 CNO     -0.204500
      7 O7          7.5170   -2.9040    4.6500 os        1 CNO     -0.211000
      8 C8          6.7740   -2.1530    3.7190 c2        1 CNO      0.144000
      9 C9          6.1220   -2.7920    2.6760 c2        1 CNO     -0.191000
     10 C10         5.3740   -2.0540    1.7700 c1        1 CNO     -0.114000
     11 C11         6.6790   -0.7770    3.8570 c1        1 CNO     -0.197000
     12 C12         5.9310   -0.0390    2.9520 c1        1 CNO     -0.080000
     13 C13         5.2790   -0.6780    1.9080 c1        1 CNO     -0.172000
     14 C14         4.5670    0.1400    0.8470 c3        1 CNO     -0.125000
     15 C15         3.0850    0.2050    1.1680 c2        1 CNO      0.314000
     16 O16         2.7170    0.5980    2.2550 o         1 CNO     -0.380000
     17 N17         2.1250   -0.0990    0.1580 n         1 CNO     -0.322000
     18 C18         0.7340    0.0600    0.4260 c2        1 CNO      0.106000
     19 C19        -0.2050   -0.5610   -0.3860 c2        1 CNO     -0.234000
     20 C20         0.3190    0.8310    1.5010 c1        1 CNO     -0.183000
     21 C21        -1.0350    0.9820    1.7640 c1        1 CNO     -0.138500
     22 C22        -1.9740    0.3610    0.9520 c1        1 CNO     -0.138500
     23 C23        -1.5580   -0.4100   -0.1220 c1        1 CNO      0.106000
     24 N24        -2.5230   -1.0560   -0.9510 n         1 CNO     -0.322000
     25 C25        -3.8890   -0.6510   -0.9030 c2        1 CNO      0.314000
     26 O26        -4.2310    0.2430   -0.1570 o         1 CNO     -0.380000
     27 C27        -4.9270   -1.3890   -1.7280 c3        1 CNO     -0.125000
     28 C28        -5.7820   -0.3870   -2.4780 c2        1 CNO     -0.172000
     29 C29        -6.9930    0.0260   -1.9460 c2        1 CNO     -0.081000
     30 C30        -7.8050    0.8930   -2.6610 c1        1 CNO     -0.197000
     31 C31        -5.3820    0.0680   -3.7250 c1        1 CNO     -0.114000
     32 C32        -6.1940    0.9360   -4.4400 c1        1 CNO     -0.191000
     33 C33        -7.4060    1.3480   -3.9080 c1        1 CNO      0.144000
     34 O34        -8.2710    2.1550   -4.6710 os        1 CNO     -0.211000
     35 C35        -8.0830    3.5340   -4.4780 c3        1 CNO      0.002000
     36 C36        -7.5800    4.1610   -5.7620 c3        1 CNO     -0.204500
     37 C37        -9.3980    4.1730   -4.0860 c3        1 CNO     -0.204500
     38 C38        -7.0680    3.7560   -3.3770 c2        1 CNO      0.324000
     39 O39        -6.7870    2.8200   -2.5820 o         1 CNO     -0.555500
     40 O40        -6.5310    4.8850   -3.2350 o         1 CNO     -0.555500
     41 HC51        9.6020   -2.6960    6.3490 hc        1 CNO      0.073167
     42 HC52        9.1120   -1.3060    5.7240 hc        1 CNO      0.073167
     43 H53C       10.5160   -1.9320    5.2800 hc        1 CNO      0.073167
     44 HC61        8.8120   -4.8610    3.8410 hc        1 CNO      0.073167
     45 HC62       10.3130   -4.3140    3.9430 hc        1 CNO      0.073167
     46 HC63        9.4960   -4.6650    5.2750 hc        1 CNO      0.073167
     47 HC9         6.1730   -3.7630    2.5900 ha        1 CNO      0.136000
     48 H10C        4.9210   -2.5030    1.0320 ha        1 CNO      0.111000
     49 H11C        7.1380   -0.3270    4.5920 ha        1 CNO      0.203000
     50 H12C        5.8640    0.9300    3.0490 ha        1 CNO      0.126000
     51 H141        4.9360    1.0460    0.8320 hc        1 CNO      0.109500
     52 H142        4.6930   -0.2780   -0.0270 hc        1 CNO      0.109500
     53 H17N        2.4020   -0.3790   -0.6660 hn        1 CNO      0.243000
     54 H19C        0.0870   -1.0900   -1.1530 ha        1 CNO      0.131000
     55 H20C        0.9760    1.3070    2.0410 ha        1 CNO      0.166000
     56 H21C       -1.3270    1.5020    2.5370 ha        1 CNO      0.145000
     57 H22C       -2.9230    0.4420    1.1560 ha        1 CNO      0.145000
     58 H24N       -2.2690   -1.7420   -1.4960 hn        1 CNO      0.243000
     59 H271       -4.4770   -1.9770   -2.3670 hc        1 CNO      0.109500
     60 H272       -5.4940   -1.9230   -1.1370 hc        1 CNO      0.109500
     61 H29C       -7.2940   -0.3280   -1.0870 ha        1 CNO      0.126000
     62 H30C       -8.6610    1.1780   -2.2890 ha        1 CNO      0.203000
     63 H31C       -4.5480   -0.2540   -4.1180 ha        1 CNO      0.111000
     64 H32C       -5.9220    1.2400   -5.3260 ha        1 CNO      0.136000
     65 H361       -8.3250    4.2560   -6.3920 hc        1 CNO      0.073167
     66 H362       -6.8890    3.5880   -6.1560 hc        1 CNO      0.073167
     67 H363       -7.2010    5.0440   -5.5680 hc        1 CNO      0.073167
     68 H371       -9.9650    4.2690   -4.8810 hc        1 CNO      0.073167
     69 H372       -9.2300    5.0560   -3.6970 hc        1 CNO      0.073167
     70 H373       -9.8530    3.6070   -3.4280 hc        1 CNO      0.073167
@<TRIPOS>BOND
     1    1    3 1   
     2    1    4 1   
     3    4    5 1   
     4    4    6 1   
     5    4    7 1   
     6    5   41 1   
     7    5   42 1   
     8    5   43 1   
     9    6   44 1   
    10    6   45 1   
    11    6   46 1   
    12    7    8 1   
    13    8    9 1   
    14    8   11 1   
    15    9   10 1   
    16    9   47 1   
    17   10   48 1   
    18   11   49 1   
    19   12   13 1   
    20   12   50 1   
    21   13   14 1   
    22   14   15 1   
    23   14   51 1   
    24   14   52 1   
    25   15   16 1   
    26   15   17 1   
    27   17   18 1   
    28   17   53 1   
    29   18   19 1   
    30   18   20 1   
    31   19   23 1   
    32   19   54 1   
    33   20   55 1   
    34   21   22 1   
    35   21   56 1   
    36   22   57 1   
    37   23   24 1   
    38   24   25 1   
    39   24   58 1   
    40   25   26 1   
    41   25   27 1   
    42   27   28 1   
    43   27   59 1   
    44   27   60 1   
    45   28   29 1   
    46   28   31 1   
    47   29   30 1   
    48   29   61 1   
    49   30   62 1   
    50   31   63 1   
    51   32   33 1   
    52   32   64 1   
    53   33   34 1   
    54   34   35 1   
    55   35   36 1   
    56   35   37 1   
    57   35   38 1   
    58   36   65 1   
    59   36   66 1   
    60   36   67 1   
    61   37   68 1   
    62   37   69 1   
    63   37   70 1   
    64   38   39 1   
    65   38   40 1   
@<TRIPOS>SUBSTRUCTURE
     1 CNO         1 TEMP              0 ****  ****    0 ROOT
