@<TRIPOS>MOLECULE
CNO
   70    72     1     0     0
SMALL
bcc


@<TRIPOS>ATOM
      1 C1         -1.5920   -3.6240   -3.0360 c         1 CNO      0.939600
      2 O2         -1.7440   -4.0730   -1.8710 o         1 CNO     -0.815300
      3 O3         -1.1610   -4.2700   -4.0230 o         1 CNO     -0.815300
      4 C4         -1.9120   -2.0800   -3.2750 c3        1 CNO      0.015300
      5 C5         -0.6940   -1.4710   -3.9440 c3        1 CNO     -0.104850
      6 C6         -2.2800   -1.3720   -1.9850 c3        1 CNO     -0.104850
      7 O7         -3.0370   -2.1330   -4.1780 os        1 CNO     -0.308900
      8 C8         -3.5390   -0.9980   -4.7410 ca        1 CNO      0.165600
      9 C9         -4.4450   -1.2350   -5.8060 ca        1 CNO     -0.178000
     10 C10        -5.0420   -0.1700   -6.4610 ca        1 CNO     -0.105000
     11 C11        -3.2780    0.3270   -4.3520 ca        1 CNO     -0.178000
     12 C12        -3.8820    1.3820   -5.0270 ca        1 CNO     -0.105000
     13 C13        -4.7610    1.1530   -6.0890 ca        1 CNO     -0.159300
     14 C14        -5.3440    2.2920   -6.8380 c3        1 CNO     -0.095600
     15 C15        -6.5960    2.8720   -6.1890 c         1 CNO      0.671600
     16 O16        -6.6710    4.0920   -5.9440 o         1 CNO     -0.612100
     17 N17        -7.6310    1.9820   -5.9460 ns        1 CNO     -0.469600
     18 C18        -8.8900    2.2840   -5.4000 ca        1 CNO      0.095100
     19 C19        -9.9430    1.3620   -5.5910 ca        1 CNO     -0.227000
     20 C20        -9.1350    3.4600   -4.6610 ca        1 CNO     -0.176000
     21 C21       -10.4000    3.6890   -4.1340 ca        1 CNO     -0.095000
     22 C22       -11.4440    2.7890   -4.3140 ca        1 CNO     -0.176000
     23 C23       -11.2240    1.6080   -5.0520 ca        1 CNO      0.095100
     24 N24       -12.2410    0.6650   -5.2860 ns        1 CNO     -0.469600
     25 C25       -13.4000    0.4990   -4.5460 c         1 CNO      0.671600
     26 O26       -13.6860    1.2000   -3.5560 o         1 CNO     -0.612100
     27 C27       -14.3150   -0.6440   -4.9710 c3        1 CNO     -0.095600
     28 C28       -14.7950   -0.5230   -6.3710 ca        1 CNO     -0.159300
     29 C29       -14.1390   -1.1940   -7.4110 ca        1 CNO     -0.105000
     30 C30       -14.6270   -1.1320   -8.7130 ca        1 CNO     -0.178000
     31 C31       -15.9420    0.2290   -6.6550 ca        1 CNO     -0.105000
     32 C32       -16.4390    0.3000   -7.9520 ca        1 CNO     -0.178000
     33 C33       -15.7910   -0.3940   -8.9880 ca        1 CNO      0.165600
     34 O34       -16.3770   -0.4700  -10.2330 os        1 CNO     -0.308900
     35 C35       -15.9960    0.5510  -11.1870 c3        1 CNO      0.015300
     36 C36       -16.2940    1.9350  -10.6470 c3        1 CNO     -0.104850
     37 C37       -14.5300    0.4070  -11.5480 c3        1 CNO     -0.104850
     38 C38       -16.9090    0.2530  -12.4440 c         1 CNO      0.939600
     39 O39       -18.0430    0.7980  -12.4700 o         1 CNO     -0.815300
     40 O40       -16.4230   -0.4740  -13.3480 o         1 CNO     -0.815300
     41 HC51       -0.4390   -2.0750   -4.8500 hc        1 CNO      0.034033
     42 HC52        0.1660   -1.5120   -3.2340 hc        1 CNO      0.034033
     43 H53C       -0.8630   -0.4120   -4.2470 hc        1 CNO      0.034033
     44 HC61       -1.6980   -0.4270   -1.8550 hc        1 CNO      0.034033
     45 HC62       -3.3690   -1.1280   -1.9690 hc        1 CNO      0.034033
     46 HC63       -2.0610   -2.0460   -1.1180 hc        1 CNO      0.034033
     47 HC9        -4.6510   -2.2740   -6.0980 ha        1 CNO      0.149000
     48 H10C       -5.7320   -0.3660   -7.2960 ha        1 CNO      0.118750
     49 H11C       -2.5960    0.5370   -3.5160 ha        1 CNO      0.149000
     50 H12C       -3.6630    2.4160   -4.7180 ha        1 CNO      0.118750
     51 H141       -5.6070    1.9820   -7.8850 hc        1 CNO      0.070700
     52 H142       -4.5980    3.1300   -6.9070 hc        1 CNO      0.070700
     53 H17N       -7.4500    1.0200   -6.1330 hn        1 CNO      0.326500
     54 H19C       -9.7620    0.4410   -6.1680 ha        1 CNO      0.130000
     55 H20C       -8.3340    4.2000   -4.5060 ha        1 CNO      0.164500
     56 H21C      -10.5810    4.6100   -3.5580 ha        1 CNO      0.127000
     57 H22C      -12.4310    2.9980   -3.8740 ha        1 CNO      0.164500
     58 H24N      -12.1240    0.0800   -6.0840 hn        1 CNO      0.326500
     59 H271      -13.7640   -1.6120   -4.8270 hc        1 CNO      0.070700
     60 H272      -15.1890   -0.6400   -4.2650 hc        1 CNO      0.070700
     61 H29C      -13.2390   -1.7880   -7.1960 ha        1 CNO      0.118750
     62 H30C      -14.1230   -1.6610   -9.5350 ha        1 CNO      0.149000
     63 H31C      -16.4540    0.7650   -5.8430 ha        1 CNO      0.118750
     64 H32C      -17.3420    0.8840   -8.1840 ha        1 CNO      0.149000
     65 H361      -15.7030    2.1470   -9.7250 hc        1 CNO      0.034033
     66 H362      -16.0440    2.6940  -11.4260 hc        1 CNO      0.034033
     67 H363      -17.3850    2.0130  -10.4160 hc        1 CNO      0.034033
     68 H371      -13.8790    0.5570  -10.6540 hc        1 CNO      0.034033
     69 H372      -14.2690    1.1610  -12.3270 hc        1 CNO      0.034033
     70 H373      -14.3540   -0.6120  -11.9700 hc        1 CNO      0.034033
@<TRIPOS>BOND
     1    1    2 1   
     2    1    3 1   
     3    1    4 1   
     4    4    5 1   
     5    4    6 1   
     6    4    7 1   
     7    5   41 1   
     8    5   42 1   
     9    5   43 1   
    10    6   44 1   
    11    6   45 1   
    12    6   46 1   
    13    7    8 1   
    14    8    9 ar  
    15    8   11 ar  
    16    9   10 ar  
    17    9   47 1   
    18   10   13 ar  
    19   10   48 1   
    20   11   12 ar  
    21   11   49 1   
    22   12   13 ar  
    23   12   50 1   
    24   13   14 1   
    25   14   15 1   
    26   14   51 1   
    27   14   52 1   
    28   15   16 2   
    29   15   17 1   
    30   17   18 1   
    31   17   53 1   
    32   18   19 ar  
    33   18   20 ar  
    34   19   23 ar  
    35   19   54 1   
    36   20   21 ar  
    37   20   55 1   
    38   21   22 ar  
    39   21   56 1   
    40   22   23 ar  
    41   22   57 1   
    42   23   24 1   
    43   24   25 1   
    44   24   58 1   
    45   25   26 2   
    46   25   27 1   
    47   27   28 1   
    48   27   59 1   
    49   27   60 1   
    50   28   29 ar  
    51   28   31 ar  
    52   29   30 ar  
    53   29   61 1   
    54   30   33 ar  
    55   30   62 1   
    56   31   32 ar  
    57   31   63 1   
    58   32   33 ar  
    59   32   64 1   
    60   33   34 1   
    61   34   35 1   
    62   35   36 1   
    63   35   37 1   
    64   35   38 1   
    65   36   65 1   
    66   36   66 1   
    67   36   67 1   
    68   37   68 1   
    69   37   69 1   
    70   37   70 1   
    71   38   39 1   
    72   38   40 1   
@<TRIPOS>SUBSTRUCTURE
     1 CNO         1 TEMP              0 ****  ****    0 ROOT
