@<TRIPOS>MOLECULE
CNO
   70    72     1     0     0
SMALL
bcc


@<TRIPOS>ATOM
      1 C1          3.0220   -0.2450    8.6840 c         1 CNO      0.939600
      2 O2          3.9830    0.5630    8.6090 o         1 CNO     -0.812300
      3 O3          2.5270   -0.7050    9.7420 o         1 CNO     -0.812300
      4 C4          2.4090   -0.7850    7.3140 c3        1 CNO      0.009300
      5 C5          2.3940   -2.2990    7.3950 c3        1 CNO     -0.108350
      6 C6          3.1780   -0.2780    6.1080 c3        1 CNO     -0.108350
      7 O7          1.0720   -0.2400    7.3410 os        1 CNO     -0.289900
      8 C8          0.1450   -0.6020    6.4100 ca        1 CNO      0.184100
      9 C9         -1.1830   -0.2460    6.7550 ca        1 CNO     -0.202000
     10 C10        -2.2260   -0.5360    5.8930 ca        1 CNO     -0.091000
     11 C11         0.3840   -1.2300    5.1760 ca        1 CNO     -0.202000
     12 C12        -0.6790   -1.5180    4.3250 ca        1 CNO     -0.091000
     13 C13        -1.9920   -1.1850    4.6710 ca        1 CNO     -0.179300
     14 C14        -3.1300   -1.5530    3.7940 c3        1 CNO     -0.091100
     15 C15        -3.5680   -0.4320    2.8570 c         1 CNO      0.671100
     16 O16        -4.7590   -0.0680    2.8260 o         1 CNO     -0.614100
     17 N17        -2.5880    0.0990    2.0340 n         1 CNO     -0.469100
     18 C18        -2.7560    1.0960    1.0580 ca        1 CNO      0.095600
     19 C19        -1.7730    1.2240    0.0530 ca        1 CNO     -0.229000
     20 C20        -3.8600    1.9740    1.0540 ca        1 CNO     -0.178000
     21 C21        -3.9580    2.9480    0.0680 ca        1 CNO     -0.095000
     22 C22        -2.9960    3.0860   -0.9260 ca        1 CNO     -0.178000
     23 C23        -1.8850    2.2180   -0.9450 ca        1 CNO      0.095600
     24 N24        -0.8840    2.2930   -1.9280 n         1 CNO     -0.469100
     25 C25        -0.6000    3.3770   -2.7430 c         1 CNO      0.671100
     26 O26        -1.2300    4.4520   -2.6960 o         1 CNO     -0.614100
     27 C27         0.5840    3.2200   -3.6900 c3        1 CNO     -0.091100
     28 C28         0.4840    2.0370   -4.5780 ca        1 CNO     -0.179300
     29 C29        -0.2060    2.1290   -5.7970 ca        1 CNO     -0.091000
     30 C30        -0.2550    1.0550   -6.6680 ca        1 CNO     -0.202000
     31 C31         1.1110    0.8330   -4.2480 ca        1 CNO     -0.091000
     32 C32         1.0750   -0.2580   -5.1110 ca        1 CNO     -0.202000
     33 C33         0.4000   -0.1600   -6.3400 ca        1 CNO      0.184100
     34 O34         0.3110   -1.1070   -7.3140 os        1 CNO     -0.289900
     35 C35         0.8310   -2.4400   -7.1190 c3        1 CNO      0.009300
     36 C36         2.3230   -2.4240   -6.8440 c3        1 CNO     -0.108350
     37 C37         0.0520   -3.1730   -6.0440 c3        1 CNO     -0.108350
     38 C38         0.5010   -3.1320   -8.5190 c         1 CNO      0.939600
     39 O39        -0.7060   -3.3880   -8.7520 o         1 CNO     -0.812300
     40 O40         1.4710   -3.4080   -9.2710 o         1 CNO     -0.812300
     41 HC51        1.8690   -2.6070    8.3330 hc        1 CNO      0.036617
     42 HC52        1.8810   -2.7630    6.5200 hc        1 CNO      0.036617
     43 H53C        3.4460   -2.6690    7.4360 hc        1 CNO      0.036617
     44 HC61        2.5850    0.4950    5.5630 hc        1 CNO      0.036617
     45 HC62        4.1330    0.1950    6.4520 hc        1 CNO      0.036617
     46 HC63        3.4270   -1.1060    5.4020 hc        1 CNO      0.036617
     47 HC9        -1.3590    0.2560    7.7170 ha        1 CNO      0.148250
     48 H10C       -3.2550   -0.2620    6.1710 ha        1 CNO      0.117500
     49 H11C        1.4070   -1.5000    4.8780 ha        1 CNO      0.148250
     50 H12C       -0.4790   -2.0260    3.3690 ha        1 CNO      0.117500
     51 H141       -2.8700   -2.4480    3.1670 hc        1 CNO      0.069200
     52 H142       -4.0250   -1.8220    4.4180 hc        1 CNO      0.069200
     53 H17N       -1.6560   -0.2280    2.1740 hn        1 CNO      0.326500
     54 H19C       -0.9080    0.5420    0.0470 ha        1 CNO      0.130000
     55 H20C       -4.6460    1.8890    1.8210 ha        1 CNO      0.165000
     56 H21C       -4.8230    3.6300    0.0730 ha        1 CNO      0.126000
     57 H22C       -3.1030    3.8750   -1.6870 ha        1 CNO      0.165000
     58 H24N       -0.3530    1.4630   -2.0810 hn        1 CNO      0.326500
     59 H271        0.6340    4.1600   -4.3040 hc        1 CNO      0.069200
     60 H272        1.5200    3.1680   -3.0700 hc        1 CNO      0.069200
     61 H29C       -0.7130    3.0690   -6.0620 ha        1 CNO      0.117500
     62 H30C       -0.7920    1.1190   -7.6250 ha        1 CNO      0.148250
     63 H31C        1.6570    0.7450   -3.2960 ha        1 CNO      0.117500
     64 H32C        1.5830   -1.1900   -4.8270 ha        1 CNO      0.148250
     65 H361        2.7320   -1.3920   -6.9630 hc        1 CNO      0.036617
     66 H362        2.5550   -2.7880   -5.8140 hc        1 CNO      0.036617
     67 H363        2.8410   -3.0890   -7.5810 hc        1 CNO      0.036617
     68 H371       -1.0200   -3.2380   -6.3550 hc        1 CNO      0.036617
     69 H372        0.4580   -4.2070   -5.9420 hc        1 CNO      0.036617
     70 H373        0.1150   -2.6590   -5.0560 hc        1 CNO      0.036617
@<TRIPOS>BOND
     1    1    2 1   
     2    1    3 1   
     3    1    4 1   
     4    4    5 1   
     5    4    6 1   
     6    4    7 1   
     7    5   41 1   
     8    5   42 1   
     9    5   43 1   
    10    6   44 1   
    11    6   45 1   
    12    6   46 1   
    13    7    8 1   
    14    8    9 ar  
    15    8   11 ar  
    16    9   10 ar  
    17    9   47 1   
    18   10   13 ar  
    19   10   48 1   
    20   11   12 ar  
    21   11   49 1   
    22   12   13 ar  
    23   12   50 1   
    24   13   14 1   
    25   14   15 1   
    26   14   51 1   
    27   14   52 1   
    28   15   16 2   
    29   15   17 1   
    30   17   18 1   
    31   17   53 1   
    32   18   19 ar  
    33   18   20 ar  
    34   19   23 ar  
    35   19   54 1   
    36   20   21 ar  
    37   20   55 1   
    38   21   22 ar  
    39   21   56 1   
    40   22   23 ar  
    41   22   57 1   
    42   23   24 1   
    43   24   25 1   
    44   24   58 1   
    45   25   26 2   
    46   25   27 1   
    47   27   28 1   
    48   27   59 1   
    49   27   60 1   
    50   28   29 ar  
    51   28   31 ar  
    52   29   30 ar  
    53   29   61 1   
    54   30   33 ar  
    55   30   62 1   
    56   31   32 ar  
    57   31   63 1   
    58   32   33 ar  
    59   32   64 1   
    60   33   34 1   
    61   34   35 1   
    62   35   36 1   
    63   35   37 1   
    64   35   38 1   
    65   36   65 1   
    66   36   66 1   
    67   36   67 1   
    68   37   68 1   
    69   37   69 1   
    70   37   70 1   
    71   38   39 1   
    72   38   40 1   
@<TRIPOS>SUBSTRUCTURE
     1 CNO         1 TEMP              0 ****  ****    0 ROOT
