@<TRIPOS>MOLECULE
CNO
   70    72     1     0     0
SMALL
bcc


@<TRIPOS>ATOM
      1 C1         -1.2780   -3.5180   -2.6630 c         1 CNO      0.939600
      2 O2         -0.7510   -3.2150   -1.5610 o         1 CNO     -0.814800
      3 O3         -1.5030   -4.6850   -3.0740 o         1 CNO     -0.814800
      4 C4         -1.6340   -2.3270   -3.6410 c3        1 CNO      0.014300
      5 C5         -1.6450   -2.8090   -5.0790 c3        1 CNO     -0.104600
      6 C6         -0.6460   -1.1930   -3.4500 c3        1 CNO     -0.104600
      7 O7         -2.9670   -1.9250   -3.2390 os        1 CNO     -0.306900
      8 C8         -3.4830   -0.8220   -3.8870 ca        1 CNO      0.166100
      9 C9         -4.2710   -0.9830   -5.0380 ca        1 CNO     -0.178250
     10 C10        -4.8820    0.1240   -5.6190 ca        1 CNO     -0.104750
     11 C11        -3.3250    0.4560   -3.3220 ca        1 CNO     -0.178250
     12 C12        -3.9400    1.5540   -3.9130 ca        1 CNO     -0.104750
     13 C13        -4.7160    1.4000   -5.0690 ca        1 CNO     -0.159800
     14 C14        -5.3110    2.5910   -5.7260 c3        1 CNO     -0.095600
     15 C15        -6.6550    3.0020   -5.1340 c         1 CNO      0.671600
     16 O16        -6.8240    4.1570   -4.7000 o         1 CNO     -0.612600
     17 N17        -7.6540    2.0430   -5.1590 n         1 CNO     -0.469100
     18 C18        -8.9820    2.2030   -4.7230 ca        1 CNO      0.095100
     19 C19        -9.9600    1.3080   -5.2080 ca        1 CNO     -0.227000
     20 C20        -9.3630    3.2110   -3.8130 ca        1 CNO     -0.176000
     21 C21       -10.6890    3.3030   -3.4080 ca        1 CNO     -0.095000
     22 C22       -11.6620    2.4280   -3.8760 ca        1 CNO     -0.176000
     23 C23       -11.3050    1.4130   -4.7900 ca        1 CNO      0.095100
     24 N24       -12.2410    0.5050   -5.3130 n         1 CNO     -0.469100
     25 C25       -13.4810    0.1920   -4.7810 c         1 CNO      0.671600
     26 O26       -13.9250    0.7040   -3.7340 o         1 CNO     -0.612600
     27 C27       -14.2840   -0.8740   -5.5180 c3        1 CNO     -0.095600
     28 C28       -14.5100   -0.5620   -6.9490 ca        1 CNO     -0.159800
     29 C29       -13.6860   -1.1090   -7.9430 ca        1 CNO     -0.104750
     30 C30       -13.9350   -0.8720   -9.2840 ca        1 CNO     -0.178250
     31 C31       -15.5840    0.2460   -7.3350 ca        1 CNO     -0.104750
     32 C32       -15.8510    0.4970   -8.6770 ca        1 CNO     -0.178250
     33 C33       -15.0370   -0.0670   -9.6730 ca        1 CNO      0.166100
     34 O34       -15.1910    0.0380  -11.0220 os        1 CNO     -0.306900
     35 C35       -16.2030    0.8940  -11.5970 c3        1 CNO      0.014300
     36 C36       -17.5960    0.4860  -11.1560 c3        1 CNO     -0.104600
     37 C37       -15.9060    2.3530  -11.3050 c3        1 CNO     -0.104600
     38 C38       -15.9930    0.6600  -13.1620 c         1 CNO      0.939600
     39 O39       -14.9570    1.1520  -13.6720 o         1 CNO     -0.814800
     40 O40       -16.8970    0.0400  -13.7780 o         1 CNO     -0.814800
     41 HC51       -2.3720   -3.6510   -5.1790 hc        1 CNO      0.033783
     42 HC52       -1.9290   -1.9870   -5.7790 hc        1 CNO      0.033783
     43 H53C       -0.6300   -3.1870   -5.3450 hc        1 CNO      0.033783
     44 HC61       -0.6500   -0.8800   -2.3780 hc        1 CNO      0.033783
     45 HC62        0.3770   -1.5520   -3.7090 hc        1 CNO      0.033783
     46 HC63       -0.9030   -0.3180   -4.0940 hc        1 CNO      0.033783
     47 HC9        -4.3920   -1.9890   -5.4670 ha        1 CNO      0.148750
     48 H10C       -5.4890   -0.0050   -6.5270 ha        1 CNO      0.118750
     49 H11C       -2.7100    0.5660   -2.4160 ha        1 CNO      0.148750
     50 H12C       -3.8150    2.5540   -3.4720 ha        1 CNO      0.118750
     51 H141       -4.6240    3.4740   -5.6150 hc        1 CNO      0.070450
     52 H142       -5.4520    2.4050   -6.8250 hc        1 CNO      0.070450
     53 H17N       -7.4050    1.1360   -5.4880 hn        1 CNO      0.327000
     54 H19C       -9.6720    0.5190   -5.9200 ha        1 CNO      0.131000
     55 H20C       -8.6200    3.9280   -3.4290 ha        1 CNO      0.164500
     56 H21C      -10.9770    4.0920   -2.6970 ha        1 CNO      0.126000
     57 H22C      -12.7010    2.5250   -3.5260 ha        1 CNO      0.164500
     58 H24N      -12.0020    0.0770   -6.1810 hn        1 CNO      0.327000
     59 H271      -15.2690   -0.9650   -4.9830 hc        1 CNO      0.070450
     60 H272      -13.7450   -1.8530   -5.4090 hc        1 CNO      0.070450
     61 H29C      -12.8360   -1.7470   -7.6550 ha        1 CNO      0.118750
     62 H30C      -13.2960   -1.3010  -10.0690 ha        1 CNO      0.148750
     63 H31C      -16.2330    0.6890   -6.5640 ha        1 CNO      0.118750
     64 H32C      -16.7040    1.1340   -8.9470 ha        1 CNO      0.148750
     65 H361      -18.2310    0.3040  -12.0600 hc        1 CNO      0.033783
     66 H362      -17.5590   -0.4590  -10.5630 hc        1 CNO      0.033783
     67 H363      -18.0810    1.2810  -10.5380 hc        1 CNO      0.033783
     68 H371      -16.6870    2.9860  -11.7890 hc        1 CNO      0.033783
     69 H372      -14.9110    2.6140  -11.7450 hc        1 CNO      0.033783
     70 H373      -15.8890    2.5680  -10.2120 hc        1 CNO      0.033783
@<TRIPOS>BOND
     1    1    2 1   
     2    1    3 1   
     3    1    4 1   
     4    4    5 1   
     5    4    6 1   
     6    4    7 1   
     7    5   41 1   
     8    5   42 1   
     9    5   43 1   
    10    6   44 1   
    11    6   45 1   
    12    6   46 1   
    13    7    8 1   
    14    8    9 ar  
    15    8   11 ar  
    16    9   10 ar  
    17    9   47 1   
    18   10   13 ar  
    19   10   48 1   
    20   11   12 ar  
    21   11   49 1   
    22   12   13 ar  
    23   12   50 1   
    24   13   14 1   
    25   14   15 1   
    26   14   51 1   
    27   14   52 1   
    28   15   16 2   
    29   15   17 1   
    30   17   18 1   
    31   17   53 1   
    32   18   19 ar  
    33   18   20 ar  
    34   19   23 ar  
    35   19   54 1   
    36   20   21 ar  
    37   20   55 1   
    38   21   22 ar  
    39   21   56 1   
    40   22   23 ar  
    41   22   57 1   
    42   23   24 1   
    43   24   25 1   
    44   24   58 1   
    45   25   26 2   
    46   25   27 1   
    47   27   28 1   
    48   27   59 1   
    49   27   60 1   
    50   28   29 ar  
    51   28   31 ar  
    52   29   30 ar  
    53   29   61 1   
    54   30   33 ar  
    55   30   62 1   
    56   31   32 ar  
    57   31   63 1   
    58   32   33 ar  
    59   32   64 1   
    60   33   34 1   
    61   34   35 1   
    62   35   36 1   
    63   35   37 1   
    64   35   38 1   
    65   36   65 1   
    66   36   66 1   
    67   36   67 1   
    68   37   68 1   
    69   37   69 1   
    70   37   70 1   
    71   38   39 1   
    72   38   40 1   
@<TRIPOS>SUBSTRUCTURE
     1 CNO         1 TEMP              0 ****  ****    0 ROOT
