@<TRIPOS>MOLECULE
CNO
   72    74     1     0     0
SMALL
bcc


@<TRIPOS>ATOM
      1 C1         -5.1230    0.8410   -4.2310 c         1 CNO      0.892600
      2 O2         -6.0390    0.8470   -3.3410 o         1 CNO     -0.851550
      3 O3         -5.4340    0.5630   -5.4290 o         1 CNO     -0.851550
      4 C4         -3.6540    1.0990   -3.8400 c3        1 CNO      0.080800
      5 C5         -3.5550    1.7620   -2.4780 c3        1 CNO     -0.091100
      6 C6         -2.9460    1.9110   -4.9110 c3        1 CNO     -0.091100
      7 O7         -2.9010   -0.1630   -3.7460 os        1 CNO     -0.350400
      8 C8         -3.7350   -1.2640   -3.8300 ca        1 CNO      0.142600
      9 C9         -3.9410   -1.8730   -5.0810 ca        1 CNO     -0.121000
     10 C10        -5.5180   -2.5540   -2.8620 ca        1 CNO     -0.112000
     11 C11        -4.4230   -1.7130   -2.6900 ca        1 CNO     -0.121000
     12 C12        -5.0410   -2.7080   -5.2390 ca        1 CNO     -0.112000
     13 C13        -5.9020   -2.9330   -4.1550 ca        1 CNO     -0.183300
     14 C14        -7.2910   -3.3850   -4.4000 c3        1 CNO     -0.083100
     15 C15        -8.2530   -2.2110   -4.4490 c         1 CNO      0.550100
     16 O16        -9.4530   -2.3080   -4.2110 o         1 CNO     -0.470600
     17 N17        -7.6990   -0.8670   -4.7900 n4        1 CNO     -0.572200
     18 C18        -8.6490    0.0650   -5.3950 ca        1 CNO      0.003600
     19 C19        -9.5760   -0.3760   -6.3500 ca        1 CNO     -0.093000
     20 C20        -8.5780    1.4240   -5.0310 ca        1 CNO     -0.055500
     21 C21        -9.4630    2.3270   -5.6140 ca        1 CNO     -0.122000
     22 C22       -10.3940    1.9150   -6.5630 ca        1 CNO     -0.055500
     23 C23       -10.4300    0.5610   -6.9520 ca        1 CNO      0.003600
     24 N24       -11.4170    0.1500   -7.9500 n4        1 CNO     -0.572200
     25 C25       -10.8770   -0.7480   -9.0150 c         1 CNO      0.550100
     26 O26       -10.3760   -1.8170   -8.6760 o         1 CNO     -0.470600
     27 C27       -11.0110   -0.3020  -10.4620 c3        1 CNO     -0.083100
     28 C28       -12.3240    0.3520  -10.6680 ca        1 CNO     -0.183300
     29 C29       -12.4120    1.7520  -10.6780 ca        1 CNO     -0.112000
     30 C30       -13.6200    2.3650  -10.3630 ca        1 CNO     -0.121000
     31 C31       -13.4920   -0.4230  -10.6360 ca        1 CNO     -0.112000
     32 C32       -14.7050    0.1770  -10.3150 ca        1 CNO     -0.121000
     33 C33       -14.7180    1.5530  -10.0290 ca        1 CNO      0.142600
     34 O34       -15.7830    2.1080   -9.3420 os        1 CNO     -0.350400
     35 C35       -15.6490    1.9230   -7.8860 c3        1 CNO      0.080800
     36 C36       -15.8870    3.2970   -7.2850 c3        1 CNO     -0.091100
     37 C37       -16.7260    0.9360   -7.4740 c3        1 CNO     -0.091100
     38 C38       -14.2450    1.4020   -7.5180 c         1 CNO      0.892600
     39 O39       -13.2410    2.1840   -7.5630 o         1 CNO     -0.851550
     40 O40       -14.0640    0.1770   -7.2290 o         1 CNO     -0.851550
     41 HC51       -2.4860    1.8830   -2.1850 hc        1 CNO      0.047033
     42 HC52       -4.0780    1.1350   -1.7150 hc        1 CNO      0.047033
     43 H53C       -4.0500    2.7610   -2.5170 hc        1 CNO      0.047033
     44 HC61       -3.1260    1.4510   -5.9120 hc        1 CNO      0.047033
     45 HC62       -3.3480    2.9520   -4.9110 hc        1 CNO      0.047033
     46 HC63       -1.8490    1.9380   -4.7100 hc        1 CNO      0.047033
     47 HC9        -3.3050   -1.5970   -5.9340 ha        1 CNO      0.161750
     48 H10C       -6.1200   -2.8570   -1.9940 ha        1 CNO      0.135750
     49 H11C       -4.1580   -1.3180   -1.6990 ha        1 CNO      0.161750
     50 H12C       -5.2700   -3.1350   -6.2260 ha        1 CNO      0.135750
     51 H141       -7.3850   -3.9310   -5.3790 hc        1 CNO      0.101700
     52 H142       -7.6540   -4.0710   -3.5850 hc        1 CNO      0.101700
     53 H17N       -7.2940   -0.4010   -3.9150 hn        1 CNO      0.521300
     54 H19C       -9.6430   -1.4470   -6.6110 ha        1 CNO      0.171000
     55 H20C       -7.8070    1.7680   -4.3060 ha        1 CNO      0.212000
     56 H21C       -9.4270    3.3890   -5.3150 ha        1 CNO      0.168000
     57 H22C      -11.1250    2.6400   -6.9780 ha        1 CNO      0.212000
     58 H24N      -12.2470   -0.2970   -7.4480 hn        1 CNO      0.521300
     59 H271      -10.1570    0.3930  -10.6880 hc        1 CNO      0.101700
     60 H272      -10.8970   -1.2200  -11.1020 hc        1 CNO      0.101700
     61 H29C      -11.5160    2.3630  -10.8600 ha        1 CNO      0.135750
     62 H30C      -13.6970    3.4570  -10.2580 ha        1 CNO      0.161750
     63 H31C      -13.4370   -1.5120  -10.7810 ha        1 CNO      0.135750
     64 H32C      -15.6180   -0.4210  -10.1800 ha        1 CNO      0.161750
     65 H361      -15.0280    3.9680   -7.5270 hc        1 CNO      0.047033
     66 H362      -15.9750    3.2040   -6.1770 hc        1 CNO      0.047033
     67 H363      -16.8250    3.7390   -7.6960 hc        1 CNO      0.047033
     68 H371      -17.7300    1.3080   -7.7870 hc        1 CNO      0.047033
     69 H372      -16.7010    0.8050   -6.3670 hc        1 CNO      0.047033
     70 H373      -16.5340   -0.0540   -7.9540 hc        1 CNO      0.047033
     71 H172       -6.8650   -0.9350   -5.4210 hn        1 CNO      0.521300
     72 H242      -11.8470    1.0180   -8.3670 hn        1 CNO      0.521300
@<TRIPOS>BOND
     1    1    2 1   
     2    1    3 1   
     3    1    4 1   
     4    4    5 1   
     5    4    6 1   
     6    4    7 1   
     7    5   41 1   
     8    5   42 1   
     9    5   43 1   
    10    6   44 1   
    11    6   45 1   
    12    6   46 1   
    13    7    8 1   
    14    8    9 ar  
    15    8   11 ar  
    16    9   12 ar  
    17    9   47 1   
    18   10   11 ar  
    19   10   13 ar  
    20   10   48 1   
    21   11   49 1   
    22   12   13 ar  
    23   12   50 1   
    24   13   14 1   
    25   14   15 1   
    26   14   51 1   
    27   14   52 1   
    28   15   16 2   
    29   15   17 1   
    30   17   18 1   
    31   17   53 1   
    32   17   71 1   
    33   18   19 ar  
    34   18   20 ar  
    35   19   23 ar  
    36   19   54 1   
    37   20   21 ar  
    38   20   55 1   
    39   21   22 ar  
    40   21   56 1   
    41   22   23 ar  
    42   22   57 1   
    43   23   24 1   
    44   24   25 1   
    45   24   58 1   
    46   24   72 1   
    47   25   26 2   
    48   25   27 1   
    49   27   28 1   
    50   27   59 1   
    51   27   60 1   
    52   28   29 ar  
    53   28   31 ar  
    54   29   30 ar  
    55   29   61 1   
    56   30   33 ar  
    57   30   62 1   
    58   31   32 ar  
    59   31   63 1   
    60   32   33 ar  
    61   32   64 1   
    62   33   34 1   
    63   34   35 1   
    64   35   36 1   
    65   35   37 1   
    66   35   38 1   
    67   36   65 1   
    68   36   66 1   
    69   36   67 1   
    70   37   68 1   
    71   37   69 1   
    72   37   70 1   
    73   38   39 1   
    74   38   40 1   
@<TRIPOS>SUBSTRUCTURE
     1 CNO         1 TEMP              0 ****  ****    0 ROOT
