@<TRIPOS>MOLECULE
CNP
   46    46     1     0     0
SMALL
bcc


@<TRIPOS>ATOM
      1 C1          2.0540   -0.0210   -0.4760 c         1 CNP      0.901600
      2 O1A         2.6300   -1.1410   -0.4060 o         1 CNP     -0.802800
      3 O1B         2.6040    1.0750   -0.7510 o         1 CNP     -0.802800
      4 C2          0.4940   -0.0150   -0.3000 c3        1 CNP      0.002800
      5 C12         0.0960    0.0250    1.1720 c3        1 CNP     -0.025200
      6 C13         0.5590   -1.1640    1.9280 c2        1 CNP     -0.148200
      7 C14        -0.0700   -1.6400    3.0000 c2        1 CNP     -0.247000
      8 C3         -0.1220    1.1680   -1.0500 c3        1 CNP     -0.114400
      9 C4          0.1530    1.0440   -2.5440 c3        1 CNP      0.124100
     10 O4         -0.4710    2.0510   -3.3200 oh        1 CNP     -0.637800
     11 C5         -0.3550   -0.3350   -3.0330 c3        1 CNP      0.062500
     12 N5         -0.1110   -0.5700   -4.4960 n4        1 CNP     -0.667800
     13 C10        -0.6900    0.5160   -5.3700 c         1 CNP      0.581100
     14 O10        -1.9090    0.5360   -5.4700 o         1 CNP     -0.440100
     15 C11         0.2980    1.4210   -6.0250 c3        1 CNP     -0.184100
     16 C6          0.3320   -1.4400   -2.1850 c3        1 CNP      0.085100
     17 O6         -0.0740   -1.2300   -0.8450 os        1 CNP     -0.392600
     18 C7         -0.0830   -2.8610   -2.6000 c3        1 CNP      0.094100
     19 O7         -1.4040   -2.8720   -3.1110 oh        1 CNP     -0.634800
     20 C8          0.1220   -3.8390   -1.4290 c3        1 CNP      0.097100
     21 O8          1.4740   -3.8440   -1.0280 oh        1 CNP     -0.616800
     22 C9         -0.1980   -5.2720   -1.8720 c3        1 CNP      0.135400
     23 O9         -0.1760   -6.1540   -0.7730 oh        1 CNP     -0.597800
     24 H121       -1.0180    0.1350    1.2550 hc        1 CNP      0.054200
     25 H122        0.5720    0.9450    1.6110 hc        1 CNP      0.054200
     26 H13         1.4870   -1.6250    1.5370 ha        1 CNP      0.165000
     27 H141       -0.9930   -1.2000    3.3970 ha        1 CNP      0.104500
     28 H142        0.3050   -2.5080    3.5570 ha        1 CNP      0.104500
     29 H31        -1.2250    1.2210   -0.8670 hc        1 CNP      0.073200
     30 H32         0.3660    2.1090   -0.6780 hc        1 CNP      0.073200
     31 H4          1.2660    1.1540   -2.7210 h1        1 CNP      0.129700
     32 HO4        -1.2090    2.4180   -2.8170 ho        1 CNP      0.429000
     33 H5         -1.4750   -0.3930   -2.8870 hx        1 CNP      0.114700
     34 HN5         0.8990   -0.6390   -4.6510 hn        1 CNP      0.459800
     35 H111        1.1090    0.8490   -6.5380 hc        1 CNP      0.108700
     36 H112       -0.2400    2.0550   -6.7750 hc        1 CNP      0.108700
     37 H113        0.7500    2.0950   -5.2460 hc        1 CNP      0.108700
     38 H6          1.4570   -1.3610   -2.2760 h1        1 CNP      0.118700
     39 H7          0.5580   -3.1880   -3.4690 h1        1 CNP      0.066700
     40 HO7        -2.0100   -2.8800   -2.3570 ho        1 CNP      0.431000
     41 H8         -0.5460   -3.5390   -0.5730 h1        1 CNP      0.072700
     42 HO8         1.6680   -2.9900   -0.5930 ho        1 CNP      0.471000
     43 H91        -1.2420   -5.3250   -2.2810 h1        1 CNP      0.048700
     44 H92         0.5390   -5.6030   -2.6510 h1        1 CNP      0.048700
     45 HO9         0.6840   -6.0460   -0.3430 ho        1 CNP      0.422000
     46 H52        -0.5560   -1.4730   -4.7230 hn        1 CNP      0.459800
@<TRIPOS>BOND
     1    1    2 1   
     2    1    3 1   
     3    1    4 1   
     4    4    5 1   
     5    4    8 1   
     6    4   17 1   
     7    5    6 1   
     8    5   24 1   
     9    5   25 1   
    10    6    7 2   
    11    6   26 1   
    12    7   27 1   
    13    7   28 1   
    14    8    9 1   
    15    8   29 1   
    16    8   30 1   
    17    9   10 1   
    18    9   11 1   
    19    9   31 1   
    20   10   32 1   
    21   11   12 1   
    22   11   16 1   
    23   11   33 1   
    24   12   13 1   
    25   12   34 1   
    26   12   46 1   
    27   13   14 2   
    28   13   15 1   
    29   15   35 1   
    30   15   36 1   
    31   15   37 1   
    32   16   17 1   
    33   16   18 1   
    34   16   38 1   
    35   18   19 1   
    36   18   20 1   
    37   18   39 1   
    38   19   40 1   
    39   20   21 1   
    40   20   22 1   
    41   20   41 1   
    42   21   42 1   
    43   22   23 1   
    44   22   43 1   
    45   22   44 1   
    46   23   45 1   
@<TRIPOS>SUBSTRUCTURE
     1 CNP         1 TEMP              0 ****  ****    0 ROOT
