@<TRIPOS>MOLECULE
CNP
   46    46     1     0     0
SMALL
bcc


@<TRIPOS>ATOM
      1 C1          2.0340   -0.0020   -0.4640 c         1 CNP      0.901600
      2 O1A         2.6240   -1.1140   -0.3970 o         1 CNP     -0.802800
      3 O1B         2.5700    1.1030   -0.7300 o         1 CNP     -0.802800
      4 C2          0.4730   -0.0180   -0.2960 c3        1 CNP      0.002800
      5 C12         0.0670    0.0080    1.1740 c3        1 CNP     -0.025200
      6 C13         0.5410   -1.1800    1.9260 c2        1 CNP     -0.148200
      7 C14        -0.0880   -1.6710    2.9910 c2        1 CNP     -0.247000
      8 C3         -0.1550    1.1610   -1.0420 c3        1 CNP     -0.114400
      9 C4          0.1290    1.0490   -2.5360 c3        1 CNP      0.124100
     10 O4         -0.5050    2.0530   -3.3090 oh        1 CNP     -0.637800
     11 C5         -0.3580   -0.3340   -3.0350 c3        1 CNP      0.062500
     12 N5         -0.1020   -0.5570   -4.4980 n4        1 CNP     -0.667800
     13 C10        -0.6920    0.5260   -5.3690 c         1 CNP      0.581100
     14 O10        -1.9100    0.5300   -5.4750 o         1 CNP     -0.440100
     15 C11         0.2870    1.4480   -6.0130 c3        1 CNP     -0.184100
     16 C6          0.3400   -1.4340   -2.1900 c3        1 CNP      0.085100
     17 O6         -0.0760   -1.2380   -0.8510 os        1 CNP     -0.392600
     18 C7         -0.0540   -2.8580   -2.6150 c3        1 CNP      0.094100
     19 O7         -1.3710   -2.8840   -3.1330 oh        1 CNP     -0.634800
     20 C8          0.1580   -3.8400   -1.4490 c3        1 CNP      0.097100
     21 O8          1.5080   -3.8290   -1.0400 oh        1 CNP     -0.616800
     22 C9         -0.1400   -5.2750   -1.9020 c3        1 CNP      0.135400
     23 O9         -0.1120   -6.1630   -0.8070 oh        1 CNP     -0.597800
     24 H121       -1.0490    0.1030    1.2520 hc        1 CNP      0.054200
     25 H122        0.5280    0.9320    1.6210 hc        1 CNP      0.054200
     26 H13         1.4770   -1.6260    1.5370 ha        1 CNP      0.165000
     27 H141       -1.0190   -1.2450    3.3860 ha        1 CNP      0.104500
     28 H142        0.2960   -2.5370    3.5450 ha        1 CNP      0.104500
     29 H31         0.3180    2.1060   -0.6620 hc        1 CNP      0.073200
     30 H32        -1.2600    1.1970   -0.8640 hc        1 CNP      0.073200
     31 H4          1.2420    1.1760   -2.7060 h1        1 CNP      0.129700
     32 HO4        -1.2510    2.4060   -2.8080 ho        1 CNP      0.429000
     33 H5         -1.4770   -0.4070   -2.8960 hx        1 CNP      0.114700
     34 HN5         0.9090   -0.6110   -4.6480 hn        1 CNP      0.459800
     35 H111       -0.2570    2.0790   -6.7630 hc        1 CNP      0.108700
     36 H112        0.7260    2.1240   -5.2280 hc        1 CNP      0.108700
     37 H113        1.1080    0.8910   -6.5260 hc        1 CNP      0.108700
     38 H6          1.4640   -1.3400   -2.2750 h1        1 CNP      0.118700
     39 H7          0.5960   -3.1720   -3.4820 h1        1 CNP      0.066700
     40 HO7        -1.9810   -2.9050   -2.3830 ho        1 CNP      0.431000
     41 H8         -0.5180   -3.5550   -0.5940 h1        1 CNP      0.072700
     42 HO8         1.6880   -2.9750   -0.6000 ho        1 CNP      0.471000
     43 H91         0.6060   -5.5920   -2.6780 h1        1 CNP      0.048700
     44 H92        -1.1800   -5.3390   -2.3160 h1        1 CNP      0.048700
     45 HO9         0.7440   -6.0460   -0.3720 ho        1 CNP      0.422000
     46 H52        -0.5340   -1.4650   -4.7330 hn        1 CNP      0.459800
@<TRIPOS>BOND
     1    1    2 1   
     2    1    3 1   
     3    1    4 1   
     4    4    5 1   
     5    4    8 1   
     6    4   17 1   
     7    5    6 1   
     8    5   24 1   
     9    5   25 1   
    10    6    7 2   
    11    6   26 1   
    12    7   27 1   
    13    7   28 1   
    14    8    9 1   
    15    8   29 1   
    16    8   30 1   
    17    9   10 1   
    18    9   11 1   
    19    9   31 1   
    20   10   32 1   
    21   11   12 1   
    22   11   16 1   
    23   11   33 1   
    24   12   13 1   
    25   12   34 1   
    26   12   46 1   
    27   13   14 2   
    28   13   15 1   
    29   15   35 1   
    30   15   36 1   
    31   15   37 1   
    32   16   17 1   
    33   16   18 1   
    34   16   38 1   
    35   18   19 1   
    36   18   20 1   
    37   18   39 1   
    38   19   40 1   
    39   20   21 1   
    40   20   22 1   
    41   20   41 1   
    42   21   42 1   
    43   22   23 1   
    44   22   43 1   
    45   22   44 1   
    46   23   45 1   
@<TRIPOS>SUBSTRUCTURE
     1 CNP         1 TEMP              0 ****  ****    0 ROOT
