@<TRIPOS>MOLECULE
CNP
   45    43     1     0     0
SMALL
bcc


@<TRIPOS>ATOM
      1 C1          3.4340    0.3370    0.0280 c1        1 CNP      0.316000
      2 O1A         4.0760    1.3740   -0.3490 o         1 CNP     -0.584000
      3 O1B         4.0580   -0.7240    0.3110 os        1 CNP     -0.531000
      4 C2          1.8810    0.3730    0.1120 c3        1 CNP      0.012000
      5 C12         1.6710    0.4200    1.5760 c3        1 CNP     -0.125000
      6 C13         2.7420    1.3400    2.2250 c2        1 CNP     -0.116000
      7 C14         3.3540    0.9630    3.4080 c1        1 CNP     -0.278000
      8 C3          1.3110    1.6130   -0.5810 c3        1 CNP     -0.213000
      9 C4         -0.1900    1.6220   -0.6230 c3        1 CNP      0.037000
     10 O4         -0.6920    1.7810    0.7290 oh        1 CNP     -0.344000
     11 C5         -0.7540    0.3760   -1.1980 c3        1 CNP     -0.022000
     12 N5         -0.4350    0.3330   -2.6410 n         1 CNP     -0.369000
     13 C10        -1.4390    0.7010   -3.6140 c2        1 CNP      0.302000
     14 O10        -2.5330    1.0410   -3.2510 o         1 CNP     -0.421000
     15 C11        -1.1010    0.6710   -5.1230 c3        1 CNP     -0.239000
     16 C6         -0.2210   -0.8550   -0.5550 c3        1 CNP     -0.020000
     17 O6          1.2530   -0.8890   -0.5120 os        1 CNP     -0.304000
     18 C7         -0.7590   -0.9380    0.8690 c3        1 CNP      0.039000
     19 O7          0.1580   -1.5850    1.6690 oh        1 CNP     -0.337000
     20 C8         -2.0780   -1.7190    0.8730 c3        1 CNP     -0.003000
     21 O8         -3.1290   -0.8640    0.5240 oh        1 CNP     -0.319000
     22 C9         -2.3250   -2.2880    2.2620 c3        1 CNP     -0.056000
     23 O9         -3.5140   -3.0630    2.2530 oh        1 CNP     -0.340000
     24 H121        1.7490   -0.4950    1.9520 hc        1 CNP      0.095500
     25 H122        0.7860    0.7730    1.7640 hc        1 CNP      0.095500
     26 H13         2.9810    2.1790    1.8010 ha        1 CNP      0.150000
     27 H141        3.1110    0.1110    3.8390 DU        1 CNP      0.094000
     28 H142        4.0300    1.5440    3.8180 ha        1 CNP      0.095000
     29 H31         1.6200    2.4180   -0.0990 hc        1 CNP      0.105000
     30 H32         1.6510    1.6450   -1.4980 hc        1 CNP      0.105000
     31 H4         -0.4890    2.3880   -1.1660 h1        1 CNP      0.104000
     32 HO4        -1.0050    2.6100    0.8350 ho        1 CNP      0.213000
     33 H5         -1.7170    0.3920   -1.0910 h1        1 CNP      0.128000
     34 HN5         0.3790    0.0080   -2.9210 hn        1 CNP      0.280000
     35 H111       -0.2800    1.2010   -5.2870 hc        1 CNP      0.098000
     36 H112       -1.8400    1.0520   -5.6300 hc        1 CNP      0.098000
     37 H113       -0.9540   -0.2610   -5.4070 hc        1 CNP      0.098000
     38 H6         -0.5400   -1.6380   -1.0590 h1        1 CNP      0.142000
     39 H7         -0.9110   -0.0400    1.2110 h1        1 CNP      0.133000
     40 HO7         0.2780   -2.4170    1.3700 ho        1 CNP      0.215000
     41 H8         -2.0260   -2.4430    0.2330 h1        1 CNP      0.116000
     42 HO8        -3.8840   -1.3400    0.4300 ho        1 CNP      0.211000
     43 H91        -2.4190   -1.5500    2.9080 h1        1 CNP      0.074500
     44 H92        -1.5740   -2.8510    2.5200 h1        1 CNP      0.074500
     45 HO9        -3.7150   -3.3060    3.0890 ho        1 CNP      0.191000
@<TRIPOS>BOND
     1    1    2 1   
     2    1    4 1   
     3    4    5 1   
     4    4    8 1   
     5    4   17 1   
     6    5    6 1   
     7    5   24 1   
     8    5   25 1   
     9    6    7 1   
    10    6   26 1   
    11    7   28 1   
    12    8    9 1   
    13    8   29 1   
    14    8   30 1   
    15    9   10 1   
    16    9   11 1   
    17    9   31 1   
    18   10   32 1   
    19   11   12 1   
    20   11   16 1   
    21   11   33 1   
    22   12   13 1   
    23   12   34 1   
    24   13   14 1   
    25   13   15 1   
    26   15   35 1   
    27   15   36 1   
    28   15   37 1   
    29   16   17 1   
    30   16   18 1   
    31   16   38 1   
    32   18   19 1   
    33   18   20 1   
    34   18   39 1   
    35   19   40 1   
    36   20   21 1   
    37   20   22 1   
    38   20   41 1   
    39   21   42 1   
    40   22   23 1   
    41   22   43 1   
    42   22   44 1   
    43   23   45 1   
@<TRIPOS>SUBSTRUCTURE
     1 CNP         1 TEMP              0 ****  ****    0 ROOT
