@<TRIPOS>MOLECULE
CNP
   46    46     1     0     0
SMALL
bcc


@<TRIPOS>ATOM
      1 C1          2.0070   -0.0130   -0.4150 c         1 CNP      0.901600
      2 O1A         2.5980   -1.1250   -0.3500 o         1 CNP     -0.802800
      3 O1B         2.5460    1.0950   -0.6590 o         1 CNP     -0.802800
      4 C2          0.4430   -0.0320   -0.2750 c3        1 CNP      0.002800
      5 C12         0.0110   -0.0230    1.1870 c3        1 CNP     -0.025200
      6 C13         0.4730   -1.2180    1.9350 c2        1 CNP     -0.148200
      7 C14        -0.1730   -1.7210    2.9840 c2        1 CNP     -0.247000
      8 C3         -0.1730    1.1540   -1.0200 c3        1 CNP     -0.114400
      9 C4          0.1380    1.0580   -2.5090 c3        1 CNP      0.124100
     10 O4         -0.4830    2.0690   -3.2830 oh        1 CNP     -0.637800
     11 C5         -0.3380   -0.3200   -3.0330 c3        1 CNP      0.062500
     12 N5         -0.0560   -0.5270   -4.4920 ny        1 CNP     -0.667800
     13 C10        -0.6320    0.5650   -5.3630 c         1 CNP      0.581100
     14 O10        -1.8480    0.5690   -5.4900 o         1 CNP     -0.440100
     15 C11         0.3580    1.4950   -5.9790 c3        1 CNP     -0.184100
     16 C6          0.3460   -1.4280   -2.1870 c3        1 CNP      0.085100
     17 O6         -0.0940   -1.2470   -0.8530 os        1 CNP     -0.392600
     18 C7         -0.0380   -2.8480   -2.6340 c3        1 CNP      0.094100
     19 O7         -1.3470   -2.8700   -3.1750 oh        1 CNP     -0.634800
     20 C8          0.1540   -3.8420   -1.4750 c3        1 CNP      0.097100
     21 O8          1.4970   -3.8340   -1.0420 oh        1 CNP     -0.616800
     22 C9         -0.1340   -5.2730   -1.9490 c3        1 CNP      0.135400
     23 O9         -0.1230   -6.1730   -0.8640 oh        1 CNP     -0.597800
     24 H121       -1.1060    0.0690    1.2460 hc        1 CNP      0.054200
     25 H122        0.4630    0.8970    1.6520 hc        1 CNP      0.054200
     26 H13         1.4170   -1.6590    1.5580 ha        1 CNP      0.165000
     27 H141       -1.1120   -1.3000    3.3670 ha        1 CNP      0.104500
     28 H142        0.2020   -2.5920    3.5350 ha        1 CNP      0.104500
     29 H31         0.2920    2.0950   -0.6210 hc        1 CNP      0.073200
     30 H32        -1.2810    1.1870   -0.8620 hc        1 CNP      0.073200
     31 H4          1.2530    1.1880   -2.6580 h1        1 CNP      0.129700
     32 HO4        -1.2380    2.4170   -2.7910 ho        1 CNP      0.429000
     33 H5         -1.4600   -0.3960   -2.9130 hx        1 CNP      0.114700
     34 HN5        -0.4830   -1.4320   -4.7450 hn        1 CNP      0.459800
     35 H111        1.1890    0.9440   -6.4820 hc        1 CNP      0.108700
     36 H112       -0.1730    2.1330   -6.7310 hc        1 CNP      0.108700
     37 H113        0.7820    2.1630   -5.1790 hc        1 CNP      0.108700
     38 H6          1.4720   -1.3320   -2.2500 h1        1 CNP      0.118700
     39 H7          0.6270   -3.1520   -3.4930 h1        1 CNP      0.066700
     40 HO7        -1.9690   -2.9000   -2.4370 ho        1 CNP      0.431000
     41 H8         -0.5370   -3.5670   -0.6300 h1        1 CNP      0.072700
     42 HO8         1.6680   -2.9850   -0.5900 ho        1 CNP      0.471000
     43 H91        -1.1670   -5.3340   -2.3820 h1        1 CNP      0.048700
     44 H92         0.6260   -5.5800   -2.7160 h1        1 CNP      0.048700
     45 HO9         0.7250   -6.0590   -0.4130 ho        1 CNP      0.422000
     46 H52         0.9570   -0.5780   -4.6250 hn        1 CNP      0.459800
@<TRIPOS>BOND
     1    1    2 1   
     2    1    3 1   
     3    1    4 1   
     4    4    5 1   
     5    4    8 1   
     6    4   17 1   
     7    5    6 1   
     8    5   24 1   
     9    5   25 1   
    10    6    7 2   
    11    6   26 1   
    12    7   27 1   
    13    7   28 1   
    14    8    9 1   
    15    8   29 1   
    16    8   30 1   
    17    9   10 1   
    18    9   11 1   
    19    9   31 1   
    20   10   32 1   
    21   11   12 1   
    22   11   16 1   
    23   11   33 1   
    24   12   13 1   
    25   12   34 1   
    26   12   46 1   
    27   13   14 2   
    28   13   15 1   
    29   15   35 1   
    30   15   36 1   
    31   15   37 1   
    32   16   17 1   
    33   16   18 1   
    34   16   38 1   
    35   18   19 1   
    36   18   20 1   
    37   18   39 1   
    38   19   40 1   
    39   20   21 1   
    40   20   22 1   
    41   20   41 1   
    42   21   42 1   
    43   22   23 1   
    44   22   43 1   
    45   22   44 1   
    46   23   45 1   
@<TRIPOS>SUBSTRUCTURE
     1 CNP         1 TEMP              0 ****  ****    0 ROOT
