@<TRIPOS>MOLECULE
CNP
   45    45     1     0     0
SMALL
bcc


@<TRIPOS>ATOM
      1 C1         -1.6310   -1.5030   -1.4270 c         1 CNP      0.906600
      2 O1A        -2.7050   -2.1400   -1.2650 o         1 CNP     -0.827800
      3 O1B        -0.5600   -2.0050   -1.8740 o         1 CNP     -0.827800
      4 C2         -1.6360    0.0140   -1.0520 c3        1 CNP      0.026800
      5 C12        -2.1840    0.8310   -2.2250 c3        1 CNP     -0.032200
      6 C13        -1.3610    0.6970   -3.4510 c2        1 CNP     -0.117200
      7 C14        -1.3570    1.5920   -4.4370 c2        1 CNP     -0.281000
      8 C3         -2.4850    0.2600    0.1950 c3        1 CNP     -0.119400
      9 C4         -1.8320   -0.3840    1.4110 c3        1 CNP      0.113100
     10 O4         -2.5540   -0.0880    2.6020 oh        1 CNP     -0.613800
     11 C5         -0.3830    0.1510    1.5930 c3        1 CNP      0.073700
     12 N5          0.2940   -0.4410    2.7230 n         1 CNP     -0.536900
     13 C10         0.4880    0.2390    3.9130 c         1 CNP      0.660100
     14 O10         0.3430    1.4720    4.0200 o         1 CNP     -0.608100
     15 C11         0.9650   -0.5850    5.0900 c3        1 CNP     -0.178100
     16 C6          0.3550   -0.1540    0.2580 c3        1 CNP      0.096100
     17 O6         -0.3110    0.5170   -0.8080 os        1 CNP     -0.424600
     18 C7          1.7970    0.3690    0.2160 c3        1 CNP      0.130100
     19 O7          1.8600    1.7720    0.4040 oh        1 CNP     -0.603800
     20 C8          2.4470    0.0030   -1.1350 c3        1 CNP      0.087100
     21 O8          2.3650   -1.3860   -1.3960 oh        1 CNP     -0.643800
     22 C9          3.9400    0.3420   -1.1090 c3        1 CNP      0.136400
     23 O9          4.5640    0.0390   -2.3410 oh        1 CNP     -0.620800
     24 H121       -3.2190    0.4430   -2.4330 hc        1 CNP      0.048700
     25 H122       -2.2670    1.9090   -1.9250 hc        1 CNP      0.048700
     26 H13        -0.7440   -0.2220   -3.4890 ha        1 CNP      0.164000
     27 H141       -0.7500    1.4620   -5.3410 ha        1 CNP      0.094000
     28 H142       -1.9540    2.5120   -4.4100 ha        1 CNP      0.094000
     29 H31        -3.4940   -0.2010    0.0290 hc        1 CNP      0.054200
     30 H32        -2.6090    1.3580    0.3740 hc        1 CNP      0.054200
     31 H4         -1.8120   -1.5030    1.2640 h1        1 CNP      0.061700
     32 HO4        -3.4810   -0.2690    2.4060 ho        1 CNP      0.398000
     33 H5         -0.4180    1.2700    1.7430 h1        1 CNP      0.104700
     34 HN5         0.2600   -1.4330    2.7650 hn        1 CNP      0.296500
     35 H111        1.1590    0.0980    5.9510 hc        1 CNP      0.056367
     36 H112        0.1830   -1.3260    5.3830 hc        1 CNP      0.056367
     37 H113        1.9070   -1.1280    4.8380 hc        1 CNP      0.056367
     38 H6          0.3550   -1.2670    0.0760 h1        1 CNP      0.093700
     39 H7          2.3910   -0.0670    1.0650 h1        1 CNP      0.077700
     40 HO7         1.2000    2.1640   -0.1830 ho        1 CNP      0.414000
     41 H8          1.9330    0.5820   -1.9520 h1        1 CNP      0.060700
     42 HO8         1.4460   -1.5780   -1.6630 ho        1 CNP      0.470000
     43 H91         4.0780    1.4440   -0.9570 h1        1 CNP      0.044200
     44 H92         4.4470   -0.2270   -0.2850 h1        1 CNP      0.044200
     45 HO9         4.2500   -0.8370   -2.6040 ho        1 CNP      0.416000
@<TRIPOS>BOND
     1    1    2 1   
     2    1    3 1   
     3    1    4 1   
     4    4    5 1   
     5    4    8 1   
     6    4   17 1   
     7    5    6 1   
     8    5   24 1   
     9    5   25 1   
    10    6    7 2   
    11    6   26 1   
    12    7   27 1   
    13    7   28 1   
    14    8    9 1   
    15    8   29 1   
    16    8   30 1   
    17    9   10 1   
    18    9   11 1   
    19    9   31 1   
    20   10   32 1   
    21   11   12 1   
    22   11   16 1   
    23   11   33 1   
    24   12   13 1   
    25   12   34 1   
    26   13   14 2   
    27   13   15 1   
    28   15   35 1   
    29   15   36 1   
    30   15   37 1   
    31   16   17 1   
    32   16   18 1   
    33   16   38 1   
    34   18   19 1   
    35   18   20 1   
    36   18   39 1   
    37   19   40 1   
    38   20   21 1   
    39   20   22 1   
    40   20   41 1   
    41   21   42 1   
    42   22   23 1   
    43   22   43 1   
    44   22   44 1   
    45   23   45 1   
@<TRIPOS>SUBSTRUCTURE
     1 CNP         1 TEMP              0 ****  ****    0 ROOT
