@<TRIPOS>MOLECULE
CNQ
   31    33     1     0     0
SMALL
bcc


@<TRIPOS>ATOM
      1 C1         -0.0520   -0.4940   -0.2780 ca        1 CNQ     -0.153000
      2 C2          1.3130   -0.3280   -0.2100 ca        1 CNQ     -0.056300
      3 C3          1.9520   -0.1850    1.0580 ca        1 CNQ      0.268300
      4 C4          1.1670   -0.2040    2.2630 ca        1 CNQ      0.339300
      5 C5         -0.2520   -0.3660    2.1470 ca        1 CNQ     -0.265900
      6 C6         -0.8320   -0.5230    0.8890 ca        1 CNQ      0.008000
      7 N7          3.3320   -0.0360    1.1150 nb        1 CNQ     -0.579000
      8 C8          3.8810    0.0760    2.3040 ca        1 CNQ      0.315900
      9 C9          3.0980    0.0470    3.5390 cp        1 CNQ      0.450500
     10 N10         1.7740   -0.0860    3.5000 nb        1 CNQ     -0.752000
     11 C11        -1.1710   -0.4310    3.2800 c         1 CNQ      0.581700
     12 N12        -0.7730    0.2270    4.5820 nz        1 CNQ     -0.741400
     13 O13        -2.2890   -0.9330    3.3140 o         1 CNQ     -0.436100
     14 C14         3.8130    0.1660    4.8140 cp        1 CNQ     -0.204500
     15 C15         3.4990   -0.6710    5.8930 ca        1 CNQ     -0.088500
     16 C16         4.2000   -0.5650    7.0900 ca        1 CNQ     -0.124500
     17 C17         5.2160    0.3910    7.2180 ca        1 CNQ      0.047400
     18 C18         5.5330    1.2330    6.1450 ca        1 CNQ     -0.124500
     19 C19         4.8360    1.1170    4.9460 ca        1 CNQ     -0.088500
     20 Cl24        6.0650    0.5260    8.6740 cl        1 CNQ     -0.040400
     21 H1         -0.5500   -0.6140   -1.2560 ha        1 CNQ      0.179000
     22 H2          1.9280   -0.3080   -1.1290 ha        1 CNQ      0.187000
     23 H6         -1.9250   -0.6740    0.8050 ha        1 CNQ      0.175000
     24 H8          4.9820    0.1840    2.3560 h4        1 CNQ      0.067100
     25 H121       -0.0480   -0.3360    5.0450 hn        1 CNQ      0.472133
     26 H122       -0.3910    1.1600    4.4020 hn        1 CNQ      0.472133
     27 H15         2.7130   -1.4350    5.7910 ha        1 CNQ      0.142500
     28 H16         3.9620   -1.2360    7.9310 ha        1 CNQ      0.166500
     29 H18         6.3350    1.9830    6.2450 ha        1 CNQ      0.166500
     30 H19         5.0880    1.7820    4.1050 ha        1 CNQ      0.142500
     31 H123       -1.5890    0.2980    5.1990 hn        1 CNQ      0.472133
@<TRIPOS>BOND
     1    1    2 ar  
     2    1    6 ar  
     3    1   21 1   
     4    2    3 ar  
     5    2   22 1   
     6    3    4 ar  
     7    3    7 ar  
     8    4    5 ar  
     9    4   10 ar  
    10    5    6 ar  
    11    5   11 1   
    12    6   23 1   
    13    7    8 ar  
    14    8    9 ar  
    15    8   24 1   
    16    9   10 ar  
    17    9   14 1   
    18   11   12 1   
    19   11   13 2   
    20   12   25 1   
    21   12   26 1   
    22   12   31 1   
    23   14   15 ar  
    24   14   19 ar  
    25   15   16 ar  
    26   15   27 1   
    27   16   17 ar  
    28   16   28 1   
    29   17   18 ar  
    30   17   20 1   
    31   18   19 ar  
    32   18   29 1   
    33   19   30 1   
@<TRIPOS>SUBSTRUCTURE
     1 CNQ         1 TEMP              0 ****  ****    0 ROOT
