@<TRIPOS>MOLECULE
CNQ
   31    33     1     0     0
SMALL
bcc


@<TRIPOS>ATOM
      1 C1         -0.0230   -0.3720   -0.3080 ca        1 CNQ     -0.153000
      2 C2          1.3400   -0.1910   -0.2240 ca        1 CNQ     -0.056300
      3 C3          1.9700   -0.0880    1.0520 ca        1 CNQ      0.268300
      4 C4          1.1780   -0.1640    2.2510 ca        1 CNQ      0.339300
      5 C5         -0.2380   -0.3410    2.1200 ca        1 CNQ     -0.265900
      6 C6         -0.8090   -0.4560    0.8530 ca        1 CNQ      0.008000
      7 N7          3.3470    0.0770    1.1240 nb        1 CNQ     -0.579000
      8 C8          3.8870    0.1490    2.3200 ca        1 CNQ      0.315900
      9 C9          3.0980    0.0630    3.5470 cp        1 CNQ      0.450500
     10 N10         1.7760   -0.0860    3.4950 nb        1 CNQ     -0.752000
     11 C11        -1.1630   -0.4610    3.2430 c         1 CNQ      0.582700
     12 N12        -0.7820    0.1520    4.5720 n4        1 CNQ     -0.741400
     13 O13        -2.2740   -0.9790    3.2510 o         1 CNQ     -0.436100
     14 C14         3.8040    0.1420    4.8310 cp        1 CNQ     -0.204500
     15 C15         3.4940   -0.7410    5.8740 ca        1 CNQ     -0.088500
     16 C16         4.1880   -0.6720    7.0790 ca        1 CNQ     -0.124500
     17 C17         5.1890    0.2920    7.2510 ca        1 CNQ      0.047400
     18 C18         5.5010    1.1790    6.2130 ca        1 CNQ     -0.124500
     19 C19         4.8130    1.1000    5.0060 ca        1 CNQ     -0.088500
     20 CL24        6.0280    0.3820    8.7160 cl        1 CNQ     -0.040400
     21 H1         -0.5130   -0.4600   -1.2930 ha        1 CNQ      0.179000
     22 H2          1.9600   -0.1270   -1.1380 ha        1 CNQ      0.187000
     23 H6         -1.8990   -0.6180    0.7560 ha        1 CNQ      0.175000
     24 H8          4.9860    0.2700    2.3830 h4        1 CNQ      0.067100
     25 H121       -0.0520   -0.4190    5.0180 hn        1 CNQ      0.472133
     26 H122       -0.4110    1.0960    4.4300 hn        1 CNQ      0.472133
     27 H15         2.7200   -1.5110    5.7390 ha        1 CNQ      0.142500
     28 H16         3.9530   -1.3780    7.8920 ha        1 CNQ      0.166500
     29 H18         6.2920    1.9360    6.3470 ha        1 CNQ      0.166500
     30 H19         5.0610    1.8010    4.1930 ha        1 CNQ      0.142500
     31 H123       -1.6030    0.1890    5.1860 hn        1 CNQ      0.472133
@<TRIPOS>BOND
     1    1    2 ar  
     2    1    6 ar  
     3    1   21 1   
     4    2    3 ar  
     5    2   22 1   
     6    3    4 ar  
     7    3    7 ar  
     8    4    5 ar  
     9    4   10 ar  
    10    5    6 ar  
    11    5   11 1   
    12    6   23 1   
    13    7    8 ar  
    14    8    9 ar  
    15    8   24 1   
    16    9   10 ar  
    17    9   14 1   
    18   11   12 1   
    19   11   13 2   
    20   12   25 1   
    21   12   26 1   
    22   12   31 1   
    23   14   15 ar  
    24   14   19 ar  
    25   15   16 ar  
    26   15   27 1   
    27   16   17 ar  
    28   16   28 1   
    29   17   18 ar  
    30   17   20 1   
    31   18   19 ar  
    32   18   29 1   
    33   19   30 1   
@<TRIPOS>SUBSTRUCTURE
     1 CNQ         1 TEMP              0 ****  ****    0 ROOT
