@<TRIPOS>MOLECULE
CNQ
   30    32     1     0     0
SMALL
bcc


@<TRIPOS>ATOM
      1 C1         -1.1260    0.3370   -4.9910 ca        1 CNQ     -0.130000
      2 C2         -2.0680    0.2420   -3.9960 ca        1 CNQ     -0.139300
      3 C3         -1.6600    0.1610   -2.6310 ca        1 CNQ      0.277300
      4 C4         -0.2560    0.1620   -2.3110 ca        1 CNQ      0.310300
      5 C5          0.6890    0.2600   -3.3800 ca        1 CNQ     -0.172900
      6 C6          0.2520    0.3560   -4.6840 ca        1 CNQ     -0.065000
      7 N7         -2.6120    0.0880   -1.6240 nb        1 CNQ     -0.614000
      8 C8         -2.1730    0.0230   -0.3860 ca        1 CNQ      0.302900
      9 C9         -0.7540    0.0180   -0.0500 cp        1 CNQ      0.376500
     10 N10         0.1750    0.0860   -0.9980 nb        1 CNQ     -0.642000
     11 C11         2.1590    0.3170   -3.1170 c         1 CNQ      0.673700
     12 N12         2.7350   -0.7030   -2.3990 n         1 CNQ     -0.643000
     13 O13         2.8650    1.2260   -3.6030 o         1 CNQ     -0.609100
     14 C14        -0.3790   -0.0600    1.3690 cp        1 CNQ     -0.158500
     15 C15         0.6780    0.7110    1.8710 ca        1 CNQ     -0.092000
     16 C16         1.0160    0.6430    3.2210 ca        1 CNQ     -0.130000
     17 C17         0.3000   -0.2040    4.0730 ca        1 CNQ      0.030400
     18 C18        -0.7520   -0.9830    3.5790 ca        1 CNQ     -0.130000
     19 C19        -1.0890   -0.9080    2.2300 ca        1 CNQ     -0.092000
     20 CL24        0.7100   -0.2890    5.7190 cl        1 CNQ     -0.084400
     21 H1         -1.4360    0.4060   -6.0450 ha        1 CNQ      0.147000
     22 H2         -3.1440    0.2320   -4.2340 ha        1 CNQ      0.157000
     23 H6          0.9890    0.4600   -5.4990 ha        1 CNQ      0.160000
     24 H8         -2.9260   -0.0200    0.4210 h4        1 CNQ      0.040100
     25 H121        3.6860   -0.6090   -2.1370 hn        1 CNQ      0.311000
     26 H122        2.1740   -1.3260   -1.8750 hn        1 CNQ      0.311000
     27 H15         1.2460    1.3750    1.2000 ha        1 CNQ      0.149000
     28 H16         1.8450    1.2530    3.6110 ha        1 CNQ      0.153000
     29 H18        -1.3110   -1.6530    4.2500 ha        1 CNQ      0.153000
     30 H19        -1.9100   -1.5290    1.8410 ha        1 CNQ      0.149000
@<TRIPOS>BOND
     1    1    2 ar  
     2    1    6 ar  
     3    1   21 1   
     4    2    3 ar  
     5    2   22 1   
     6    3    4 ar  
     7    3    7 ar  
     8    4    5 ar  
     9    4   10 ar  
    10    5    6 ar  
    11    5   11 1   
    12    6   23 1   
    13    7    8 ar  
    14    8    9 ar  
    15    8   24 1   
    16    9   10 ar  
    17    9   14 1   
    18   11   12 1   
    19   11   13 2   
    20   12   25 1   
    21   12   26 1   
    22   14   15 ar  
    23   14   19 ar  
    24   15   16 ar  
    25   15   27 1   
    26   16   17 ar  
    27   16   28 1   
    28   17   18 ar  
    29   17   20 1   
    30   18   19 ar  
    31   18   29 1   
    32   19   30 1   
@<TRIPOS>SUBSTRUCTURE
     1 CNQ         1 TEMP              0 ****  ****    0 ROOT
