@<TRIPOS>MOLECULE
CNQ
   31    33     1     0     0
SMALL
bcc


@<TRIPOS>ATOM
      1 C1         -0.0650   -0.4780   -0.2730 ca        1 CNQ     -0.153000
      2 C2          1.3000   -0.3080   -0.2090 ca        1 CNQ     -0.056300
      3 C3          1.9440   -0.1700    1.0570 ca        1 CNQ      0.268300
      4 C4          1.1630   -0.1990    2.2650 ca        1 CNQ      0.339300
      5 C5         -0.2560   -0.3640    2.1540 ca        1 CNQ     -0.265900
      6 C6         -0.8410   -0.5150    0.8970 ca        1 CNQ      0.008000
      7 N7          3.3230   -0.0180    1.1110 nb        1 CNQ     -0.579000
      8 C8          3.8760    0.0880    2.2980 ca        1 CNQ      0.315900
      9 C9          3.0980    0.0500    3.5350 cp        1 CNQ      0.450500
     10 N10         1.7740   -0.0860    3.5010 nb        1 CNQ     -0.752000
     11 C11        -1.1710   -0.4380    3.2900 c         1 CNQ      0.582700
     12 N12        -0.7700    0.2140    4.5930 n4        1 CNQ     -0.741400
     13 O13        -2.2880   -0.9430    3.3250 o         1 CNQ     -0.436100
     14 C14         3.8170    0.1640    4.8090 cp        1 CNQ     -0.204500
     15 C15         3.5090   -0.6810    5.8830 ca        1 CNQ     -0.088500
     16 C16         4.2150   -0.5800    7.0790 ca        1 CNQ     -0.124500
     17 C17         5.2290    0.3780    7.2090 ca        1 CNQ      0.047400
     18 C18         5.5390    1.2280    6.1390 ca        1 CNQ     -0.124500
     19 C19         4.8380    1.1170    4.9430 ca        1 CNQ     -0.088500
     20 CL24        6.0820    0.5070    8.6620 cl        1 CNQ     -0.040400
     21 H1         -0.5670   -0.5930   -1.2500 ha        1 CNQ      0.179000
     22 H2          1.9110   -0.2810   -1.1300 ha        1 CNQ      0.187000
     23 H6         -1.9330   -0.6690    0.8160 ha        1 CNQ      0.175000
     24 H8          4.9760    0.1990    2.3470 h4        1 CNQ      0.067100
     25 H121       -0.3910    1.1490    4.4170 hn        1 CNQ      0.472133
     26 H122       -1.5840    0.2800    5.2150 hn        1 CNQ      0.472133
     27 H15         2.7260   -1.4460    5.7810 ha        1 CNQ      0.142500
     28 H16         3.9810   -1.2560    7.9170 ha        1 CNQ      0.166500
     29 H18         6.3380    1.9800    6.2410 ha        1 CNQ      0.166500
     30 H19         5.0850    1.7880    4.1040 ha        1 CNQ      0.142500
     31 H123       -0.0420   -0.3500    5.0510 hn        1 CNQ      0.472133
@<TRIPOS>BOND
     1    1    2 ar  
     2    1    6 ar  
     3    1   21 1   
     4    2    3 ar  
     5    2   22 1   
     6    3    4 ar  
     7    3    7 ar  
     8    4    5 ar  
     9    4   10 ar  
    10    5    6 ar  
    11    5   11 1   
    12    6   23 1   
    13    7    8 ar  
    14    8    9 ar  
    15    8   24 1   
    16    9   10 ar  
    17    9   14 1   
    18   11   12 1   
    19   11   13 2   
    20   12   25 1   
    21   12   26 1   
    22   12   31 1   
    23   14   15 ar  
    24   14   19 ar  
    25   15   16 ar  
    26   15   27 1   
    27   16   17 ar  
    28   16   28 1   
    29   17   18 ar  
    30   17   20 1   
    31   18   19 ar  
    32   18   29 1   
    33   19   30 1   
@<TRIPOS>SUBSTRUCTURE
     1 CNQ         1 TEMP              0 ****  ****    0 ROOT
