@<TRIPOS>MOLECULE
CNQ
   30    24     1     0     0
SMALL
bcc


@<TRIPOS>ATOM
      1 C1         -2.3160   -0.0860   -3.6560 c1        1 CNQ     -0.044000
      2 C2         -0.9280   -0.0460   -3.6610 c1        1 CNQ     -0.016500
      3 C3         -0.2190   -0.0240   -2.4430 cg        1 CNQ      0.028800
      4 C4         -0.9020   -0.0420   -1.2510 cg        1 CNQ      0.061800
      5 C5         -2.3100   -0.0830   -1.2470 ch        1 CNQ     -0.056200
      6 C6         -3.0080   -0.1040   -2.4480 c1        1 CNQ     -0.044000
      7 N7          1.1460   -0.0260   -2.4470 n1        1 CNQ     -0.493600
      8 C8          1.8210   -0.0460   -1.2850 c1        1 CNQ      0.286300
      9 C9          1.1290   -0.0640   -0.0780 c1        1 CNQ      0.331800
     10 N10        -0.2150   -0.0620   -0.0730 n1        1 CNQ     -0.521600
     11 C11        -3.0840   -0.2550    0.0420 c         1 CNQ      0.622300
     12 N12        -3.8730    0.8130    0.5450 n         1 CNQ     -0.643000
     13 O13        -3.0310   -1.3070    0.6470 o         1 CNQ     -0.609100
     14 C14         1.8050   -0.0630    1.1320 c1        1 CNQ     -0.051000
     15 C15         2.1170   -1.2620    1.7520 c1        1 CNQ     -0.044000
     16 C16         2.7660   -1.2600    2.9770 c1        1 CNQ     -0.044000
     17 C17         3.1030   -0.0590    3.5810 c1        1 CNQ      0.041900
     18 C18         2.7910    1.1400    2.9600 c1        1 CNQ     -0.071500
     19 C19         2.1420    1.1380    1.7350 c1        1 CNQ     -0.046500
     20 CL24        3.9330   -0.0570    5.1140 cl        1 CNQ     -0.095900
     21 H1         -2.8070   -0.1010   -4.4990 ha        1 CNQ      0.097000
     22 H2         -0.4420   -0.0330   -4.5080 ha        1 CNQ      0.099500
     23 H6         -3.9830   -0.1320   -2.4450 ha        1 CNQ      0.097000
     24 H8          2.7970   -0.0470   -1.2890 ha        1 CNQ      0.119500
     25 H121       -3.8020    1.6460    0.1770 hn        1 CNQ      0.311000
     26 H122       -4.4460    0.6690    1.2430 hn        1 CNQ      0.311000
     27 H15         1.8790   -2.1090    1.3270 ha        1 CNQ      0.097000
     28 H16         2.9860   -2.1050    3.4140 ha        1 CNQ      0.097000
     29 H18         3.0280    1.9860    3.3850 ha        1 CNQ      0.094500
     30 H19         1.9220    1.9830    1.2980 ha        1 CNQ      0.083500
@<TRIPOS>BOND
     1    1    6 3   
     2    1   21 1   
     3    2    3 3   
     4    2   22 1   
     5    3    7 1   
     6    4    5 3   
     7    4   10 1   
     8    5   11 1   
     9    6   23 1   
    10    7    8 3   
    11    8   24 1   
    12    9   10 3   
    13   11   12 1   
    14   11   13 2   
    15   12   25 1   
    16   12   26 1   
    17   14   19 3   
    18   15   16 3   
    19   15   27 1   
    20   16   28 1   
    21   17   18 3   
    22   17   20 1   
    23   18   29 1   
    24   19   30 1   
@<TRIPOS>SUBSTRUCTURE
     1 CNQ         1 TEMP              0 ****  ****    0 ROOT
