@<TRIPOS>MOLECULE
CNR
   10     8     1     0     0
SMALL
bcc


@<TRIPOS>ATOM
      1 C1         -1.2580   -0.0630   -0.5340 c1        1 CNR      0.338000
      2 C2          0.2550   -0.0630   -0.5340 c2        1 CNR     -0.104000
      3 C3          0.7590   -0.0630    0.8920 c3        1 CNR     -0.203000
      4 CL          0.8360    1.3610   -1.3560 cl        1 CNR     -0.206000
      5 O1A        -1.8880   -1.1530   -0.5400 o         1 CNR     -0.560000
      6 O1B        -1.8880    1.0280   -0.5290 o         1 CNR     -0.560000
      7 H2          0.5800   -0.8600   -0.9950 h4        1 CNR      0.088000
      8 H31         0.4350    0.7350    1.3520 hc        1 CNR      0.069000
      9 H32         1.7350   -0.0640    0.8920 hc        1 CNR      0.069000
     10 H33         0.4320   -0.8590    1.3530 hc        1 CNR      0.069000
@<TRIPOS>BOND
     1    1    5 1   
     2    1    6 1   
     3    2    3 1   
     4    2    4 1   
     5    2    7 1   
     6    3    8 1   
     7    3    9 1   
     8    3   10 1   
@<TRIPOS>SUBSTRUCTURE
     1 CNR         1 TEMP              0 ****  ****    0 ROOT
