@<TRIPOS>MOLECULE
CNR
   10     9     1     0     0
SMALL
bcc


@<TRIPOS>ATOM
      1 C1         -0.0060   -0.2720    0.0760 c         1 CNR      0.918600
      2 C2          1.5460   -0.2140    0.0720 c3        1 CNR     -0.041300
      3 C3          2.0750    0.3740    1.3500 c3        1 CNR     -0.085100
      4 Cl          2.1370    0.7360   -1.3220 cl        1 CNR     -0.279400
      5 O1A        -0.6440    0.7240    0.5100 o         1 CNR     -0.825300
      6 O1B        -0.5260   -1.3500   -0.3220 o         1 CNR     -0.825300
      7 H2          1.9560   -1.2380   -0.1110 h1        1 CNR      0.048700
      8 H31         1.5970    1.3690    1.5350 hc        1 CNR      0.029700
      9 H32         3.1840    0.4980    1.3250 hc        1 CNR      0.029700
     10 H33         1.8090   -0.3030    2.1980 hc        1 CNR      0.029700
@<TRIPOS>BOND
     1    1    2 1   
     2    1    5 1   
     3    1    6 1   
     4    2    3 1   
     5    2    4 1   
     6    2    7 1   
     7    3    8 1   
     8    3    9 1   
     9    3   10 1   
@<TRIPOS>SUBSTRUCTURE
     1 CNR         1 TEMP              0 ****  ****    0 ROOT
