@<TRIPOS>MOLECULE
CNR
   10     9     1     0     0
SMALL
bcc


@<TRIPOS>ATOM
      1 C1          0.2540    2.0120   -1.9850 c         1 CNR      0.918600
      2 C2         -0.6210    2.0070   -0.7020 c3        1 CNR     -0.041300
      3 C3         -0.2200    0.8970    0.2290 c3        1 CNR     -0.085100
      4 CL         -2.3520    1.8490   -1.1200 cl        1 CNR     -0.279400
      5 O1A         0.5100    0.9120   -2.5430 o         1 CNR     -0.825300
      6 O1B         0.6900    3.1350   -2.3590 o         1 CNR     -0.825300
      7 H2         -0.5570    3.0060   -0.2040 h1        1 CNR      0.048700
      8 H31         0.8230    1.0830    0.5860 hc        1 CNR      0.029700
      9 H32        -0.2330   -0.0780   -0.3170 hc        1 CNR      0.029700
     10 H33        -0.8950    0.8320    1.1150 hc        1 CNR      0.029700
@<TRIPOS>BOND
     1    1    2 1   
     2    1    5 1   
     3    1    6 1   
     4    2    3 1   
     5    2    4 1   
     6    2    7 1   
     7    3    8 1   
     8    3    9 1   
     9    3   10 1   
@<TRIPOS>SUBSTRUCTURE
     1 CNR         1 TEMP              0 ****  ****    0 ROOT
