@<TRIPOS>MOLECULE
CNR
   10     9     1     0     0
SMALL
bcc


@<TRIPOS>ATOM
      1 C1         -0.0170   -0.1400    0.0400 c         1 CNR      0.918600
      2 C2          1.5360   -0.1160    0.0270 c3        1 CNR     -0.041300
      3 C3          2.0890    0.1760    1.3940 c3        1 CNR     -0.085100
      4 CL          2.1370    1.0970   -1.1410 cl        1 CNR     -0.279400
      5 O1A        -0.6280    0.7530    0.6840 o         1 CNR     -0.825300
      6 O1B        -0.5650   -1.0970   -0.5720 o         1 CNR     -0.825300
      7 H2          1.9210   -1.0850   -0.3740 h1        1 CNR      0.048700
      8 H31         1.6370    1.1180    1.7920 hc        1 CNR      0.029700
      9 H32         3.2010    0.2790    1.3800 hc        1 CNR      0.029700
     10 H33         1.8150   -0.6600    2.0820 hc        1 CNR      0.029700
@<TRIPOS>BOND
     1    1    2 1   
     2    1    5 1   
     3    1    6 1   
     4    2    3 1   
     5    2    4 1   
     6    2    7 1   
     7    3    8 1   
     8    3    9 1   
     9    3   10 1   
@<TRIPOS>SUBSTRUCTURE
     1 CNR         1 TEMP              0 ****  ****    0 ROOT
