@<TRIPOS>MOLECULE
CNS
   74    73     1     0     0
SMALL
bcc


@<TRIPOS>ATOM
      1 C24        -0.0690   -0.5240    0.3530 c3        1 CNS     -0.092100
      2 C23         1.4310   -0.3870    0.3140 c3        1 CNS     -0.080400
      3 C22         2.0250   -0.3760    1.7070 c3        1 CNS     -0.079400
      4 C21         3.5320   -0.2380    1.6630 c3        1 CNS     -0.079400
      5 C20         4.1240   -0.2280    3.0550 c3        1 CNS     -0.079400
      6 C19         5.6310   -0.0890    3.0110 c3        1 CNS     -0.079400
      7 C18         6.2230   -0.0780    4.4040 c3        1 CNS     -0.079400
      8 C17         7.7290    0.0610    4.3600 c3        1 CNS     -0.079400
      9 C16         8.3220    0.0720    5.7530 c3        1 CNS     -0.079400
     10 C15         9.8280    0.2120    5.7080 c3        1 CNS     -0.079400
     11 C14        10.4200    0.2240    7.1010 c3        1 CNS     -0.079400
     12 C13        11.9270    0.3660    7.0560 c3        1 CNS     -0.079400
     13 C12        12.5180    0.3790    8.4500 c3        1 CNS     -0.078400
     14 C11        14.0240    0.5220    8.4040 c3        1 CNS     -0.078400
     15 C10        14.6110    0.5360    9.7980 c3        1 CNS     -0.085400
     16 C9         16.1190    0.6810    9.7290 c3        1 CNS      0.139400
     17 O2         16.5820    0.6860   11.0910 os        1 CNS     -0.445900
     18 C8         17.9310    0.8140   11.2790 c         1 CNS      0.631100
     19 C7         18.3100    0.8380   12.7270 c3        1 CNS     -0.127400
     20 C6         19.6230    0.1190   12.9570 c3        1 CNS     -0.079400
     21 O1         18.6530    0.9070   10.2840 o         1 CNS     -0.544000
     22 C3         21.8290   -0.3150   16.0720 c3        1 CNS     -0.079400
     23 C4         21.3740   -0.4650   14.6360 c3        1 CNS     -0.079400
     24 C5         20.0710    0.2680   14.3950 c3        1 CNS     -0.078400
     25 C2         23.1320   -1.0460   16.3160 c3        1 CNS     -0.080400
     26 C1         23.5890   -0.8990   17.7440 c3        1 CNS     -0.093100
     27 H241       -0.3650   -1.4750    0.8580 hc        1 CNS      0.032700
     28 H242       -0.4850   -0.5300   -0.6830 hc        1 CNS      0.032700
     29 H243       -0.5280    0.3260    0.9130 hc        1 CNS      0.032700
     30 H231        1.7100    0.5610   -0.2180 hc        1 CNS      0.038700
     31 H232        1.8720   -1.2360   -0.2730 hc        1 CNS      0.038700
     32 H221        1.7500   -1.3250    2.2400 hc        1 CNS      0.039700
     33 H222        1.5870    0.4720    2.2950 hc        1 CNS      0.039700
     34 H211        3.9700   -1.0870    1.0740 hc        1 CNS      0.039700
     35 H212        3.8070    0.7100    1.1300 hc        1 CNS      0.039700
     36 H201        3.8490   -1.1760    3.5880 hc        1 CNS      0.039700
     37 H202        3.6860    0.6210    3.6440 hc        1 CNS      0.039700
     38 H191        5.9060    0.8590    2.4780 hc        1 CNS      0.039700
     39 H192        6.0690   -0.9380    2.4230 hc        1 CNS      0.039700
     40 H181        5.7840    0.7700    4.9930 hc        1 CNS      0.039700
     41 H182        5.9480   -1.0270    4.9370 hc        1 CNS      0.039700
     42 H171        8.0040    1.0090    3.8270 hc        1 CNS      0.039700
     43 H172        8.1680   -0.7870    3.7710 hc        1 CNS      0.039700
     44 H161        7.8820    0.9200    6.3410 hc        1 CNS      0.039700
     45 H162        8.0480   -0.8770    6.2850 hc        1 CNS      0.039700
     46 H151       10.2680   -0.6360    5.1200 hc        1 CNS      0.039700
     47 H152       10.1020    1.1610    5.1750 hc        1 CNS      0.039700
     48 H141        9.9800    1.0720    7.6890 hc        1 CNS      0.039700
     49 H142       10.1470   -0.7240    7.6340 hc        1 CNS      0.039700
     50 H131       12.1990    1.3150    6.5230 hc        1 CNS      0.040700
     51 H132       12.3670   -0.4820    6.4680 hc        1 CNS      0.040700
     52 H121       12.2460   -0.5700    8.9830 hc        1 CNS      0.041700
     53 H122       12.0770    1.2270    9.0380 hc        1 CNS      0.041700
     54 H111       14.4650   -0.3260    7.8170 hc        1 CNS      0.042700
     55 H112       14.2960    1.4710    7.8700 hc        1 CNS      0.042700
     56 H101       14.3510   -0.4120   10.3380 hc        1 CNS      0.054200
     57 H102       14.1810    1.3840   10.3920 hc        1 CNS      0.054200
     58 H91        16.5980   -0.1770    9.1880 h1        1 CNS      0.051700
     59 H92        16.4250    1.6410    9.2390 h1        1 CNS      0.051700
     60 H71        17.4930    0.3740   13.3390 hc        1 CNS      0.077700
     61 H72        18.3970    1.9160   13.0310 hc        1 CNS      0.077700
     62 H61        20.4030    0.5350   12.2650 hc        1 CNS      0.057700
     63 H62        19.5050   -0.9680   12.7060 hc        1 CNS      0.057700
     64 H31        21.0390   -0.7150   16.7610 hc        1 CNS      0.039700
     65 H32        21.9590    0.7730   16.3140 hc        1 CNS      0.039700
     66 H41        22.1630   -0.0640   13.9470 hc        1 CNS      0.042700
     67 H42        21.2450   -1.5520   14.3940 hc        1 CNS      0.042700
     68 H51        20.2000    1.3550   14.6400 hc        1 CNS      0.041200
     69 H52        19.2800   -0.1350   15.0810 hc        1 CNS      0.041200
     70 H21        23.0000   -2.1340   16.0720 hc        1 CNS      0.039200
     71 H22        23.9200   -0.6460   15.6240 hc        1 CNS      0.039200
     72 H11        22.8280   -1.3150   18.4470 hc        1 CNS      0.033033
     73 H12        23.7490    0.1760   17.9980 hc        1 CNS      0.033033
     74 H13        24.5500   -1.4460   17.9010 hc        1 CNS      0.033033
@<TRIPOS>BOND
     1    1    2 1   
     2    1   27 1   
     3    1   28 1   
     4    1   29 1   
     5    2    3 1   
     6    2   30 1   
     7    2   31 1   
     8    3    4 1   
     9    3   32 1   
    10    3   33 1   
    11    4    5 1   
    12    4   34 1   
    13    4   35 1   
    14    5    6 1   
    15    5   36 1   
    16    5   37 1   
    17    6    7 1   
    18    6   38 1   
    19    6   39 1   
    20    7    8 1   
    21    7   40 1   
    22    7   41 1   
    23    8    9 1   
    24    8   42 1   
    25    8   43 1   
    26    9   10 1   
    27    9   44 1   
    28    9   45 1   
    29   10   11 1   
    30   10   46 1   
    31   10   47 1   
    32   11   12 1   
    33   11   48 1   
    34   11   49 1   
    35   12   13 1   
    36   12   50 1   
    37   12   51 1   
    38   13   14 1   
    39   13   52 1   
    40   13   53 1   
    41   14   15 1   
    42   14   54 1   
    43   14   55 1   
    44   15   16 1   
    45   15   56 1   
    46   15   57 1   
    47   16   17 1   
    48   16   58 1   
    49   16   59 1   
    50   17   18 1   
    51   18   19 1   
    52   18   21 2   
    53   19   20 1   
    54   19   60 1   
    55   19   61 1   
    56   20   24 1   
    57   20   62 1   
    58   20   63 1   
    59   22   23 1   
    60   22   25 1   
    61   22   64 1   
    62   22   65 1   
    63   23   24 1   
    64   23   66 1   
    65   23   67 1   
    66   24   68 1   
    67   24   69 1   
    68   25   26 1   
    69   25   70 1   
    70   25   71 1   
    71   26   72 1   
    72   26   73 1   
    73   26   74 1   
@<TRIPOS>SUBSTRUCTURE
     1 CNS         1 TEMP              0 ****  ****    0 ROOT
