@<TRIPOS>MOLECULE
CNS
   74    73     1     0     0
SMALL
bcc


@<TRIPOS>ATOM
      1 C24        -0.7630   -0.0080   15.1440 c3        1 CNS     -0.092100
      2 C23         0.1360    0.0020   13.9340 c3        1 CNS     -0.080400
      3 C22        -0.6640   -0.0070   12.6480 c3        1 CNS     -0.079400
      4 C21         0.2420    0.0030   11.4360 c3        1 CNS     -0.079400
      5 C20        -0.5580   -0.0060   10.1510 c3        1 CNS     -0.079400
      6 C19         0.3480    0.0040    8.9390 c3        1 CNS     -0.079400
      7 C18        -0.4520   -0.0050    7.6540 c3        1 CNS     -0.079400
      8 C17         0.4550    0.0050    6.4420 c3        1 CNS     -0.079400
      9 C16        -0.3460   -0.0040    5.1570 c3        1 CNS     -0.079400
     10 C15         0.5610    0.0060    3.9450 c3        1 CNS     -0.079400
     11 C14        -0.2390   -0.0030    2.6600 c3        1 CNS     -0.079400
     12 C13         0.6670    0.0070    1.4490 c3        1 CNS     -0.079400
     13 C12        -0.1340   -0.0010    0.1640 c3        1 CNS     -0.078400
     14 C11         0.7740    0.0080   -1.0470 c3        1 CNS     -0.078400
     15 C10        -0.0300   -0.0000   -2.3290 c3        1 CNS     -0.085400
     16 C9          0.8980    0.0100   -3.5280 c3        1 CNS      0.140400
     17 O2          0.0490    0.0000   -4.6890 os        1 CNS     -0.447900
     18 C8          0.6760    0.0070   -5.9050 c         1 CNS      0.631100
     19 C7         -0.2940   -0.0040   -7.0450 c3        1 CNS     -0.127400
     20 C6          0.4210    0.0040   -8.3780 c3        1 CNS     -0.078400
     21 O1          1.9080    0.0210   -5.9260 o         1 CNS     -0.543000
     22 C3         -0.8490   -0.0090  -12.0040 c3        1 CNS     -0.079400
     23 C4          0.1400    0.0020  -10.8570 c3        1 CNS     -0.079400
     24 C5         -0.5700   -0.0060   -9.5210 c3        1 CNS     -0.079400
     25 C2         -0.1400   -0.0020  -13.3410 c3        1 CNS     -0.080400
     26 C1         -1.1190   -0.0120  -14.4860 c3        1 CNS     -0.093100
     27 H241       -0.1540   -0.0020   16.0800 hc        1 CNS      0.032700
     28 H242       -1.4270    0.8900   15.1490 hc        1 CNS      0.032700
     29 H243       -1.4070   -0.9200   15.1490 hc        1 CNS      0.032700
     30 H231        0.7920    0.9110   13.9590 hc        1 CNS      0.038700
     31 H232        0.8120   -0.8940   13.9590 hc        1 CNS      0.038700
     32 H221       -1.3200   -0.9170   12.6200 hc        1 CNS      0.039700
     33 H222       -1.3390    0.8880   12.6200 hc        1 CNS      0.039700
     34 H211        0.8980    0.9120   11.4640 hc        1 CNS      0.039700
     35 H212        0.9180   -0.8930   11.4640 hc        1 CNS      0.039700
     36 H201       -1.2140   -0.9160   10.1230 hc        1 CNS      0.039700
     37 H202       -1.2340    0.8890   10.1230 hc        1 CNS      0.039700
     38 H191        1.0040    0.9140    8.9670 hc        1 CNS      0.039700
     39 H192        1.0240   -0.8910    8.9670 hc        1 CNS      0.039700
     40 H181       -1.1080   -0.9150    7.6260 hc        1 CNS      0.039700
     41 H182       -1.1270    0.8900    7.6260 hc        1 CNS      0.039700
     42 H171        1.1110    0.9150    6.4700 hc        1 CNS      0.039700
     43 H172        1.1300   -0.8900    6.4700 hc        1 CNS      0.039700
     44 H161       -1.0020   -0.9130    5.1290 hc        1 CNS      0.039700
     45 H162       -1.0210    0.8920    5.1290 hc        1 CNS      0.039700
     46 H151        1.2170    0.9160    3.9740 hc        1 CNS      0.039700
     47 H152        1.2360   -0.8890    3.9740 hc        1 CNS      0.039700
     48 H141       -0.9150    0.8930    2.6320 hc        1 CNS      0.039700
     49 H142       -0.8950   -0.9120    2.6320 hc        1 CNS      0.039700
     50 H131        1.3230    0.9170    1.4770 hc        1 CNS      0.040700
     51 H132        1.3430   -0.8880    1.4770 hc        1 CNS      0.040700
     52 H121       -0.7890   -0.9110    0.1350 hc        1 CNS      0.041700
     53 H122       -0.8090    0.8940    0.1350 hc        1 CNS      0.041700
     54 H111        1.4300    0.9190   -1.0190 hc        1 CNS      0.042700
     55 H112        1.4500   -0.8870   -1.0190 hc        1 CNS      0.042700
     56 H101       -0.6840   -0.9100   -2.3700 hc        1 CNS      0.053700
     57 H102       -0.7040    0.8950   -2.3700 hc        1 CNS      0.053700
     58 H91         1.5370    0.9300   -3.5550 h1        1 CNS      0.051700
     59 H92         1.5570   -0.8960   -3.5550 h1        1 CNS      0.051700
     60 H71        -0.9420   -0.9160   -6.9490 hc        1 CNS      0.078700
     61 H72        -0.9620    0.8940   -6.9490 hc        1 CNS      0.078700
     62 H61         1.0770    0.9130   -8.4460 hc        1 CNS      0.057700
     63 H62         1.0970   -0.8890   -8.4460 hc        1 CNS      0.057700
     64 H31        -1.5010   -0.9190  -11.9300 hc        1 CNS      0.039700
     65 H32        -1.5210    0.8860  -11.9300 hc        1 CNS      0.039700
     66 H41         0.7920    0.9110  -10.9310 hc        1 CNS      0.042700
     67 H42         0.8120   -0.8940  -10.9310 hc        1 CNS      0.042700
     68 H51        -1.2220   -0.9170   -9.4470 hc        1 CNS      0.039700
     69 H52        -1.2420    0.8890   -9.4470 hc        1 CNS      0.039700
     70 H21         0.5130    0.9080  -13.4130 hc        1 CNS      0.039700
     71 H22         0.5330   -0.8970  -13.4130 hc        1 CNS      0.039700
     72 H11        -0.5770   -0.0060  -15.4620 hc        1 CNS      0.033033
     73 H12        -1.7630   -0.9250  -14.4460 hc        1 CNS      0.033033
     74 H13        -1.7830    0.8850  -14.4460 hc        1 CNS      0.033033
@<TRIPOS>BOND
     1    1    2 1   
     2    1   27 1   
     3    1   28 1   
     4    1   29 1   
     5    2    3 1   
     6    2   30 1   
     7    2   31 1   
     8    3    4 1   
     9    3   32 1   
    10    3   33 1   
    11    4    5 1   
    12    4   34 1   
    13    4   35 1   
    14    5    6 1   
    15    5   36 1   
    16    5   37 1   
    17    6    7 1   
    18    6   38 1   
    19    6   39 1   
    20    7    8 1   
    21    7   40 1   
    22    7   41 1   
    23    8    9 1   
    24    8   42 1   
    25    8   43 1   
    26    9   10 1   
    27    9   44 1   
    28    9   45 1   
    29   10   11 1   
    30   10   46 1   
    31   10   47 1   
    32   11   12 1   
    33   11   48 1   
    34   11   49 1   
    35   12   13 1   
    36   12   50 1   
    37   12   51 1   
    38   13   14 1   
    39   13   52 1   
    40   13   53 1   
    41   14   15 1   
    42   14   54 1   
    43   14   55 1   
    44   15   16 1   
    45   15   56 1   
    46   15   57 1   
    47   16   17 1   
    48   16   58 1   
    49   16   59 1   
    50   17   18 1   
    51   18   19 1   
    52   18   21 2   
    53   19   20 1   
    54   19   60 1   
    55   19   61 1   
    56   20   24 1   
    57   20   62 1   
    58   20   63 1   
    59   22   23 1   
    60   22   25 1   
    61   22   64 1   
    62   22   65 1   
    63   23   24 1   
    64   23   66 1   
    65   23   67 1   
    66   24   68 1   
    67   24   69 1   
    68   25   26 1   
    69   25   70 1   
    70   25   71 1   
    71   26   72 1   
    72   26   73 1   
    73   26   74 1   
@<TRIPOS>SUBSTRUCTURE
     1 CNS         1 TEMP              0 ****  ****    0 ROOT
