@<TRIPOS>MOLECULE
CNS
   74    73     1     0     0
SMALL
bcc


@<TRIPOS>ATOM
      1 C24       -12.2030    0.0970   -7.9830 c3        1 CNS     -0.092100
      2 C23       -10.6900    0.0970   -7.9830 c3        1 CNS     -0.080400
      3 C22       -10.1860    0.0970   -6.5570 c3        1 CNS     -0.079400
      4 C21        -8.6740    0.1110   -6.5570 c3        1 CNS     -0.079400
      5 C20        -8.1690    0.0930   -5.1310 c3        1 CNS     -0.079400
      6 C19        -6.6570    0.1110   -5.1310 c3        1 CNS     -0.079400
      7 C18        -6.1520    0.0890   -3.7050 c3        1 CNS     -0.079400
      8 C17        -4.6400    0.1020   -3.7050 c3        1 CNS     -0.079400
      9 C16        -4.1350    0.0710   -2.2790 c3        1 CNS     -0.079400
     10 C15        -2.6220    0.0860   -2.2780 c3        1 CNS     -0.079400
     11 C14        -2.1180    0.0320   -0.8530 c3        1 CNS     -0.079400
     12 C13        -0.6050    0.0680   -0.8520 c3        1 CNS     -0.079400
     13 C12        -0.0990   -0.0450    0.5700 c3        1 CNS     -0.078400
     14 C11         1.4110    0.0480    0.5770 c3        1 CNS     -0.078400
     15 C10         1.9220   -0.1560    1.9860 c3        1 CNS     -0.085400
     16 C9          3.4260    0.0090    2.0060 c3        1 CNS      0.139400
     17 O2          3.8960   -0.1320    3.3260 os        1 CNS     -0.445900
     18 C8          5.2790    0.0740    3.4630 c         1 CNS      0.631100
     19 C7          5.9120    0.0750    4.8380 c3        1 CNS     -0.127400
     20 C6          7.4100   -0.0800    4.7030 c3        1 CNS     -0.079400
     21 O1          5.9640    0.2710    2.4790 o         1 CNS     -0.544000
     22 C3         10.1770   -0.1950    7.3150 c3        1 CNS     -0.079400
     23 C4          9.5460   -0.1660    5.9410 c3        1 CNS     -0.079400
     24 C5          8.0420   -0.0890    6.0770 c3        1 CNS     -0.078400
     25 C2         11.6830   -0.2330    7.1790 c3        1 CNS     -0.080400
     26 C1         12.3130   -0.2690    8.5530 c3        1 CNS     -0.093100
     27 H241      -12.5280    0.8960   -7.5270 hc        1 CNS      0.032700
     28 H242      -12.5280    0.0930   -8.9030 hc        1 CNS      0.032700
     29 H243      -12.5280   -0.6980   -7.5190 hc        1 CNS      0.032700
     30 H231      -10.3650   -0.7000   -8.4430 hc        1 CNS      0.038700
     31 H232      -10.3650    0.8940   -8.4430 hc        1 CNS      0.038700
     32 H221      -10.5190    0.8900   -6.0950 hc        1 CNS      0.039700
     33 H222      -10.5040   -0.7040   -6.1000 hc        1 CNS      0.039700
     34 H211       -8.3410   -0.6760   -7.0300 hc        1 CNS      0.039700
     35 H212       -8.3560    0.9180   -7.0050 hc        1 CNS      0.039700
     36 H201       -8.5040    0.8780   -4.6580 hc        1 CNS      0.039700
     37 H202       -8.4850   -0.7160   -4.6850 hc        1 CNS      0.039700
     38 H191       -6.3220   -0.6730   -5.6070 hc        1 CNS      0.039700
     39 H192       -6.3410    0.9210   -5.5750 hc        1 CNS      0.039700
     40 H181       -6.4710   -0.7190   -3.2600 hc        1 CNS      0.039700
     41 H182       -6.4850    0.8740   -3.2300 hc        1 CNS      0.039700
     42 H171       -4.3210    0.9130   -4.1450 hc        1 CNS      0.039700
     43 H172       -4.3070   -0.6800   -4.1850 hc        1 CNS      0.039700
     44 H161       -4.4530   -0.7410   -1.8390 hc        1 CNS      0.039700
     45 H162       -4.4680    0.8530   -1.7990 hc        1 CNS      0.039700
     46 H151       -2.3050    0.9050   -2.7050 hc        1 CNS      0.039700
     47 H152       -2.2890   -0.6880   -2.7710 hc        1 CNS      0.039700
     48 H141       -2.4230   -0.7940   -0.4310 hc        1 CNS      0.039700
     49 H142       -2.4620    0.7980   -0.3560 hc        1 CNS      0.039700
     50 H131       -0.2610   -0.6770   -1.3800 hc        1 CNS      0.040700
     51 H132       -0.3000    0.9110   -1.2390 hc        1 CNS      0.040700
     52 H121       -0.4730    0.6790    1.1070 hc        1 CNS      0.041700
     53 H122       -0.3740   -0.9030    0.9450 hc        1 CNS      0.041700
     54 H111        1.7820   -0.6400   -0.0070 hc        1 CNS      0.042700
     55 H112        1.6830    0.9290    0.2560 hc        1 CNS      0.042700
     56 H101        1.5140    0.5040    2.5790 hc        1 CNS      0.054200
     57 H102        1.6890   -1.0540    2.2900 hc        1 CNS      0.054200
     58 H91         3.6600    0.8940    1.6700 h1        1 CNS      0.051700
     59 H92         3.8350   -0.6730    1.4400 h1        1 CNS      0.051700
     60 H71         5.5540   -0.6670    5.3610 hc        1 CNS      0.077700
     61 H72         5.7110    0.9180    5.2880 hc        1 CNS      0.077700
     62 H61         7.7690    0.6650    4.1840 hc        1 CNS      0.057700
     63 H62         7.6110   -0.9200    4.2480 hc        1 CNS      0.057700
     64 H31         9.9150    0.6050    7.8100 hc        1 CNS      0.039700
     65 H32         9.8730   -0.9880    7.7960 hc        1 CNS      0.039700
     66 H41         9.7870   -0.9780    5.4550 hc        1 CNS      0.042700
     67 H42         9.8690    0.6140    5.4510 hc        1 CNS      0.042700
     68 H51         7.7200   -0.8620    6.5790 hc        1 CNS      0.041200
     69 H52         7.8000    0.7290    6.5520 hc        1 CNS      0.041200
     70 H21        11.9870    0.5630    6.7020 hc        1 CNS      0.039200
     71 H22        11.9440   -1.0300    6.6800 hc        1 CNS      0.039200
     72 H11        12.0490    0.5270    9.0540 hc        1 CNS      0.033033
     73 H12        12.0130   -1.0670    9.0280 hc        1 CNS      0.033033
     74 H13        13.2850   -0.2900    8.4650 hc        1 CNS      0.033033
@<TRIPOS>BOND
     1    1    2 1   
     2    1   27 1   
     3    1   28 1   
     4    1   29 1   
     5    2    3 1   
     6    2   30 1   
     7    2   31 1   
     8    3    4 1   
     9    3   32 1   
    10    3   33 1   
    11    4    5 1   
    12    4   34 1   
    13    4   35 1   
    14    5    6 1   
    15    5   36 1   
    16    5   37 1   
    17    6    7 1   
    18    6   38 1   
    19    6   39 1   
    20    7    8 1   
    21    7   40 1   
    22    7   41 1   
    23    8    9 1   
    24    8   42 1   
    25    8   43 1   
    26    9   10 1   
    27    9   44 1   
    28    9   45 1   
    29   10   11 1   
    30   10   46 1   
    31   10   47 1   
    32   11   12 1   
    33   11   48 1   
    34   11   49 1   
    35   12   13 1   
    36   12   50 1   
    37   12   51 1   
    38   13   14 1   
    39   13   52 1   
    40   13   53 1   
    41   14   15 1   
    42   14   54 1   
    43   14   55 1   
    44   15   16 1   
    45   15   56 1   
    46   15   57 1   
    47   16   17 1   
    48   16   58 1   
    49   16   59 1   
    50   17   18 1   
    51   18   19 1   
    52   18   21 2   
    53   19   20 1   
    54   19   60 1   
    55   19   61 1   
    56   20   24 1   
    57   20   62 1   
    58   20   63 1   
    59   22   23 1   
    60   22   25 1   
    61   22   64 1   
    62   22   65 1   
    63   23   24 1   
    64   23   66 1   
    65   23   67 1   
    66   24   68 1   
    67   24   69 1   
    68   25   26 1   
    69   25   70 1   
    70   25   71 1   
    71   26   72 1   
    72   26   73 1   
    73   26   74 1   
@<TRIPOS>SUBSTRUCTURE
     1 CNS         1 TEMP              0 ****  ****    0 ROOT
