@<TRIPOS>MOLECULE
CNT
   27    27     1     0     0
SMALL
bcc


@<TRIPOS>ATOM
      1 N           0.1360   -0.1830   -0.1720 ny        1 CNT     -0.754000
      2 CM          0.0970    0.9630   -1.0910 c3        1 CNT      0.087100
      3 CA          1.5220   -0.6550    0.1540 c3        1 CNT     -0.074500
      4 CB          2.0200   -0.1910    1.5220 c3        1 CNT     -0.028100
      5 CG          3.3150    0.5350    1.4060 ca        1 CNT     -0.131300
      6 CD2         4.4360   -0.1520    0.9250 ca        1 CNT     -0.070000
      7 CE2         5.6640    0.5030    0.8200 ca        1 CNT     -0.069600
      8 Cl          7.0150   -0.3450    0.2280 cl        1 CNT     -0.084400
      9 CZ          5.7740    1.8520    1.2070 ca        1 CNT      0.137100
     10 OH          6.9340    2.5820    1.1380 oh        1 CNT     -0.492100
     11 CD1         4.6490    2.5360    1.6990 ca        1 CNT     -0.159000
     12 CE1         3.4310    1.8740    1.7940 ca        1 CNT     -0.101000
     13 C           1.5600   -2.2610    0.0590 c         1 CNT      0.935600
     14 O           2.6380   -2.7800    0.3910 o         1 CNT     -0.758800
     15 OXT         0.5000   -2.7920   -0.3660 o         1 CNT     -0.758800
     16 H          -0.3400   -1.0160   -0.6040 hn        1 CNT      0.456300
     17 HMC1        0.5720    0.6750   -2.0660 hx        1 CNT      0.086367
     18 HMC2        0.6630    1.8250   -0.6480 hx        1 CNT      0.086367
     19 HMC3       -0.9690    1.2630   -1.2710 hx        1 CNT      0.086367
     20 HA          2.2110   -0.2900   -0.6580 hx        1 CNT      0.096700
     21 HBC1        1.2700    0.4540    2.0540 hc        1 CNT      0.068200
     22 HBC2        2.1820   -1.1090    2.1580 hc        1 CNT      0.068200
     23 HD2         4.3290   -1.2180    0.6370 ha        1 CNT      0.201000
     24 HH          7.6440    2.0010    0.8210 ho        1 CNT      0.432000
     25 HD1         4.7550    3.5870    2.0050 ha        1 CNT      0.154000
     26 HE1         2.5570    2.4120    2.1910 ha        1 CNT      0.127000
     27 H2         -0.3580    0.0450    0.6920 hn        1 CNT      0.456300
@<TRIPOS>BOND
     1    1    2 1   
     2    1    3 1   
     3    1   16 1   
     4    1   27 1   
     5    2   17 1   
     6    2   18 1   
     7    2   19 1   
     8    3    4 1   
     9    3   13 1   
    10    3   20 1   
    11    4    5 1   
    12    4   21 1   
    13    4   22 1   
    14    5    6 ar  
    15    5   12 ar  
    16    6    7 ar  
    17    6   23 1   
    18    7    8 1   
    19    7    9 ar  
    20    9   10 1   
    21    9   11 ar  
    22   10   24 1   
    23   11   12 ar  
    24   11   25 1   
    25   12   26 1   
    26   13   14 1   
    27   13   15 1   
@<TRIPOS>SUBSTRUCTURE
     1 CNT         1 TEMP              0 ****  ****    0 ROOT
