@<TRIPOS>MOLECULE
CNT
   26    26     1     0     0
SMALL
bcc


@<TRIPOS>ATOM
      1 N           0.2130   -0.5420    0.1110 n3        1 CNT     -0.808200
      2 CM          0.5340   -1.5110    1.1300 c3        1 CNT      0.155100
      3 CA          0.7820    0.7770    0.3910 c3        1 CNT      0.029500
      4 CB          0.7740    1.6610   -0.8710 c3        1 CNT     -0.018100
      5 CG          2.0850    2.3260   -1.1110 ca        1 CNT     -0.076300
      6 CD2         2.7080    3.0450   -0.0810 ca        1 CNT     -0.080000
      7 CE2         3.9200    3.6920   -0.3190 ca        1 CNT     -0.063600
      8 CL          4.6690    4.5690    0.9420 cl        1 CNT     -0.123400
      9 CZ          4.5240    3.6230   -1.5880 ca        1 CNT      0.100100
     10 OH          5.7190    4.2330   -1.9090 oh        1 CNT     -0.513100
     11 CD1         3.9050    2.8990   -2.6160 ca        1 CNT     -0.169000
     12 CE1         2.6940    2.2580   -2.3690 ca        1 CNT     -0.112000
     13 C           0.0370    1.5520    1.5310 c         1 CNT      0.889600
     14 O          -1.1880    1.3100    1.7150 o         1 CNT     -0.838300
     15 OXT         0.7130    2.3820    2.2040 o         1 CNT     -0.838300
     16 H          -0.7890   -0.4310    0.0740 hn        1 CNT      0.359800
     17 HMC1        1.6410   -1.6960    1.1280 h1        1 CNT      0.016367
     18 HMC2        0.0110   -2.4740    0.8870 h1        1 CNT      0.016367
     19 HMC3        0.2340   -1.1940    2.1670 h1        1 CNT      0.016367
     20 HA          1.8490    0.6320    0.7250 h1        1 CNT      0.048700
     21 HBC1        0.4910    1.0640   -1.7780 hc        1 CNT      0.049200
     22 HBC2       -0.0100    2.4570   -0.7410 hc        1 CNT      0.049200
     23 HD2         2.2170    3.0790    0.9200 ha        1 CNT      0.229000
     24 HH          6.0430    4.6830   -1.1140 ho        1 CNT      0.418000
     25 HD1         4.3860    2.8480   -3.6020 ha        1 CNT      0.134000
     26 HE1         2.2130    1.6870   -3.1780 ha        1 CNT      0.127000
@<TRIPOS>BOND
     1    1    2 1   
     2    1    3 1   
     3    1   16 1   
     4    2   17 1   
     5    2   18 1   
     6    2   19 1   
     7    3    4 1   
     8    3   13 1   
     9    3   20 1   
    10    4    5 1   
    11    4   21 1   
    12    4   22 1   
    13    5    6 ar  
    14    5   12 ar  
    15    6    7 ar  
    16    6   23 1   
    17    7    8 1   
    18    7    9 ar  
    19    9   10 1   
    20    9   11 ar  
    21   10   24 1   
    22   11   12 ar  
    23   11   25 1   
    24   12   26 1   
    25   13   14 1   
    26   13   15 1   
@<TRIPOS>SUBSTRUCTURE
     1 CNT         1 TEMP              0 ****  ****    0 ROOT
