@<TRIPOS>MOLECULE
CNT
   26    24     1     0     0
SMALL
bcc


@<TRIPOS>ATOM
      1 N           0.0960   -2.2480   -1.6350 n3        1 CNT     -0.287000
      2 CM         -0.7340   -2.1920   -2.7930 c3        1 CNT     -0.121000
      3 CA          0.4530   -0.9290   -1.2440 c3        1 CNT     -0.118000
      4 CB          0.8750   -0.9300    0.2080 c3        1 CNT     -0.104000
      5 CG          0.1810    0.2020    0.9360 c2        1 CNT     -0.069000
      6 CD2         0.7450    1.4680    0.9440 c2        1 CNT     -0.080000
      7 CE2         0.1560    2.4840    1.6810 c1        1 CNT     -0.142000
      8 CL          0.8490    4.0840    1.6690 cl        1 CNT     -0.045000
      9 CZ         -0.9960    2.2340    2.4100 c2        1 CNT      0.055000
     10 OH         -1.5840    3.2610    3.1710 oh        1 CNT     -0.267000
     11 CD1        -1.5600    0.9680    2.4020 c1        1 CNT     -0.169000
     12 CE1        -0.9720   -0.0480    1.6650 c1        1 CNT     -0.112000
     13 C           1.6000   -0.4430   -2.1020 c2        1 CNT      0.309000
     14 O           1.5140    0.6610   -2.7030 o         1 CNT     -0.573000
     15 OXT         2.6390   -1.1450   -2.2220 o         1 CNT     -0.573000
     16 H           0.8520   -2.7260   -1.8250 hn        1 CNT      0.155000
     17 HMC1       -0.2060   -1.8830   -3.5600 h1        1 CNT      0.055667
     18 HMC2       -1.0930   -3.0860   -2.9820 h1        1 CNT      0.055667
     19 HMC3       -1.4760   -1.5690   -2.6340 h1        1 CNT      0.055667
     20 HA         -0.3140   -0.3350   -1.3600 h1        1 CNT      0.088000
     21 HBC1        1.8440   -0.8090    0.2660 hc        1 CNT      0.088500
     22 HBC2        0.6280   -1.7820    0.6180 hc        1 CNT      0.088500
     23 HD2         1.5490    1.6480    0.4200 ha        1 CNT      0.229000
     24 HH         -1.2600    3.2390    3.9990 ho        1 CNT      0.217000
     25 HD1        -2.3750    0.7940    2.9090 ha        1 CNT      0.134000
     26 HE1        -1.4110   -0.9160    1.7600 ha        1 CNT      0.127000
@<TRIPOS>BOND
     1    1    2 1   
     2    1    3 1   
     3    1   16 1   
     4    2   17 1   
     5    2   18 1   
     6    2   19 1   
     7    3    4 1   
     8    3   13 1   
     9    3   20 1   
    10    4    5 1   
    11    4   21 1   
    12    4   22 1   
    13    5    6 1   
    14    5   12 1   
    15    6    7 1   
    16    6   23 1   
    17    7    9 1   
    18    9   10 1   
    19    9   11 1   
    20   10   24 1   
    21   11   25 1   
    22   12   26 1   
    23   13   14 1   
    24   13   15 1   
@<TRIPOS>SUBSTRUCTURE
     1 CNT         1 TEMP              0 ****  ****    0 ROOT
