@<TRIPOS>MOLECULE
CNT
   27    27     1     0     0
SMALL
bcc


@<TRIPOS>ATOM
      1 N           0.1550   -0.1840   -0.2370 n4        1 CNT     -0.754000
      2 CM          0.1420    0.9590   -1.1610 c3        1 CNT      0.087100
      3 CA          1.5300   -0.6550    0.1290 c3        1 CNT     -0.074500
      4 CB          1.9940   -0.1820    1.5060 c3        1 CNT     -0.028100
      5 CG          3.2930    0.5400    1.4190 ca        1 CNT     -0.131300
      6 CD2         4.4240   -0.1530    0.9740 ca        1 CNT     -0.070000
      7 CE2         5.6560    0.4970    0.8960 ca        1 CNT     -0.069600
      8 CL          7.0210   -0.3580    0.3480 cl        1 CNT     -0.084400
      9 CZ          5.7600    1.8500    1.2750 ca        1 CNT      0.137100
     10 OH          6.9230    2.5760    1.2320 oh        1 CNT     -0.492100
     11 CD1         4.6230    2.5400    1.7310 ca        1 CNT     -0.159000
     12 CE1         3.4020    1.8820    1.8000 ca        1 CNT     -0.101000
     13 C           1.5670   -2.2620    0.0460 c         1 CNT      0.935600
     14 O           2.6350   -2.7810    0.4120 o         1 CNT     -0.758800
     15 OXT         0.5190   -2.7940   -0.4050 o         1 CNT     -0.758800
     16 H          -0.3110   -1.0180   -0.6770 hn        1 CNT      0.456300
     17 HMC1        0.6970    1.8220   -0.7070 hx        1 CNT      0.086367
     18 HMC2        0.6430    0.6660   -2.1220 hx        1 CNT      0.086367
     19 HMC3       -0.9180    1.2590   -1.3710 hx        1 CNT      0.086367
     20 HA          2.2420   -0.2980   -0.6670 hx        1 CNT      0.096700
     21 HBC1        2.1360   -1.0960    2.1530 hc        1 CNT      0.068200
     22 HBC2        1.2310    0.4680    2.0130 hc        1 CNT      0.068200
     23 HD2         4.3230   -1.2220    0.6910 ha        1 CNT      0.201000
     24 HH          7.6400    1.9910    0.9380 ho        1 CNT      0.432000
     25 HD1         4.7230    3.5930    2.0310 ha        1 CNT      0.154000
     26 HE1         2.5180    2.4250    2.1680 ha        1 CNT      0.127000
     27 H2         -0.3620    0.0490    0.6130 hn        1 CNT      0.456300
@<TRIPOS>BOND
     1    1    2 1   
     2    1    3 1   
     3    1   16 1   
     4    1   27 1   
     5    2   17 1   
     6    2   18 1   
     7    2   19 1   
     8    3    4 1   
     9    3   13 1   
    10    3   20 1   
    11    4    5 1   
    12    4   21 1   
    13    4   22 1   
    14    5    6 ar  
    15    5   12 ar  
    16    6    7 ar  
    17    6   23 1   
    18    7    8 1   
    19    7    9 ar  
    20    9   10 1   
    21    9   11 ar  
    22   10   24 1   
    23   11   12 ar  
    24   11   25 1   
    25   12   26 1   
    26   13   14 1   
    27   13   15 1   
@<TRIPOS>SUBSTRUCTURE
     1 CNT         1 TEMP              0 ****  ****    0 ROOT
