@<TRIPOS>MOLECULE
CNT
   27    27     1     0     0
SMALL
bcc


@<TRIPOS>ATOM
      1 N           0.1400   -0.2010   -0.1730 n4        1 CNT     -0.754000
      2 CM          0.0980    0.9360   -1.1030 c3        1 CNT      0.087100
      3 CA          1.5270   -0.6640    0.1610 c3        1 CNT     -0.074500
      4 CB          2.0200   -0.1850    1.5260 c3        1 CNT     -0.028100
      5 CG          3.3120    0.5450    1.4060 ca        1 CNT     -0.131300
      6 CD2         4.4370   -0.1410    0.9340 ca        1 CNT     -0.070000
      7 CE2         5.6620    0.5180    0.8260 ca        1 CNT     -0.069600
      8 CL          7.0190   -0.3300    0.2460 cl        1 CNT     -0.084400
      9 CZ          5.7670    1.8710    1.2010 ca        1 CNT      0.137100
     10 OH          6.9240    2.6050    1.1280 oh        1 CNT     -0.492100
     11 CD1         4.6370    2.5540    1.6840 ca        1 CNT     -0.159000
     12 CE1         3.4220    1.8880    1.7820 ca        1 CNT     -0.101000
     13 C           1.5720   -2.2710    0.0800 c         1 CNT      0.935600
     14 O           2.6520   -2.7820    0.4190 o         1 CNT     -0.758800
     15 OXT         0.5160   -2.8100   -0.3420 o         1 CNT     -0.758800
     16 H          -0.3570    0.0330    0.6880 hn        1 CNT      0.456300
     17 HMC1        0.5770    0.6410   -2.0740 hx        1 CNT      0.086367
     18 HMC2        0.6590    1.8040   -0.6660 hx        1 CNT      0.086367
     19 HMC3       -0.9690    1.2300   -1.2880 hx        1 CNT      0.086367
     20 HA          2.2170   -0.3030   -0.6530 hx        1 CNT      0.096700
     21 HBC1        1.2660    0.4610    2.0500 hc        1 CNT      0.068200
     22 HBC2        2.1840   -1.0960    2.1700 hc        1 CNT      0.068200
     23 HD2         4.3360   -1.2100    0.6550 ha        1 CNT      0.201000
     24 HH          7.6370    2.0240    0.8190 ho        1 CNT      0.432000
     25 HD1         4.7370    3.6080    1.9800 ha        1 CNT      0.154000
     26 HE1         2.5440    2.4260    2.1720 ha        1 CNT      0.127000
     27 H2         -0.3320   -1.0400   -0.5980 hn        1 CNT      0.456300
@<TRIPOS>BOND
     1    1    2 1   
     2    1    3 1   
     3    1   16 1   
     4    1   27 1   
     5    2   17 1   
     6    2   18 1   
     7    2   19 1   
     8    3    4 1   
     9    3   13 1   
    10    3   20 1   
    11    4    5 1   
    12    4   21 1   
    13    4   22 1   
    14    5    6 ar  
    15    5   12 ar  
    16    6    7 ar  
    17    6   23 1   
    18    7    8 1   
    19    7    9 ar  
    20    9   10 1   
    21    9   11 ar  
    22   10   24 1   
    23   11   12 ar  
    24   11   25 1   
    25   12   26 1   
    26   13   14 1   
    27   13   15 1   
@<TRIPOS>SUBSTRUCTURE
     1 CNT         1 TEMP              0 ****  ****    0 ROOT
