@<TRIPOS>MOLECULE
CNU
   33    34     1     0     0
SMALL
bcc


@<TRIPOS>ATOM
      1 O1P        -4.4680    0.3020    1.0440 oh        1 CNU     -0.783400
      2 P          -3.9630   -0.9480    0.1180 p5        1 CNU      1.427800
      3 O2P        -4.2520   -2.2270    0.7970 o         1 CNU     -0.847500
      4 O3P        -4.4170   -0.5890   -1.2460 o         1 CNU     -0.847500
      5 O5'        -2.3440   -0.6570    0.2050 os        1 CNU     -0.583200
      6 C5'        -1.8270    0.3870   -0.5660 c3        1 CNU      0.167400
      7 C4'        -1.2120    1.4880    0.3000 c3        1 CNU      0.045100
      8 O4'        -0.0270    0.9880    0.9630 os        1 CNU     -0.412600
      9 C3'        -0.8140    2.7570   -0.5280 c3        1 CNU      0.364800
     10 O3'        -1.1250    3.9030    0.0360 o         1 CNU     -0.866500
     11 C2'         0.7700    2.6020   -0.6550 c3        1 CNU      0.027100
     12 O2'         1.4330    3.8040   -0.3520 oh        1 CNU     -0.653800
     13 C1'         1.1440    1.5610    0.4240 c3        1 CNU      0.284500
     14 N1          2.0830    0.4710    0.0130 n         1 CNU     -0.327000
     15 C2          1.9970   -0.1970   -1.2450 c         1 CNU      0.806500
     16 O2          1.2300    0.1390   -2.1640 o         1 CNU     -0.592500
     17 N3          2.8770   -1.2780   -1.4880 n         1 CNU     -0.597500
     18 C4          3.7960   -1.7670   -0.5520 c         1 CNU      0.743700
     19 O4          4.5310   -2.7230   -0.8710 o         1 CNU     -0.662500
     20 C6          2.9230   -0.0310    0.9630 cc        1 CNU      0.147600
     21 C5          3.8040   -1.0730    0.7390 cd        1 CNU     -0.264900
     22 C52         4.7050   -1.4940    1.7360 ch        1 CNU      0.267500
     23 N53         5.4570   -1.8390    2.5560 n1        1 CNU     -0.441800
     24 H5'        -1.0210   -0.0340   -1.2330 h1        1 CNU      0.036200
     25 H5'A       -2.6410    0.8350   -1.2040 h1        1 CNU      0.036200
     26 H4'        -1.8950    1.7630    1.1470 h1        1 CNU      0.076700
     27 H3'        -1.2210    2.6280   -1.5770 h1        1 CNU     -0.041300
     28 HO3'       -4.3890    1.1360    0.5970 ho        1 CNU      0.423000
     29 H2'         1.0760    2.3040   -1.6850 h1        1 CNU      0.061700
     30 HO2'        0.7560    4.4050    0.0290 ho        1 CNU      0.440000
     31 H1'         1.6800    2.0770    1.2820 h2        1 CNU      0.054700
     32 HN3         2.7670   -1.7550   -2.3560 hn        1 CNU      0.340500
     33 H6          2.8870    0.4660    1.9560 h4        1 CNU      0.171000
@<TRIPOS>BOND
     1    1    2 1   
     2    1   28 1   
     3    2    3 1   
     4    2    4 1   
     5    2    5 1   
     6    5    6 1   
     7    6    7 1   
     8    6   24 1   
     9    6   25 1   
    10    7    8 1   
    11    7    9 1   
    12    7   26 1   
    13    8   13 1   
    14    9   10 1   
    15    9   11 1   
    16    9   27 1   
    17   11   12 1   
    18   11   13 1   
    19   11   29 1   
    20   12   30 1   
    21   13   14 1   
    22   13   31 1   
    23   14   15 1   
    24   14   20 1   
    25   15   16 2   
    26   15   17 1   
    27   17   18 1   
    28   17   32 1   
    29   18   19 2   
    30   18   21 1   
    31   20   21 2   
    32   20   33 1   
    33   21   22 1   
    34   22   23 3   
@<TRIPOS>SUBSTRUCTURE
     1 CNU         1 TEMP              0 ****  ****    0 ROOT
