@<TRIPOS>MOLECULE
CNU
   33    33     1     0     0
SMALL
bcc


@<TRIPOS>ATOM
      1 O1P        -0.0630   -4.7870    3.4100 o         1 CNU     -0.937500
      2 P           0.1970   -4.9760    1.9480 p4        1 CNU      1.715200
      3 O2P         1.1750   -6.1210    1.7510 os        1 CNU     -1.209000
      4 O3P        -1.0850   -5.2910    1.2510 o         1 CNU     -0.986300
      5 O5'         0.8140   -3.6420    1.3430 os        1 CNU     -0.566200
      6 C5'         0.0670   -2.4220    1.4670 c3        1 CNU      0.229400
      7 C4'         0.9200   -1.2490    0.9570 c3        1 CNU      0.062100
      8 O4'         0.5080   -0.8690   -0.1900 os        1 CNU     -0.432600
      9 C3'         0.7500    0.0060    1.8960 c3        1 CNU      0.068100
     10 O3'         1.8890    0.2300    2.5960 oh        1 CNU     -0.662800
     11 C2'         0.4680    1.1580    0.9770 c3        1 CNU      0.109100
     12 O2'         1.3670    2.3100    1.3040 oh        1 CNU     -0.618800
     13 C1'         0.7360    0.6960   -0.2460 c3        1 CNU      0.268500
     14 N1         -0.1530    1.2890   -1.2070 n         1 CNU     -0.361000
     15 C2         -1.4690    0.6990   -1.4380 c         1 CNU      0.797500
     16 O2         -1.7700   -0.3200   -0.8860 o         1 CNU     -0.683500
     17 N3         -2.3850    1.3040   -2.4010 n         1 CNU     -0.597500
     18 C4         -1.9400    2.3690   -3.2310 c         1 CNU      0.730700
     19 O4         -2.7250    2.9230   -3.9890 o         1 CNU     -0.666500
     20 C6          0.3120    2.3270   -2.0470 cc        1 CNU      0.127600
     21 C5         -0.5760    2.8860   -3.0840 cd        1 CNU     -0.230900
     22 C52        -0.1190    4.0650   -3.9120 ch        1 CNU      0.269500
     23 N53         0.2260    4.9550   -4.5370 n1        1 CNU     -0.404800
     24 H5'        -0.1660   -2.2740    2.4150 h1        1 CNU     -0.002800
     25 H5'A       -0.7640   -2.4860    0.9270 h1        1 CNU     -0.002800
     26 H4'         1.8410   -1.5060    0.9090 h1        1 CNU      0.050700
     27 H3'        -0.0070   -0.1320    2.5130 h1        1 CNU      0.174700
     28 HO3'        1.7060    0.1950    3.4970 ho        1 CNU      0.494000
     29 H2'        -0.4570    1.4230    1.0410 h1        1 CNU      0.075700
     30 HO2'        1.0090    2.7870    1.9670 ho        1 CNU      0.425000
     31 H1'         1.6700    0.8910   -0.4820 h2        1 CNU      0.107700
     32 HN3        -3.2290    0.9540   -2.5150 hn        1 CNU      0.328500
     33 H6          1.2530    2.6090   -2.0030 h4        1 CNU      0.326000
@<TRIPOS>BOND
     1    1    2 1   
     2    2    4 2   
     3    2    5 1   
     4    5    6 1   
     5    6    7 1   
     6    6   24 1   
     7    6   25 1   
     8    7    8 1   
     9    7    9 1   
    10    7   26 1   
    11    8   13 1   
    12    9   10 1   
    13    9   11 1   
    14    9   27 1   
    15   10   28 1   
    16   11   12 1   
    17   11   13 1   
    18   11   29 1   
    19   12   30 1   
    20   13   14 1   
    21   13   31 1   
    22   14   15 1   
    23   14   20 1   
    24   15   16 2   
    25   15   17 1   
    26   17   18 1   
    27   17   32 1   
    28   18   19 2   
    29   18   21 1   
    30   20   21 2   
    31   20   33 1   
    32   21   22 1   
    33   22   23 3   
@<TRIPOS>SUBSTRUCTURE
     1 CNU         1 TEMP              0 ****  ****    0 ROOT
