@<TRIPOS>MOLECULE
CNV
    9     7     1     0     0
SMALL
bcc


@<TRIPOS>ATOM
      1 NAB        -1.3820    0.1620    2.2120 n1        1 CNV     -0.051000
      2 CAC        -1.0330    0.0640    1.1280 c1        1 CNV     -0.143000
      3 CAD        -0.5690   -0.0670   -0.3130 c2        1 CNV     -0.075000
      4 CAA         0.9550    0.0150   -0.3670 c3        1 CNV     -0.212000
      5 HAD        -0.9550    0.6600   -0.8490 ha        1 CNV      0.111000
      6 HAA1        1.2490    0.8800   -0.0050 hc        1 CNV      0.086000
      7 HAA2        1.2550   -0.0690   -1.2990 hc        1 CNV      0.086000
      8 HAA3        1.3410   -0.7130    0.1680 hc        1 CNV      0.086000
      9 HXT        -0.8630   -0.9320   -0.6750 ha        1 CNV      0.111000
@<TRIPOS>BOND
     1    1    2 1   
     2    3    4 1   
     3    3    5 1   
     4    3    9 1   
     5    4    6 1   
     6    4    7 1   
     7    4    8 1   
@<TRIPOS>SUBSTRUCTURE
     1 CNV         1 TEMP              0 ****  ****    0 ROOT
