@<TRIPOS>MOLECULE
CNV
    9     8     1     0     0
SMALL
bcc


@<TRIPOS>ATOM
      1 NAB        -0.8680    0.1520    2.5030 n1        1 CNV     -0.376800
      2 CAC        -0.4790    0.0590    1.4110 c1        1 CNV      0.209700
      3 CAD        -0.0020   -0.0550    0.0510 c3        1 CNV     -0.023300
      4 CAA         1.5060    0.0110   -0.0260 c3        1 CNV     -0.094100
      5 HAD        -0.4550    0.7730   -0.5620 hc        1 CNV      0.071700
      6 HAA1        1.8810    0.9830    0.3770 hc        1 CNV      0.046700
      7 HAA2        1.8300   -0.0810   -1.0910 hc        1 CNV      0.046700
      8 HAA3        1.9700   -0.8170    0.5610 hc        1 CNV      0.046700
      9 HXT        -0.3650   -1.0310   -0.3780 hc        1 CNV      0.071700
@<TRIPOS>BOND
     1    1    2 3   
     2    2    3 1   
     3    3    4 1   
     4    3    5 1   
     5    3    9 1   
     6    4    6 1   
     7    4    7 1   
     8    4    8 1   
@<TRIPOS>SUBSTRUCTURE
     1 CNV         1 TEMP              0 ****  ****    0 ROOT
