@<TRIPOS>MOLECULE
CNV
    9     8     1     0     0
SMALL
bcc


@<TRIPOS>ATOM
      1 NAB        -0.8730    0.1650    2.4980 n1        1 CNV     -0.376800
      2 CAC        -0.4810    0.0660    1.4070 c1        1 CNV      0.209700
      3 CAD        -0.0010   -0.0590    0.0480 c3        1 CNV     -0.023300
      4 CAA         1.5060    0.0130   -0.0260 c3        1 CNV     -0.094100
      5 HAD        -0.4560    0.7630   -0.5720 hc        1 CNV      0.071700
      6 HAA1        1.8770    0.9890    0.3690 hc        1 CNV      0.046700
      7 HAA2        1.8330   -0.0880   -1.0900 hc        1 CNV      0.046700
      8 HAA3        1.9730   -0.8090    0.5680 hc        1 CNV      0.046700
      9 HXT        -0.3600   -1.0400   -0.3730 hc        1 CNV      0.071700
@<TRIPOS>BOND
     1    1    2 3   
     2    2    3 1   
     3    3    4 1   
     4    3    5 1   
     5    3    9 1   
     6    4    6 1   
     7    4    7 1   
     8    4    8 1   
@<TRIPOS>SUBSTRUCTURE
     1 CNV         1 TEMP              0 ****  ****    0 ROOT
