@<TRIPOS>MOLECULE
CNV
    9     8     1     0     0
SMALL
bcc


@<TRIPOS>ATOM
      1 NAB        -0.8610    0.1570    2.5060 n1        1 CNV     -0.376800
      2 CAC        -0.4760    0.0600    1.4130 c1        1 CNV      0.209700
      3 CAD        -0.0030   -0.0600    0.0510 c3        1 CNV     -0.023300
      4 CAA         1.5040    0.0160   -0.0320 c3        1 CNV     -0.094100
      5 HAD        -0.4620    0.7630   -0.5650 hc        1 CNV      0.071700
      6 HAA1        1.8750    0.9920    0.3640 hc        1 CNV      0.046700
      7 HAA2        1.8250   -0.0810   -1.0970 hc        1 CNV      0.046700
      8 HAA3        1.9760   -0.8070    0.5580 hc        1 CNV      0.046700
      9 HXT        -0.3610   -1.0400   -0.3710 hc        1 CNV      0.071700
@<TRIPOS>BOND
     1    1    2 3   
     2    2    3 1   
     3    3    4 1   
     4    3    5 1   
     5    3    9 1   
     6    4    6 1   
     7    4    7 1   
     8    4    8 1   
@<TRIPOS>SUBSTRUCTURE
     1 CNV         1 TEMP              0 ****  ****    0 ROOT
