@<TRIPOS>MOLECULE
CNV
    9     8     1     0     0
SMALL
bcc


@<TRIPOS>ATOM
      1 NAB        -1.8390    0.2500    0.0000 n1        1 CNV     -0.376800
      2 CAC        -0.7450   -0.1420    0.0000 c1        1 CNV      0.209700
      3 CAD         0.6140   -0.6370   -0.0000 c3        1 CNV     -0.023300
      4 CAA         1.6240    0.4870   -0.0000 c3        1 CNV     -0.094100
      5 HAD         0.7630   -1.2860    0.9080 hc        1 CNV      0.071700
      6 HAA1        1.5040    1.1290    0.9060 hc        1 CNV      0.046700
      7 HAA2        2.6570    0.0610   -0.0000 hc        1 CNV      0.046700
      8 HAA3        1.5040    1.1290   -0.9060 hc        1 CNV      0.046700
      9 HXT         0.7630   -1.2860   -0.9080 hc        1 CNV      0.071700
@<TRIPOS>BOND
     1    1    2 3   
     2    2    3 1   
     3    3    4 1   
     4    3    5 1   
     5    3    9 1   
     6    4    6 1   
     7    4    7 1   
     8    4    8 1   
@<TRIPOS>SUBSTRUCTURE
     1 CNV         1 TEMP              0 ****  ****    0 ROOT
