@<TRIPOS>MOLECULE
CNW
   36    37     1     0     0
SMALL
bcc


@<TRIPOS>ATOM
      1 NAX        -0.0970    0.2440    0.0560 nz        1 CNW     -0.748400
      2 CBC         1.3920   -0.0460    0.0460 c         1 CNW      0.593300
      3 OAD         1.8550   -0.2940    1.1570 o         1 CNW     -0.472100
      4 CBF         2.0540    0.0060   -1.2270 cc        1 CNW     -0.437400
      5 CAQ         3.4260   -0.2550   -1.2860 cd        1 CNW      0.169800
      6 CBG         1.3390    0.3220   -2.4450 c         1 CNW      0.757800
      7 OAE         0.1360    0.5810   -2.5850 o         1 CNW     -0.632500
      8 OBB         2.0020    0.3630   -3.6600 os        1 CNW     -0.286200
      9 CBI         3.3570    0.1000   -3.7000 ca        1 CNW      0.249100
     10 CAP         3.9470    0.1660   -4.9490 ca        1 CNW     -0.276000
     11 CBH         4.0870   -0.2110   -2.5120 ca        1 CNW     -0.263800
     12 CAN         5.4820   -0.4610   -2.6650 ca        1 CNW      0.015000
     13 CAM         6.0880   -0.4060   -3.8850 ca        1 CNW     -0.231000
     14 CBE         5.3480   -0.0890   -5.0890 ca        1 CNW      0.315600
     15 NBP         5.9580   -0.0380   -6.3030 nh        1 CNW     -0.615000
     16 CAS         7.4050   -0.1080   -6.4420 c3        1 CNW      0.192300
     17 CAB         7.9680   -1.5160   -6.5480 c3        1 CNW     -0.121100
     18 CAR         5.1990    0.0960   -7.5370 c3        1 CNW      0.192300
     19 CAA         4.8980    1.5280   -7.9480 c3        1 CNW     -0.121100
     20 HAX1       -0.2640    1.1800   -0.3360 hn        1 CNW      0.470800
     21 HAX2       -0.5780   -0.4260   -0.5570 hn        1 CNW      0.470800
     22 HAQ         3.9790   -0.4960   -0.3580 ha        1 CNW      0.176000
     23 HAP         3.3210    0.4340   -5.8150 ha        1 CNW      0.180000
     24 HAN         6.0690   -0.7100   -1.7640 ha        1 CNW      0.158000
     25 HAM         7.1660   -0.6280   -3.9560 ha        1 CNW      0.164000
     26 HAS1        7.6780    0.4680   -7.3750 h1        1 CNW      0.071450
     27 HAS2        7.8850    0.4280   -5.5730 h1        1 CNW      0.071450
     28 HAR1        5.7990   -0.4030   -8.3540 h1        1 CNW      0.071450
     29 HAR2        4.2330   -0.4800   -7.4390 h1        1 CNW      0.071450
     30 HAB1        7.7460   -2.1140   -5.6320 hc        1 CNW      0.057367
     31 HAB2        9.0760   -1.4450   -6.6680 hc        1 CNW      0.057367
     32 HAB3        7.5480   -2.0530   -7.4320 hc        1 CNW      0.057367
     33 HAA1        5.8380    2.1100   -8.1020 hc        1 CNW      0.057367
     34 HAA2        4.2780    2.0510   -7.1800 hc        1 CNW      0.057367
     35 HAA3        4.3310    1.5070   -8.9110 hc        1 CNW      0.057367
     36 HAX3       -0.4650    0.1850    1.0090 hn        1 CNW      0.470800
@<TRIPOS>BOND
     1    1    2 1   
     2    1   20 1   
     3    1   21 1   
     4    1   36 1   
     5    2    3 2   
     6    2    4 1   
     7    4    5 2   
     8    4    6 1   
     9    5   11 1   
    10    5   22 1   
    11    6    7 2   
    12    6    8 1   
    13    8    9 1   
    14    9   10 ar  
    15    9   11 ar  
    16   10   14 ar  
    17   10   23 1   
    18   11   12 ar  
    19   12   13 ar  
    20   12   24 1   
    21   13   14 ar  
    22   13   25 1   
    23   14   15 1   
    24   15   16 1   
    25   15   18 1   
    26   16   17 1   
    27   16   26 1   
    28   16   27 1   
    29   17   30 1   
    30   17   31 1   
    31   17   32 1   
    32   18   19 1   
    33   18   28 1   
    34   18   29 1   
    35   19   33 1   
    36   19   34 1   
    37   19   35 1   
@<TRIPOS>SUBSTRUCTURE
     1 CNW         1 TEMP              0 ****  ****    0 ROOT
