@<TRIPOS>MOLECULE
CNW
   37    38     1     0     0
SMALL
bcc


@<TRIPOS>ATOM
      1 NAX         0.1490   -0.4390    0.3050 n4        1 CNW     -0.742400
      2 CBC         1.4880    0.1960    0.0460 c         1 CNW      0.573300
      3 OAD         1.9550    0.8350    0.9800 o         1 CNW     -0.395100
      4 CBF         2.0980   -0.0040   -1.2700 cc        1 CNW     -0.328400
      5 CAQ         3.3180    0.5630   -1.5310 cd        1 CNW      0.148800
      6 CBG         1.4210   -0.7940   -2.2940 c         1 CNW      0.740800
      7 OAE         0.3340   -1.3660   -2.2260 o         1 CNW     -0.557500
      8 OBB         2.0150   -0.9740   -3.5380 os        1 CNW     -0.270200
      9 CBI         3.2400   -0.3980   -3.7830 ca        1 CNW      0.195100
     10 CAP         3.7740   -0.6270   -5.0650 ca        1 CNW     -0.138000
     11 CBH         3.9240    0.3720   -2.8190 ca        1 CNW     -0.167800
     12 CAN         5.1730    0.9210   -3.1640 ca        1 CNW     -0.010000
     13 CAM         5.7170    0.7080   -4.4230 ca        1 CNW     -0.134000
     14 CBE         5.0200   -0.0680   -5.3770 ca        1 CNW      0.064600
     15 NBP         5.5760   -0.3040   -6.7210 n4        1 CNW     -0.579800
     16 CAS         6.9930   -0.8200   -6.6890 c3        1 CNW      0.118800
     17 CAB         7.0940   -2.2510   -6.2100 c3        1 CNW     -0.135600
     18 CAR         5.4400    0.9090   -7.6100 c3        1 CNW      0.118800
     19 CAA         6.3550    2.0670   -7.2870 c3        1 CNW     -0.135600
     20 HAX1       -0.1660   -0.2220    1.2610 hn        1 CNW      0.487800
     21 HAX2       -0.5410   -0.0940   -0.3770 hn        1 CNW      0.487800
     22 HAQ         3.8510    1.1670   -0.7680 ha        1 CNW      0.204000
     23 HAP         3.1880   -1.2420   -5.7730 ha        1 CNW      0.197000
     24 HAN         5.7270    1.5290   -2.4250 ha        1 CNW      0.190000
     25 HAM         6.6990    1.1570   -4.6600 ha        1 CNW      0.184000
     26 HAS1        7.3860   -0.7410   -7.7460 hx        1 CNW      0.110200
     27 HAS2        7.6050   -0.1400   -6.0330 hx        1 CNW      0.110200
     28 HAR1        5.6470    0.5480   -8.6620 hx        1 CNW      0.110200
     29 HAR2        4.3630    1.2420   -7.5460 hx        1 CNW      0.110200
     30 HAB1        6.5320   -2.9540   -6.8730 hc        1 CNW      0.083200
     31 HAB2        6.7280   -2.3660   -5.1620 hc        1 CNW      0.083200
     32 HAB3        8.1760   -2.5460   -6.2370 hc        1 CNW      0.083200
     33 HAA1        6.1880    2.8580   -8.0670 hc        1 CNW      0.083200
     34 HAA2        7.4330    1.7750   -7.3210 hc        1 CNW      0.083200
     35 HAA3        6.1250    2.5150   -6.2900 hc        1 CNW      0.083200
     36 HAX3        0.2140   -1.4600    0.1830 hn        1 CNW      0.487800
     37 HBP1        5.0030   -1.0480   -7.1560 hn        1 CNW      0.458800
@<TRIPOS>BOND
     1    1    2 1   
     2    1   20 1   
     3    1   21 1   
     4    1   36 1   
     5    2    3 2   
     6    2    4 1   
     7    4    5 2   
     8    4    6 1   
     9    5   11 1   
    10    5   22 1   
    11    6    7 2   
    12    6    8 1   
    13    8    9 1   
    14    9   10 ar  
    15    9   11 ar  
    16   10   14 ar  
    17   10   23 1   
    18   11   12 ar  
    19   12   13 ar  
    20   12   24 1   
    21   13   14 ar  
    22   13   25 1   
    23   14   15 1   
    24   15   16 1   
    25   15   18 1   
    26   15   37 1   
    27   16   17 1   
    28   16   26 1   
    29   16   27 1   
    30   17   30 1   
    31   17   31 1   
    32   17   32 1   
    33   18   19 1   
    34   18   28 1   
    35   18   29 1   
    36   19   33 1   
    37   19   34 1   
    38   19   35 1   
@<TRIPOS>SUBSTRUCTURE
     1 CNW         1 TEMP              0 ****  ****    0 ROOT
