@<TRIPOS>MOLECULE
CNW
   35    36     1     0     0
SMALL
bcc


@<TRIPOS>ATOM
      1 NAX         5.3060    0.5160   -0.1120 n         1 CNW     -0.662000
      2 CBC         4.3750   -0.4840   -0.0690 c         1 CNW      0.687300
      3 OAD         4.7470   -1.6820   -0.0430 o         1 CNW     -0.641100
      4 CBF         2.9230   -0.1570   -0.0520 cc        1 CNW     -0.306400
      5 CAQ         2.0260   -1.1850   -0.0060 cd        1 CNW      0.087800
      6 CBG         2.4480    1.2160   -0.0830 c         1 CNW      0.743800
      7 OAE         3.0680    2.2820   -0.1270 o         1 CNW     -0.593500
      8 OBB         1.0750    1.4770   -0.0620 os        1 CNW     -0.323200
      9 CBI         0.1880    0.4250   -0.0160 ca        1 CNW      0.213100
     10 CAP        -1.1670    0.7700   -0.0070 ca        1 CNW     -0.256000
     11 CBH         0.6240   -0.9160    0.0120 ca        1 CNW     -0.236800
     12 CAN        -0.3590   -1.9230    0.0570 ca        1 CNW     -0.015000
     13 CAM        -1.7000   -1.6110    0.0750 ca        1 CNW     -0.235000
     14 CBE        -2.1470   -0.2500    0.0440 ca        1 CNW      0.266600
     15 NBP        -3.4950    0.0560    0.0740 nh        1 CNW     -0.686000
     16 CAS        -4.5010   -0.9410   -0.2160 c3        1 CNW      0.217300
     17 CAB        -5.0450   -1.6760    1.0000 c3        1 CNW     -0.121100
     18 CAR        -3.9560    1.4050    0.3070 c3        1 CNW      0.217300
     19 CAA        -4.1130    2.2640   -0.9400 c3        1 CNW     -0.121100
     20 HAX1        6.2650    0.2740   -0.1230 hn        1 CNW      0.326000
     21 HAX2        5.0460    1.4720   -0.1340 hn        1 CNW      0.326000
     22 HAQ         2.3800   -2.2320    0.0170 ha        1 CNW      0.175000
     23 HAP        -1.4340    1.8360   -0.0520 ha        1 CNW      0.162000
     24 HAN        -0.0390   -2.9770    0.0840 ha        1 CNW      0.142000
     25 HAM        -2.4340   -2.4290    0.1340 ha        1 CNW      0.143000
     26 HAS1       -5.3590   -0.4210   -0.7360 h1        1 CNW      0.053200
     27 HAS2       -4.0810   -1.6930   -0.9450 h1        1 CNW      0.053200
     28 HAR1       -4.9580    1.3350    0.8240 h1        1 CNW      0.053200
     29 HAR2       -3.2480    1.9170    1.0210 h1        1 CNW      0.053200
     30 HAB1       -4.2370   -2.2340    1.5320 hc        1 CNW      0.045867
     31 HAB2       -5.5150   -0.9660    1.7210 hc        1 CNW      0.045867
     32 HAB3       -5.8200   -2.4050    0.6600 hc        1 CNW      0.045867
     33 HAA1       -4.4820    3.2730   -0.6360 hc        1 CNW      0.045867
     34 HAA2       -3.1390    2.3860   -1.4720 hc        1 CNW      0.045867
     35 HAA3       -4.8480    1.8140   -1.6490 hc        1 CNW      0.045867
@<TRIPOS>BOND
     1    1    2 1   
     2    1   20 1   
     3    1   21 1   
     4    2    3 2   
     5    2    4 1   
     6    4    5 2   
     7    4    6 1   
     8    5   11 1   
     9    5   22 1   
    10    6    7 2   
    11    6    8 1   
    12    8    9 1   
    13    9   10 ar  
    14    9   11 ar  
    15   10   14 ar  
    16   10   23 1   
    17   11   12 ar  
    18   12   13 ar  
    19   12   24 1   
    20   13   14 ar  
    21   13   25 1   
    22   14   15 1   
    23   15   16 1   
    24   15   18 1   
    25   16   17 1   
    26   16   26 1   
    27   16   27 1   
    28   17   30 1   
    29   17   31 1   
    30   17   32 1   
    31   18   19 1   
    32   18   28 1   
    33   18   29 1   
    34   19   33 1   
    35   19   34 1   
    36   19   35 1   
@<TRIPOS>SUBSTRUCTURE
     1 CNW         1 TEMP              0 ****  ****    0 ROOT
