@<TRIPOS>MOLECULE
CNW
   36    37     1     0     0
SMALL
bcc


@<TRIPOS>ATOM
      1 NAX        -0.0990    0.2140    0.0550 n4        1 CNW     -0.748400
      2 CBC         1.3950   -0.0480    0.0490 c         1 CNW      0.593300
      3 OAD         1.8640   -0.2740    1.1620 o         1 CNW     -0.472100
      4 CBF         2.0550    0.0000   -1.2260 cc        1 CNW     -0.437400
      5 CAQ         3.4320   -0.2360   -1.2820 cd        1 CNW      0.169800
      6 CBG         1.3350    0.2880   -2.4470 c         1 CNW      0.757800
      7 OAE         0.1270    0.5220   -2.5890 o         1 CNW     -0.632500
      8 OBB         1.9960    0.3260   -3.6630 os        1 CNW     -0.286200
      9 CBI         3.3550    0.0880   -3.7010 ca        1 CNW      0.249100
     10 CAP         3.9430    0.1500   -4.9510 ca        1 CNW     -0.276000
     11 CBH         4.0920   -0.1940   -2.5090 ca        1 CNW     -0.263800
     12 CAN         5.4910   -0.4200   -2.6600 ca        1 CNW      0.015000
     13 CAM         6.0960   -0.3690   -3.8820 ca        1 CNW     -0.231000
     14 CBE         5.3490   -0.0810   -5.0890 ca        1 CNW      0.315600
     15 NBP         5.9570   -0.0330   -6.3030 nh        1 CNW     -0.615000
     16 CAS         7.4050   -0.0770   -6.4430 c3        1 CNW      0.192300
     17 CAB         7.9940   -1.4750   -6.5320 c3        1 CNW     -0.121100
     18 CAR         5.1950    0.0720   -7.5390 c3        1 CNW      0.192300
     19 CAA         4.8670    1.4930   -7.9670 c3        1 CNW     -0.121100
     20 HAX1       -0.5680   -0.4730   -0.5480 hn        1 CNW      0.470800
     21 HAX2       -0.2840    1.1410   -0.3480 hn        1 CNW      0.470800
     22 HAQ         3.9910   -0.4550   -0.3520 ha        1 CNW      0.176000
     23 HAP         3.3120    0.3960   -5.8200 ha        1 CNW      0.180000
     24 HAN         6.0840   -0.6460   -1.7560 ha        1 CNW      0.158000
     25 HAM         7.1770   -0.5720   -3.9500 ha        1 CNW      0.164000
     26 HAS1        7.8760    0.4780   -5.5810 h1        1 CNW      0.071450
     27 HAS2        7.6670    0.4930   -7.3830 h1        1 CNW      0.071450
     28 HAR1        5.8040   -0.4250   -8.3500 h1        1 CNW      0.071450
     29 HAR2        4.2410   -0.5210   -7.4330 h1        1 CNW      0.071450
     30 HAB1        7.7840   -2.0670   -5.6090 hc        1 CNW      0.057367
     31 HAB2        7.5840   -2.0310   -7.4090 hc        1 CNW      0.057367
     32 HAB3        9.1010   -1.3850   -6.6540 hc        1 CNW      0.057367
     33 HAA1        4.3000    1.4500   -8.9290 hc        1 CNW      0.057367
     34 HAA2        4.2380    2.0130   -7.2050 hc        1 CNW      0.057367
     35 HAA3        5.7960    2.0910   -8.1280 hc        1 CNW      0.057367
     36 HAX3       -0.4650    0.1600    1.0100 hn        1 CNW      0.470800
@<TRIPOS>BOND
     1    1    2 1   
     2    1   20 1   
     3    1   21 1   
     4    1   36 1   
     5    2    3 2   
     6    2    4 1   
     7    4    5 2   
     8    4    6 1   
     9    5   11 1   
    10    5   22 1   
    11    6    7 2   
    12    6    8 1   
    13    8    9 1   
    14    9   10 ar  
    15    9   11 ar  
    16   10   14 ar  
    17   10   23 1   
    18   11   12 ar  
    19   12   13 ar  
    20   12   24 1   
    21   13   14 ar  
    22   13   25 1   
    23   14   15 1   
    24   15   16 1   
    25   15   18 1   
    26   16   17 1   
    27   16   26 1   
    28   16   27 1   
    29   17   30 1   
    30   17   31 1   
    31   17   32 1   
    32   18   19 1   
    33   18   28 1   
    34   18   29 1   
    35   19   33 1   
    36   19   34 1   
    37   19   35 1   
@<TRIPOS>SUBSTRUCTURE
     1 CNW         1 TEMP              0 ****  ****    0 ROOT
