@<TRIPOS>MOLECULE
CNW
   35    33     1     0     0
SMALL
bcc


@<TRIPOS>ATOM
      1 NAX        -3.9750   -1.2120    4.8100 n         1 CNW     -0.420000
      2 CBC        -2.5620   -0.9910    4.8860 c2        1 CNW      0.360000
      3 OAD        -2.0130   -0.9200    5.9770 o         1 CNW     -0.399000
      4 CBF        -1.7320   -0.9160    3.6100 c2        1 CNW     -0.258000
      5 CAQ        -1.5200    0.3500    2.9590 c1        1 CNW      0.069000
      6 CBG        -1.1900   -2.1610    2.9990 c2        1 CNW      0.357000
      7 OAE        -1.3350   -3.2210    3.5620 o         1 CNW     -0.314000
      8 OBB        -0.5130   -2.1060    1.7490 os        1 CNW     -0.186000
      9 CBI        -0.3460   -0.7980    1.0400 c2        1 CNW      0.153000
     10 CAP         0.3150   -0.7580   -0.2000 c1        1 CNW     -0.231000
     11 CBH        -0.7690    0.4020    1.6540 c1        1 CNW     -0.203000
     12 CAN        -0.5330    1.6100    1.0360 c1        1 CNW     -0.033000
     13 CAM         0.1350    1.6460   -0.2150 c1        1 CNW     -0.197000
     14 CBE         0.5530    0.4540   -0.8210 c1        1 CNW      0.138000
     15 NBP         1.2380    0.4910   -2.1210 n3        1 CNW     -0.249000
     16 CAS         0.4830    0.6680   -3.3280 c3        1 CNW     -0.047500
     17 CAB         0.3960   -0.6750   -4.0770 c3        1 CNW     -0.233000
     18 CAR         2.6230    0.2340   -2.1960 c3        1 CNW     -0.047500
     19 CAA         3.3530    1.5210   -2.5830 c3        1 CNW     -0.233000
     20 HAX1       -4.5440   -0.8130    5.4320 hn        1 CNW      0.240500
     21 HAX2       -4.3090   -1.7110    4.1670 hn        1 CNW      0.240500
     22 HAQ        -1.7820    1.1880    3.4130 ha        1 CNW      0.177000
     23 HAP         0.5970   -1.5680   -0.6130 ha        1 CNW      0.163000
     24 HAN        -0.8240    2.4430    1.4610 ha        1 CNW      0.144000
     25 HAM         0.3060    2.5110   -0.6580 ha        1 CNW      0.146000
     26 HAS1       -0.4010    0.9720   -3.1110 h1        1 CNW      0.090000
     27 HAS2        0.9340    1.3410   -3.9050 h1        1 CNW      0.090000
     28 HAR1        2.9450   -0.0740   -1.3330 h1        1 CNW      0.090000
     29 HAR2        2.7920   -0.4630   -2.8800 h1        1 CNW      0.090000
     30 HAB1       -0.4890   -0.7790   -4.4520 hc        1 CNW      0.084000
     31 HAB2        1.0570   -0.6890   -4.7950 hc        1 CNW      0.084000
     32 HAB3        0.5720   -1.3920   -3.4680 hc        1 CNW      0.084000
     33 HAA1        2.8050    2.3210   -2.2930 hc        1 CNW      0.084000
     34 HAA2        3.4810    1.5470   -3.5800 hc        1 CNW      0.084000
     35 HAA3        4.2540    1.5480   -2.1270 hc        1 CNW      0.084000
@<TRIPOS>BOND
     1    1    2 1   
     2    1   20 1   
     3    1   21 1   
     4    2    3 1   
     5    2    4 1   
     6    4    5 1   
     7    4    6 1   
     8    5   22 1   
     9    6    7 1   
    10    6    8 1   
    11    8    9 1   
    12    9   10 1   
    13    9   11 1   
    14   10   23 1   
    15   11   12 1   
    16   12   24 1   
    17   13   14 1   
    18   13   25 1   
    19   14   15 1   
    20   15   16 1   
    21   15   18 1   
    22   16   17 1   
    23   16   26 1   
    24   16   27 1   
    25   17   30 1   
    26   17   31 1   
    27   17   32 1   
    28   18   19 1   
    29   18   28 1   
    30   18   29 1   
    31   19   33 1   
    32   19   34 1   
    33   19   35 1   
@<TRIPOS>SUBSTRUCTURE
     1 CNW         1 TEMP              0 ****  ****    0 ROOT
