@<TRIPOS>MOLECULE
CNX
   21    20     1     0     0
SMALL
bcc


@<TRIPOS>ATOM
      1 N1         -4.2480    0.5860    0.0000 n1        1 CNX     -0.376800
      2 C1         -3.2390    0.0080    0.0000 c1        1 CNX      0.210700
      3 C2         -1.9880   -0.7180   -0.0000 c3        1 CNX     -0.023300
      4 C3         -0.7950    0.2210    0.0000 c3        1 CNX     -0.078400
      5 C4          0.5000   -0.5630   -0.0000 c3        1 CNX     -0.080400
      6 C5          1.6970    0.3630   -0.0000 c3        1 CNX     -0.079400
      7 C6          2.9950   -0.4170    0.0000 c3        1 CNX     -0.080400
      8 C7          4.1900    0.5010   -0.0000 c3        1 CNX     -0.093100
      9 H2         -1.9520   -1.3820    0.9080 hc        1 CNX      0.072700
     10 H2A        -1.9520   -1.3820   -0.9080 hc        1 CNX      0.072700
     11 H3         -0.8360    0.8840   -0.9030 hc        1 CNX      0.052700
     12 H3A        -0.8360    0.8840    0.9030 hc        1 CNX      0.052700
     13 H4          0.5390   -1.2280    0.9030 hc        1 CNX      0.041700
     14 H4A         0.5390   -1.2280   -0.9030 hc        1 CNX      0.041700
     15 H5          1.6590    1.0280   -0.9030 hc        1 CNX      0.042700
     16 H5A         1.6590    1.0280    0.9030 hc        1 CNX      0.042700
     17 H6          3.0310   -1.0830    0.9030 hc        1 CNX      0.038700
     18 H6A         3.0310   -1.0830   -0.9030 hc        1 CNX      0.038700
     19 H7          4.1850    1.1550   -0.9050 hc        1 CNX      0.034033
     20 H7A         4.1850    1.1550    0.9050 hc        1 CNX      0.034033
     21 H7B         5.1350   -0.0940    0.0000 hc        1 CNX      0.034033
@<TRIPOS>BOND
     1    1    2 3   
     2    2    3 1   
     3    3    4 1   
     4    3    9 1   
     5    3   10 1   
     6    4    5 1   
     7    4   11 1   
     8    4   12 1   
     9    5    6 1   
    10    5   13 1   
    11    5   14 1   
    12    6    7 1   
    13    6   15 1   
    14    6   16 1   
    15    7    8 1   
    16    7   17 1   
    17    7   18 1   
    18    8   19 1   
    19    8   20 1   
    20    8   21 1   
@<TRIPOS>SUBSTRUCTURE
     1 CNX         1 TEMP              0 ****  ****    0 ROOT
