@<TRIPOS>MOLECULE
CNX
   21    20     1     0     0
SMALL
bcc


@<TRIPOS>ATOM
      1 N1         -0.9900    0.0040   -2.4600 n1        1 CNX     -0.376800
      2 C1         -0.5700    0.0050   -1.3760 c1        1 CNX      0.210700
      3 C2         -0.0560    0.0060   -0.0250 c3        1 CNX     -0.023300
      4 C3          1.4620   -0.0020   -0.0030 c3        1 CNX     -0.078400
      5 C4          1.9750    0.0020    1.4220 c3        1 CNX     -0.080400
      6 C5          3.4880   -0.0070    1.4570 c3        1 CNX     -0.079400
      7 C6          4.0050   -0.0020    2.8800 c3        1 CNX     -0.080400
      8 C7          5.5110   -0.0120    2.9200 c3        1 CNX     -0.093100
      9 H2         -0.4510   -0.8980    0.5170 hc        1 CNX      0.072700
     10 H2A        -0.4410    0.9180    0.5110 hc        1 CNX      0.072700
     11 H3          1.8530    0.8980   -0.5470 hc        1 CNX      0.052700
     12 H3A         1.8440   -0.9090   -0.5400 hc        1 CNX      0.052700
     13 H4          1.5910    0.9090    1.9590 hc        1 CNX      0.041700
     14 H4A         1.5810   -0.8970    1.9670 hc        1 CNX      0.041700
     15 H5          3.8820    0.8900    0.9110 hc        1 CNX      0.042700
     16 H5A         3.8710   -0.9150    0.9210 hc        1 CNX      0.042700
     17 H6          3.6190    0.9060    3.4140 hc        1 CNX      0.038700
     18 H6A         3.6070   -0.8990    3.4250 hc        1 CNX      0.038700
     19 H7          5.8710   -0.0080    3.9770 hc        1 CNX      0.034033
     20 H7A         5.9130   -0.9230    2.4140 hc        1 CNX      0.034033
     21 H7B         5.9250    0.8870    2.4020 hc        1 CNX      0.034033
@<TRIPOS>BOND
     1    1    2 3   
     2    2    3 1   
     3    3    4 1   
     4    3    9 1   
     5    3   10 1   
     6    4    5 1   
     7    4   11 1   
     8    4   12 1   
     9    5    6 1   
    10    5   13 1   
    11    5   14 1   
    12    6    7 1   
    13    6   15 1   
    14    6   16 1   
    15    7    8 1   
    16    7   17 1   
    17    7   18 1   
    18    8   19 1   
    19    8   20 1   
    20    8   21 1   
@<TRIPOS>SUBSTRUCTURE
     1 CNX         1 TEMP              0 ****  ****    0 ROOT
