@<TRIPOS>MOLECULE
CNX
   21    20     1     0     0
SMALL
bcc


@<TRIPOS>ATOM
      1 N1         -0.9830    0.0080   -2.4680 n1        1 CNX     -0.376800
      2 C1         -0.5650    0.0090   -1.3830 c1        1 CNX      0.210700
      3 C2         -0.0540    0.0090   -0.0300 c3        1 CNX     -0.023300
      4 C3          1.4640   -0.0000   -0.0050 c3        1 CNX     -0.078400
      5 C4          1.9740    0.0020    1.4210 c3        1 CNX     -0.080400
      6 C5          3.4870   -0.0080    1.4580 c3        1 CNX     -0.079400
      7 C6          4.0010   -0.0050    2.8820 c3        1 CNX     -0.080400
      8 C7          5.5070   -0.0150    2.9250 c3        1 CNX     -0.093100
      9 H2         -0.4510   -0.8940    0.5100 hc        1 CNX      0.072700
     10 H2A        -0.4390    0.9210    0.5050 hc        1 CNX      0.072700
     11 H3          1.8570    0.8980   -0.5490 hc        1 CNX      0.052700
     12 H3A         1.8460   -0.9080   -0.5420 hc        1 CNX      0.052700
     13 H4          1.5900    0.9090    1.9570 hc        1 CNX      0.041700
     14 H4A         1.5780   -0.8970    1.9640 hc        1 CNX      0.041700
     15 H5          3.8830    0.8890    0.9140 hc        1 CNX      0.042700
     16 H5A         3.8710   -0.9160    0.9220 hc        1 CNX      0.042700
     17 H6          3.6150    0.9020    3.4170 hc        1 CNX      0.038700
     18 H6A         3.6020   -0.9030    3.4250 hc        1 CNX      0.038700
     19 H7          5.8650   -0.0130    3.9830 hc        1 CNX      0.034033
     20 H7A         5.9100   -0.9260    2.4180 hc        1 CNX      0.034033
     21 H7B         5.9220    0.8840    2.4100 hc        1 CNX      0.034033
@<TRIPOS>BOND
     1    1    2 3   
     2    2    3 1   
     3    3    4 1   
     4    3    9 1   
     5    3   10 1   
     6    4    5 1   
     7    4   11 1   
     8    4   12 1   
     9    5    6 1   
    10    5   13 1   
    11    5   14 1   
    12    6    7 1   
    13    6   15 1   
    14    6   16 1   
    15    7    8 1   
    16    7   17 1   
    17    7   18 1   
    18    8   19 1   
    19    8   20 1   
    20    8   21 1   
@<TRIPOS>SUBSTRUCTURE
     1 CNX         1 TEMP              0 ****  ****    0 ROOT
