@<TRIPOS>MOLECULE
CO1
   73    77     1     0     0
SMALL
bcc


@<TRIPOS>ATOM
      1 O24         0.2450   -0.6720   -0.6270 oh        1 CO1     -0.600800
      2 C22         1.6420   -0.4650   -0.4530 c3        1 CO1      0.145100
      3 C18         2.0250   -0.5700    1.0210 c3        1 CO1     -0.075200
      4 C14         3.4350   -0.1500    1.2640 c2        1 CO1     -0.105400
      5 C9          4.2450   -0.9210    2.0040 c2        1 CO1     -0.167200
      6 C4          5.6490   -0.5920    2.3270 c3        1 CO1     -0.042200
      7 C1          5.9750    0.8720    2.0670 c3        1 CO1     -0.047700
      8 C3          5.4020    1.3020    0.7090 c3        1 CO1     -0.048700
      9 C8          5.8660    2.6970    0.3050 c3        1 CO1     -0.075400
     10 C11         7.3680    2.9090    0.4080 c3        1 CO1     -0.065400
     11 C5          7.8680    2.5570    1.8010 c3        1 CO1     -0.045000
     12 C12         7.2750    3.4940    2.8400 c3        1 CO1     -0.083100
     13 C10         9.4050    2.4790    1.9740 c3        1 CO1     -0.054700
     14 C13         9.5940    1.4640    3.1220 c3        1 CO1     -0.079400
     15 C6          8.2930    0.6680    3.2560 c3        1 CO1     -0.074400
     16 C2          7.4750    1.0770    2.0410 c3        1 CO1     -0.064700
     17 C17        10.1380    3.7890    2.2440 c3        1 CO1     -0.055700
     18 C21         9.9240    4.7900    1.1250 c3        1 CO1     -0.092100
     19 C20        11.6340    3.5290    2.4130 c3        1 CO1     -0.078400
     20 C23        12.3130    4.6340    3.1960 c3        1 CO1     -0.076400
     21 C25        13.7810    4.3690    3.3530 cx        1 CO1      0.069100
     22 O27        14.2560    4.1850    4.6980 os        1 CO1     -0.405600
     23 C26        14.7000    5.3640    3.9910 cx        1 CO1      0.073800
     24 C28        16.1520    5.3720    3.6260 c3        1 CO1     -0.082600
     25 C29        14.1850    6.6640    4.5230 c3        1 CO1     -0.082600
     26 C7          3.8610    1.1740    0.6790 c3        1 CO1      0.000200
     27 C16         3.1970    2.2980    1.4690 c3        1 CO1     -0.083100
     28 C15         3.4130    1.2500   -0.7900 c3        1 CO1     -0.070400
     29 C19         1.9490    0.9280   -0.9860 c3        1 CO1     -0.075400
     30 H24         0.0420   -1.5320   -0.2430 ho        1 CO1      0.398000
     31 H22         2.2050   -1.2380   -1.0480 h1        1 CO1      0.035700
     32 H181        1.8650   -1.6270    1.3660 hc        1 CO1      0.051200
     33 H182        1.3340    0.0810    1.6230 hc        1 CO1      0.051200
     34 H9          3.8890   -1.8820    2.4120 ha        1 CO1      0.119000
     35 H41         6.3240   -1.2480    1.7110 hc        1 CO1      0.049200
     36 H42         5.8590   -0.8270    3.4060 hc        1 CO1      0.049200
     37 H1          5.5150    1.4890    2.8860 hc        1 CO1      0.058700
     38 H3          5.8080    0.5780   -0.0560 hc        1 CO1      0.047700
     39 H81         5.5580    2.8840   -0.7580 hc        1 CO1      0.041700
     40 H82         5.3540    3.4670    0.9400 hc        1 CO1      0.041700
     41 H111        7.8960    2.2730   -0.3500 hc        1 CO1      0.041200
     42 H112        7.5990    3.9790    0.1680 hc        1 CO1      0.041200
     43 H121        7.5410    4.5520    2.6030 hc        1 CO1      0.035700
     44 H122        6.1610    3.4180    2.8680 hc        1 CO1      0.035700
     45 H123        7.6690    3.2440    3.8550 hc        1 CO1      0.035700
     46 H10         9.8320    2.0390    1.0300 hc        1 CO1      0.046700
     47 H131       10.4480    0.7800    2.8930 hc        1 CO1      0.043200
     48 H132        9.8240    1.9930    4.0800 hc        1 CO1      0.043200
     49 H61         8.4840   -0.4320    3.2640 hc        1 CO1      0.042700
     50 H62         7.7610    0.9300    4.2030 hc        1 CO1      0.042700
     51 H2          7.8710    0.4840    1.1630 hc        1 CO1      0.045700
     52 H17         9.7440    4.2290    3.2030 hc        1 CO1      0.052700
     53 H211        8.9030    5.2370    1.1820 hc        1 CO1      0.034033
     54 H212       10.6670    5.6220    1.1960 hc        1 CO1      0.034033
     55 H213       10.0410    4.2990    0.1290 hc        1 CO1      0.034033
     56 H201       12.1090    3.4320    1.4010 hc        1 CO1      0.045700
     57 H202       11.8010    2.5590    2.9500 hc        1 CO1      0.045700
     58 H231       11.8370    4.7260    4.2090 hc        1 CO1      0.055700
     59 H232       12.1820    5.6180    2.6720 hc        1 CO1      0.055700
     60 H25        14.2040    3.6380    2.6320 h1        1 CO1      0.085700
     61 H281       16.7690    5.6530    4.5140 hc        1 CO1      0.048367
     62 H282       16.3290    6.1160    2.8120 hc        1 CO1      0.048367
     63 H283       16.4790    4.3630    3.2750 hc        1 CO1      0.048367
     64 H291       13.1350    6.5560    4.8890 hc        1 CO1      0.048367
     65 H292       14.8220    7.0090    5.3730 hc        1 CO1      0.048367
     66 H293       14.2110    7.4340    3.7150 hc        1 CO1      0.048367
     67 H161        3.2620    3.2610    0.9080 hc        1 CO1      0.037367
     68 H162        3.6920    2.4270    2.4620 hc        1 CO1      0.037367
     69 H163        2.1170    2.0720    1.6400 hc        1 CO1      0.037367
     70 H151        3.6080    2.2840   -1.1780 hc        1 CO1      0.044700
     71 H152        4.0310    0.5370   -1.3960 hc        1 CO1      0.044700
     72 H191        1.3050    1.6770   -0.4570 hc        1 CO1      0.055200
     73 H192        1.6900    0.9710   -2.0760 hc        1 CO1      0.055200
@<TRIPOS>BOND
     1    1    2 1   
     2    1   30 1   
     3    2    3 1   
     4    2   29 1   
     5    2   31 1   
     6    3    4 1   
     7    3   32 1   
     8    3   33 1   
     9    4    5 2   
    10    4   26 1   
    11    5    6 1   
    12    5   34 1   
    13    6    7 1   
    14    6   35 1   
    15    6   36 1   
    16    7    8 1   
    17    7   16 1   
    18    7   37 1   
    19    8    9 1   
    20    8   26 1   
    21    8   38 1   
    22    9   10 1   
    23    9   39 1   
    24    9   40 1   
    25   10   11 1   
    26   10   41 1   
    27   10   42 1   
    28   11   12 1   
    29   11   13 1   
    30   11   16 1   
    31   12   43 1   
    32   12   44 1   
    33   12   45 1   
    34   13   14 1   
    35   13   17 1   
    36   13   46 1   
    37   14   15 1   
    38   14   47 1   
    39   14   48 1   
    40   15   16 1   
    41   15   49 1   
    42   15   50 1   
    43   16   51 1   
    44   17   18 1   
    45   17   19 1   
    46   17   52 1   
    47   18   53 1   
    48   18   54 1   
    49   18   55 1   
    50   19   20 1   
    51   19   56 1   
    52   19   57 1   
    53   20   21 1   
    54   20   58 1   
    55   20   59 1   
    56   21   22 1   
    57   21   23 1   
    58   21   60 1   
    59   22   23 1   
    60   23   24 1   
    61   23   25 1   
    62   24   61 1   
    63   24   62 1   
    64   24   63 1   
    65   25   64 1   
    66   25   65 1   
    67   25   66 1   
    68   26   27 1   
    69   26   28 1   
    70   27   67 1   
    71   27   68 1   
    72   27   69 1   
    73   28   29 1   
    74   28   70 1   
    75   28   71 1   
    76   29   72 1   
    77   29   73 1   
@<TRIPOS>SUBSTRUCTURE
     1 CO1         1 TEMP              0 ****  ****    0 ROOT
