@<TRIPOS>MOLECULE
CO1
   73    77     1     0     0
SMALL
bcc


@<TRIPOS>ATOM
      1 O24         0.2310   -0.6570   -0.6030 oh        1 CO1     -0.600800
      2 C22         1.6290   -0.4520   -0.4340 c3        1 CO1      0.145100
      3 C18         2.0190   -0.5620    1.0380 c3        1 CO1     -0.075200
      4 C14         3.4300   -0.1440    1.2750 c2        1 CO1     -0.105400
      5 C9          4.2440   -0.9180    2.0090 c2        1 CO1     -0.167200
      6 C4          5.6490   -0.5900    2.3270 c3        1 CO1     -0.042200
      7 C1          5.9740    0.8740    2.0690 c3        1 CO1     -0.047700
      8 C3          5.3960    1.3090    0.7160 c3        1 CO1     -0.048700
      9 C8          5.8590    2.7040    0.3130 c3        1 CO1     -0.075400
     10 C11         7.3620    2.9150    0.4100 c3        1 CO1     -0.065400
     11 C5          7.8680    2.5580    1.7990 c3        1 CO1     -0.045000
     12 C12         7.2800    3.4920    2.8440 c3        1 CO1     -0.083100
     13 C10         9.4060    2.4780    1.9650 c3        1 CO1     -0.054700
     14 C13         9.5990    1.4590    3.1090 c3        1 CO1     -0.079400
     15 C6          8.2990    0.6650    3.2460 c3        1 CO1     -0.074400
     16 C2          7.4740    1.0780    2.0370 c3        1 CO1     -0.064700
     17 C17        10.1410    3.7870    2.2350 c3        1 CO1     -0.055700
     18 C21         9.9230    4.7920    1.1200 c3        1 CO1     -0.092100
     19 C20        11.6380    3.5250    2.3960 c3        1 CO1     -0.078400
     20 C23        12.3220    4.6270    3.1800 c3        1 CO1     -0.076400
     21 C25        13.7900    4.3600    3.3290 cx        1 CO1      0.069100
     22 O27        14.2710    4.1700    4.6700 os        1 CO1     -0.405600
     23 C26        14.7120    5.3510    3.9680 cx        1 CO1      0.073800
     24 C28        16.1630    5.3610    3.5950 c3        1 CO1     -0.082600
     25 C29        14.2000    6.6490    4.5080 c3        1 CO1     -0.082600
     26 C7          3.8550    1.1810    0.6920 c3        1 CO1      0.000200
     27 C16         3.1950    2.3040    1.4890 c3        1 CO1     -0.083100
     28 C15         3.3990    1.2620   -0.7740 c3        1 CO1     -0.070400
     29 C19         1.9350    0.9420   -0.9650 c3        1 CO1     -0.075400
     30 H24         0.0290   -1.5190   -0.2210 ho        1 CO1      0.398000
     31 H22         2.1890   -1.2240   -1.0340 h1        1 CO1      0.035700
     32 H181        1.3310    0.0870    1.6440 hc        1 CO1      0.051200
     33 H182        1.8590   -1.6200    1.3790 hc        1 CO1      0.051200
     34 H9          3.8880   -1.8790    2.4150 ha        1 CO1      0.119000
     35 H41         5.8640   -0.8290    3.4030 hc        1 CO1      0.049200
     36 H42         6.3210   -1.2460    1.7050 hc        1 CO1      0.049200
     37 H1          5.5190    1.4890    2.8920 hc        1 CO1      0.058700
     38 H3          5.7980    0.5860   -0.0540 hc        1 CO1      0.047700
     39 H81         5.3510    3.4730    0.9530 hc        1 CO1      0.041700
     40 H82         5.5460    2.8950   -0.7480 hc        1 CO1      0.041700
     41 H111        7.5920    3.9850    0.1720 hc        1 CO1      0.041200
     42 H112        7.8850    2.2810   -0.3520 hc        1 CO1      0.041200
     43 H121        6.1670    3.4180    2.8770 hc        1 CO1      0.035700
     44 H122        7.5470    4.5510    2.6090 hc        1 CO1      0.035700
     45 H123        7.6790    3.2390    3.8560 hc        1 CO1      0.035700
     46 H10         9.8280    2.0410    1.0170 hc        1 CO1      0.046700
     47 H131        9.8340    1.9850    4.0670 hc        1 CO1      0.043200
     48 H132       10.4520    0.7760    2.8740 hc        1 CO1      0.043200
     49 H61         8.4880   -0.4360    3.2510 hc        1 CO1      0.042700
     50 H62         7.7700    0.9240    4.1970 hc        1 CO1      0.042700
     51 H2          7.8660    0.4860    1.1560 hc        1 CO1      0.045700
     52 H17         9.7520    4.2240    3.1980 hc        1 CO1      0.052700
     53 H211       10.0350    4.3030    0.1220 hc        1 CO1      0.034033
     54 H212       10.6660    5.6230    1.1900 hc        1 CO1      0.034033
     55 H213        8.9020    5.2390    1.1840 hc        1 CO1      0.034033
     56 H201       11.8070    2.5530    2.9300 hc        1 CO1      0.045700
     57 H202       12.1080    3.4310    1.3820 hc        1 CO1      0.045700
     58 H231       12.1880    5.6130    2.6600 hc        1 CO1      0.055700
     59 H232       11.8500    4.7160    4.1950 hc        1 CO1      0.055700
     60 H25        14.2090    3.6330    2.6020 h1        1 CO1      0.085700
     61 H281       16.7830    5.6370    4.4820 hc        1 CO1      0.048367
     62 H282       16.3360    6.1090    2.7850 hc        1 CO1      0.048367
     63 H283       16.4880    4.3540    3.2380 hc        1 CO1      0.048367
     64 H291       14.2230    7.4240    3.7040 hc        1 CO1      0.048367
     65 H292       14.8420    6.9890    5.3570 hc        1 CO1      0.048367
     66 H293       13.1520    6.5400    4.8780 hc        1 CO1      0.048367
     67 H161        3.6940    2.4290    2.4790 hc        1 CO1      0.037367
     68 H162        2.1160    2.0780    1.6640 hc        1 CO1      0.037367
     69 H163        3.2580    3.2690    0.9300 hc        1 CO1      0.037367
     70 H151        3.5940    2.2970   -1.1600 hc        1 CO1      0.044700
     71 H152        4.0140    0.5500   -1.3860 hc        1 CO1      0.044700
     72 H191        1.2940    1.6900   -0.4300 hc        1 CO1      0.055200
     73 H192        1.6710    0.9890   -2.0530 hc        1 CO1      0.055200
@<TRIPOS>BOND
     1    1    2 1   
     2    1   30 1   
     3    2    3 1   
     4    2   29 1   
     5    2   31 1   
     6    3    4 1   
     7    3   32 1   
     8    3   33 1   
     9    4    5 2   
    10    4   26 1   
    11    5    6 1   
    12    5   34 1   
    13    6    7 1   
    14    6   35 1   
    15    6   36 1   
    16    7    8 1   
    17    7   16 1   
    18    7   37 1   
    19    8    9 1   
    20    8   26 1   
    21    8   38 1   
    22    9   10 1   
    23    9   39 1   
    24    9   40 1   
    25   10   11 1   
    26   10   41 1   
    27   10   42 1   
    28   11   12 1   
    29   11   13 1   
    30   11   16 1   
    31   12   43 1   
    32   12   44 1   
    33   12   45 1   
    34   13   14 1   
    35   13   17 1   
    36   13   46 1   
    37   14   15 1   
    38   14   47 1   
    39   14   48 1   
    40   15   16 1   
    41   15   49 1   
    42   15   50 1   
    43   16   51 1   
    44   17   18 1   
    45   17   19 1   
    46   17   52 1   
    47   18   53 1   
    48   18   54 1   
    49   18   55 1   
    50   19   20 1   
    51   19   56 1   
    52   19   57 1   
    53   20   21 1   
    54   20   58 1   
    55   20   59 1   
    56   21   22 1   
    57   21   23 1   
    58   21   60 1   
    59   22   23 1   
    60   23   24 1   
    61   23   25 1   
    62   24   61 1   
    63   24   62 1   
    64   24   63 1   
    65   25   64 1   
    66   25   65 1   
    67   25   66 1   
    68   26   27 1   
    69   26   28 1   
    70   27   67 1   
    71   27   68 1   
    72   27   69 1   
    73   28   29 1   
    74   28   70 1   
    75   28   71 1   
    76   29   72 1   
    77   29   73 1   
@<TRIPOS>SUBSTRUCTURE
     1 CO1         1 TEMP              0 ****  ****    0 ROOT
