@<TRIPOS>MOLECULE
CO1
   73    77     1     0     0
SMALL
bcc


@<TRIPOS>ATOM
      1 O24         0.2610   -0.2030   -8.3490 oh        1 CO1     -0.600800
      2 C22         0.0390   -0.5320   -6.9830 c3        1 CO1      0.145100
      3 C18        -0.7840    0.5510   -6.2920 c3        1 CO1     -0.075200
      4 C14        -0.8540    0.3450   -4.8160 c2        1 CO1     -0.105400
      5 C9         -2.0350    0.4140   -4.1860 c2        1 CO1     -0.167200
      6 C4         -2.2170    0.2500   -2.7280 c3        1 CO1     -0.042200
      7 C1         -0.9080    0.3760   -1.9640 c3        1 CO1     -0.047700
      8 C3          0.1920   -0.4280   -2.6730 c3        1 CO1     -0.048700
      9 C8          1.4720   -0.5030   -1.8490 c3        1 CO1     -0.075400
     10 C11         1.2610   -0.9320   -0.4060 c3        1 CO1     -0.065400
     11 C5          0.2320   -0.0450    0.2770 c3        1 CO1     -0.045000
     12 C12         0.7310    1.3870    0.3710 c3        1 CO1     -0.083100
     13 C10        -0.2700   -0.5230    1.6620 c3        1 CO1     -0.054700
     14 C13        -1.6970    0.0590    1.7560 c3        1 CO1     -0.079400
     15 C6         -2.1430    0.4240    0.3390 c3        1 CO1     -0.074400
     16 C2         -1.0670   -0.1670   -0.5590 c3        1 CO1     -0.064700
     17 C17         0.5800   -0.1510    2.8720 c3        1 CO1     -0.055700
     18 C21         1.9880   -0.7040    2.7580 c3        1 CO1     -0.092100
     19 C20        -0.0690   -0.6760    4.1520 c3        1 CO1     -0.078400
     20 C23         0.3920    0.0920    5.3740 c3        1 CO1     -0.076400
     21 C25        -0.2490   -0.4340    6.6230 cx        1 CO1      0.069100
     22 O27        -1.1060    0.4770    7.3320 os        1 CO1     -0.405600
     23 C26         0.1230    0.0800    7.9790 cx        1 CO1      0.073800
     24 C28        -0.0500   -0.8000    9.1780 c3        1 CO1     -0.082600
     25 C29         1.1410    1.1630    8.1430 c3        1 CO1     -0.082600
     26 C7          0.4530    0.1070   -4.1000 c3        1 CO1      0.000200
     27 C16         1.2400    1.4140   -4.0650 c3        1 CO1     -0.083100
     28 C15         1.2640   -0.9560   -4.8590 c3        1 CO1     -0.070400
     29 C19         1.4100   -0.6570   -6.3330 c3        1 CO1     -0.075400
     30 H24        -0.6070   -0.0740   -8.7480 ho        1 CO1      0.398000
     31 H22        -0.5060   -1.5170   -6.9260 h1        1 CO1      0.035700
     32 H181       -1.8150    0.5660   -6.7360 hc        1 CO1      0.051200
     33 H182       -0.3190    1.5520   -6.5060 hc        1 CO1      0.051200
     34 H9         -2.9650    0.5910   -4.7520 ha        1 CO1      0.119000
     35 H41        -2.6770   -0.7590   -2.5340 hc        1 CO1      0.049200
     36 H42        -2.9410    1.0180   -2.3440 hc        1 CO1      0.049200
     37 H1         -0.6210    1.4620   -1.9280 hc        1 CO1      0.058700
     38 H3         -0.1990   -1.4820   -2.7820 hc        1 CO1      0.047700
     39 H81         1.9850    0.4950   -1.8500 hc        1 CO1      0.041700
     40 H82         2.1700   -1.2360   -2.3340 hc        1 CO1      0.041700
     41 H111        2.2420   -0.8810    0.1340 hc        1 CO1      0.041200
     42 H112        0.9150   -1.9990   -0.3720 hc        1 CO1      0.041200
     43 H121        0.9130    1.8230   -0.6400 hc        1 CO1      0.035700
     44 H122       -0.0200    2.0240    0.8970 hc        1 CO1      0.035700
     45 H123        1.6920    1.4240    0.9390 hc        1 CO1      0.035700
     46 H10        -0.3410   -1.6460    1.6290 hc        1 CO1      0.046700
     47 H131       -1.7080    0.9660    2.4100 hc        1 CO1      0.043200
     48 H132       -2.3910   -0.6950    2.2030 hc        1 CO1      0.043200
     49 H61        -2.2050    1.5330    0.2120 hc        1 CO1      0.042700
     50 H62        -3.1480   -0.0020    0.1020 hc        1 CO1      0.042700
     51 H2         -1.2940   -1.2710   -0.6590 hc        1 CO1      0.045700
     52 H17         0.6360    0.9720    2.9380 hc        1 CO1      0.052700
     53 H211        1.9670   -1.7670    2.4160 hc        1 CO1      0.034033
     54 H212        2.5900   -0.1080    2.0290 hc        1 CO1      0.034033
     55 H213        2.5070   -0.6620    3.7460 hc        1 CO1      0.034033
     56 H201        0.1770   -1.7640    4.2710 hc        1 CO1      0.045700
     57 H202       -1.1850   -0.5950    4.0820 hc        1 CO1      0.045700
     58 H231        0.1420    1.1800    5.2510 hc        1 CO1      0.055700
     59 H232        1.5060    0.0140    5.4840 hc        1 CO1      0.055700
     60 H25        -0.6690   -1.4580    6.5370 h1        1 CO1      0.085700
     61 H281       -0.3360   -0.1860   10.0660 hc        1 CO1      0.048367
     62 H282       -0.8500   -1.5590    9.0020 hc        1 CO1      0.048367
     63 H283        0.9100   -1.3270    9.3970 hc        1 CO1      0.048367
     64 H291        0.9220    1.7580    9.0640 hc        1 CO1      0.048367
     65 H292        2.1570    0.7100    8.2400 hc        1 CO1      0.048367
     66 H293        1.1330    1.8540    7.2650 hc        1 CO1      0.048367
     67 H161        1.2220    1.9100   -5.0650 hc        1 CO1      0.037367
     68 H162        0.8050    2.1160   -3.3150 hc        1 CO1      0.037367
     69 H163        2.3080    1.2200   -3.7970 hc        1 CO1      0.037367
     70 H151        0.7640   -1.9530   -4.7340 hc        1 CO1      0.044700
     71 H152        2.2860   -1.0290   -4.4040 hc        1 CO1      0.044700
     72 H191        1.9830   -1.4790   -6.8350 hc        1 CO1      0.055200
     73 H192        1.9820    0.2940   -6.4880 hc        1 CO1      0.055200
@<TRIPOS>BOND
     1    1    2 1   
     2    1   30 1   
     3    2    3 1   
     4    2   29 1   
     5    2   31 1   
     6    3    4 1   
     7    3   32 1   
     8    3   33 1   
     9    4    5 2   
    10    4   26 1   
    11    5    6 1   
    12    5   34 1   
    13    6    7 1   
    14    6   35 1   
    15    6   36 1   
    16    7    8 1   
    17    7   16 1   
    18    7   37 1   
    19    8    9 1   
    20    8   26 1   
    21    8   38 1   
    22    9   10 1   
    23    9   39 1   
    24    9   40 1   
    25   10   11 1   
    26   10   41 1   
    27   10   42 1   
    28   11   12 1   
    29   11   13 1   
    30   11   16 1   
    31   12   43 1   
    32   12   44 1   
    33   12   45 1   
    34   13   14 1   
    35   13   17 1   
    36   13   46 1   
    37   14   15 1   
    38   14   47 1   
    39   14   48 1   
    40   15   16 1   
    41   15   49 1   
    42   15   50 1   
    43   16   51 1   
    44   17   18 1   
    45   17   19 1   
    46   17   52 1   
    47   18   53 1   
    48   18   54 1   
    49   18   55 1   
    50   19   20 1   
    51   19   56 1   
    52   19   57 1   
    53   20   21 1   
    54   20   58 1   
    55   20   59 1   
    56   21   22 1   
    57   21   23 1   
    58   21   60 1   
    59   22   23 1   
    60   23   24 1   
    61   23   25 1   
    62   24   61 1   
    63   24   62 1   
    64   24   63 1   
    65   25   64 1   
    66   25   65 1   
    67   25   66 1   
    68   26   27 1   
    69   26   28 1   
    70   27   67 1   
    71   27   68 1   
    72   27   69 1   
    73   28   29 1   
    74   28   70 1   
    75   28   71 1   
    76   29   72 1   
    77   29   73 1   
@<TRIPOS>SUBSTRUCTURE
     1 CO1         1 TEMP              0 ****  ****    0 ROOT
