@<TRIPOS>MOLECULE
CO4
   52    49     1     0     0
SMALL
bcc


@<TRIPOS>ATOM
      1 N2'         0.0830   -4.8690    7.1200 n3        1 CO4     -0.336000
      2 C2D        -0.0760   -3.9810    6.0680 c2        1 CO4      0.207000
      3 N3'        -0.4900   -2.6670    6.3150 n2        1 CO4     -0.274500
      4 C4D        -0.6850   -1.8080    5.2680 c1        1 CO4      0.173500
      5 N4'        -1.1480   -0.4670    5.5060 n2        1 CO4     -0.346000
      6 C4A        -0.4710   -2.2440    3.9610 c2        1 CO4     -0.257000
      7 C5D        -0.5550   -1.3290    2.8990 c2        1 CO4      0.041000
      8 C6D        -0.2240   -1.7300    1.5900 c1        1 CO4     -0.197000
      9 C7'         0.1860   -3.0350    1.3440 c1        1 CO4      0.005000
     10 N8'         0.2700   -3.9410    2.3900 n1        1 CO4     -0.134000
     11 C8A        -0.0670   -3.5290    3.7270 c1        1 CO4      0.173500
     12 N1'         0.1310   -4.4000    4.7840 n2        1 CO4     -0.274500
     13 C8'        -0.6990   -0.8510    0.4280 c3        1 CO4      0.027000
     14 N9'         0.2460   -1.1680   -0.9550 n3        1 CO4     -0.287000
     15 C1'         0.3150    0.3160   -1.9520 c2        1 CO4      0.133000
     16 C6'         0.2480    0.2220   -3.3420 c2        1 CO4     -0.249500
     17 C5'         0.2180    1.3700   -4.1080 c1        1 CO4      0.108000
     18 O5'         0.0030    1.2810   -5.5020 o         1 CO4     -0.212000
     19 C5B         1.0730    0.8370   -6.1960 c3        1 CO4     -0.075500
     20 C4'         0.2550    2.6560   -3.4740 c2        1 CO4     -0.047000
     21 O4'         0.2990    3.8570   -4.2830 os        1 CO4     -0.213000
     22 C4B         1.6590    4.2820   -4.6600 c3        1 CO4     -0.074000
     23 C3'         0.3220    2.7430   -2.0800 c1        1 CO4      0.108000
     24 O3'         0.4850    4.0140   -1.4420 o         1 CO4     -0.212000
     25 C3B        -0.6880    4.7780   -1.3650 c3        1 CO4     -0.075500
     26 C2'         0.3520    1.5940   -1.3210 c2        1 CO4     -0.249500
     27 C9'        -0.4850   -2.3630   -1.8460 c3        1 CO4     -0.078000
     28 C51        -1.0600    0.0500    2.9820 c3        1 CO4     -0.206000
     29 H2'1        0.1120   -5.7450    6.9600 hn        1 CO4      0.232000
     30 H2'2        0.2550   -4.5510    7.9670 hn        1 CO4      0.232000
     31 H4'1       -1.9380   -0.2350    5.2580 hn        1 CO4      0.220000
     32 H4'2       -0.6310    0.1150    5.9450 hn        1 CO4      0.220000
     33 H7'         0.4170   -3.3110    0.4320 ha        1 CO4      0.166000
     34 H8'1       -0.6110    0.0360    0.6550 h1        1 CO4      0.091500
     35 H8'2       -1.6760   -1.0540    0.2330 h1        1 CO4      0.091500
     36 H6'         0.1100   -0.5950   -3.7380 ha        1 CO4      0.148500
     37 H5B1        1.1520   -0.1340   -6.0860 h1        1 CO4      0.084833
     38 H5B2        1.8550    1.2520   -5.8760 h1        1 CO4      0.084833
     39 H5B3        0.9580    1.0440   -7.1060 h1        1 CO4      0.084833
     40 H4B1        2.2850    3.5420   -4.5090 h1        1 CO4      0.081667
     41 H4B2        1.6730    4.5240   -5.5670 h1        1 CO4      0.081667
     42 H4B3        1.9380    5.0960   -4.0850 h1        1 CO4      0.081667
     43 H3B1       -0.4460    5.7540   -0.9950 h1        1 CO4      0.084833
     44 H3B2       -1.0760    4.8530   -2.2330 h1        1 CO4      0.084833
     45 H3B3       -1.3700    4.3150   -0.7180 h1        1 CO4      0.084833
     46 H2'         0.4030    1.6610   -0.2580 ha        1 CO4      0.148500
     47 H9'1       -0.9850   -2.9530   -1.2500 h1        1 CO4      0.077333
     48 H9'2        0.2360   -2.9050   -2.3450 h1        1 CO4      0.077333
     49 H9'3       -1.1510   -1.9220   -2.5580 h1        1 CO4      0.077333
     50 H511       -0.9980    0.4730    2.1050 hc        1 CO4      0.097000
     51 H512       -1.9650    0.0410    3.2640 hc        1 CO4      0.097000
     52 H513       -0.5340    0.5420    3.6110 hc        1 CO4      0.097000
@<TRIPOS>BOND
     1    1    2 1   
     2    1   29 1   
     3    1   30 1   
     4    2    3 1   
     5    2   12 1   
     6    3    4 1   
     7    4    6 1   
     8    5   31 1   
     9    5   32 1   
    10    6    7 1   
    11    6   11 1   
    12    7    8 1   
    13    7   28 1   
    14    8   13 1   
    15    9   10 1   
    16    9   33 1   
    17   11   12 1   
    18   13   14 1   
    19   13   34 1   
    20   13   35 1   
    21   14   15 1   
    22   14   27 1   
    23   15   16 1   
    24   15   26 1   
    25   16   17 1   
    26   16   36 1   
    27   17   20 1   
    28   18   19 1   
    29   19   37 1   
    30   19   38 1   
    31   19   39 1   
    32   20   21 1   
    33   20   23 1   
    34   21   22 1   
    35   22   40 1   
    36   22   41 1   
    37   22   42 1   
    38   23   26 1   
    39   24   25 1   
    40   25   43 1   
    41   25   44 1   
    42   25   45 1   
    43   26   46 1   
    44   27   47 1   
    45   27   48 1   
    46   27   49 1   
    47   28   50 1   
    48   28   51 1   
    49   28   52 1   
@<TRIPOS>SUBSTRUCTURE
     1 CO4         1 TEMP              0 ****  ****    0 ROOT
