@<TRIPOS>MOLECULE
CO4
   52    54     1     0     0
SMALL
bcc


@<TRIPOS>ATOM
      1 N2'        -0.2790    2.1350   -6.6990 nh        1 CO4     -0.925500
      2 C2D        -0.3100    1.3620   -5.5370 ca        1 CO4      0.918900
      3 N3'        -1.1060    0.2100   -5.5700 nb        1 CO4     -0.832000
      4 C4D        -0.9910   -0.6480   -4.5350 ca        1 CO4      0.738200
      5 N4'        -1.8080   -1.7720   -4.5520 nh        1 CO4     -0.948500
      6 C4A        -0.0560   -0.4160   -3.4380 ca        1 CO4     -0.383600
      7 C5D         0.3030   -1.3430   -2.4190 ca        1 CO4      0.024700
      8 C6D         1.0170   -0.8810   -1.3190 ca        1 CO4     -0.288600
      9 C7'         1.4430    0.4820   -1.3180 ca        1 CO4      0.460200
     10 N8'         1.2640    1.3370   -2.3040 nb        1 CO4     -0.655000
     11 C8A         0.5410    0.9020   -3.4140 ca        1 CO4      0.716300
     12 N1'         0.4330    1.7810   -4.4680 nb        1 CO4     -0.764000
     13 C8'         1.3750   -1.8110   -0.1950 c3        1 CO4      0.270100
     14 N9'         1.8570   -1.2660    1.0470 nh        1 CO4     -0.677000
     15 C1'         0.9590   -0.6920    1.9640 ca        1 CO4      0.224600
     16 C6'         1.4280   -0.3070    3.2430 ca        1 CO4     -0.283500
     17 C5'         0.5390    0.1980    4.1930 ca        1 CO4      0.168600
     18 O5'         0.9070    0.5610    5.4730 os        1 CO4     -0.311900
     19 C5B         2.3020    0.5730    5.7530 c3        1 CO4      0.112700
     20 C4'        -0.8330    0.3480    3.9030 ca        1 CO4      0.003100
     21 O4'        -1.6950    0.9740    4.7830 os        1 CO4     -0.306900
     22 C4B        -2.0950    0.1440    5.8750 c3        1 CO4      0.114700
     23 C3'        -1.2940   -0.0540    2.6340 ca        1 CO4      0.168600
     24 O3'        -2.6550    0.0690    2.4380 os        1 CO4     -0.311900
     25 C3B        -3.1080   -0.0180    1.0920 c3        1 CO4      0.112700
     26 C2'        -0.4140   -0.5490    1.6670 ca        1 CO4     -0.283500
     27 C9'         3.2310   -0.8400    1.0950 c3        1 CO4      0.192100
     28 C51         0.0070   -2.7930   -2.5300 c3        1 CO4     -0.077800
     29 H2'1       -1.0070    1.9900   -7.3590 hn        1 CO4      0.431800
     30 H2'2        0.0670    3.0630   -6.6110 hn        1 CO4      0.431800
     31 H4'1       -2.5050   -1.8260   -5.2600 hn        1 CO4      0.425300
     32 H4'2       -2.0550   -2.1480   -3.6680 hn        1 CO4      0.425300
     33 H7'         1.9940    0.8930   -0.4480 h4        1 CO4      0.030100
     34 H8'1        2.1830   -2.5090   -0.5750 h1        1 CO4      0.060700
     35 H8'2        0.4680   -2.4430    0.0450 h1        1 CO4      0.060700
     36 H6'         2.4910   -0.4190    3.4980 ha        1 CO4      0.142500
     37 H5B1        2.3520    0.9760    6.7960 h1        1 CO4      0.044533
     38 H5B2        2.7190   -0.4630    5.7110 h1        1 CO4      0.044533
     39 H5B3        2.8460    1.2440    5.0450 h1        1 CO4      0.044533
     40 H4B1       -2.7630    0.8070    6.4790 h1        1 CO4      0.038700
     41 H4B2       -2.6540   -0.7480    5.5010 h1        1 CO4      0.038700
     42 H4B3       -1.2030   -0.1720    6.4680 h1        1 CO4      0.038700
     43 H3B1       -4.1900    0.2610    1.1660 h1        1 CO4      0.044533
     44 H3B2       -2.5590    0.6990    0.4350 h1        1 CO4      0.044533
     45 H3B3       -2.9990   -1.0630    0.7110 h1        1 CO4      0.044533
     46 H2'        -0.7970   -0.8120    0.6720 ha        1 CO4      0.142500
     47 H9'1        3.7780   -1.4630    1.8540 h1        1 CO4      0.041033
     48 H9'2        3.7230   -0.9790    0.0970 h1        1 CO4      0.041033
     49 H9'3        3.3240    0.2410    1.3900 h1        1 CO4      0.041033
     50 H511       -0.9930   -3.0310   -2.0860 hc        1 CO4      0.056367
     51 H512        0.0410   -3.1380   -3.5930 hc        1 CO4      0.056367
     52 H513        0.7710   -3.4010   -1.9800 hc        1 CO4      0.056367
@<TRIPOS>BOND
     1    1    2 1   
     2    1   29 1   
     3    1   30 1   
     4    2    3 ar  
     5    2   12 ar  
     6    3    4 ar  
     7    4    5 1   
     8    4    6 ar  
     9    5   31 1   
    10    5   32 1   
    11    6    7 ar  
    12    6   11 ar  
    13    7    8 ar  
    14    7   28 1   
    15    8    9 ar  
    16    8   13 1   
    17    9   10 ar  
    18    9   33 1   
    19   10   11 ar  
    20   11   12 ar  
    21   13   14 1   
    22   13   34 1   
    23   13   35 1   
    24   14   15 1   
    25   14   27 1   
    26   15   16 ar  
    27   15   26 ar  
    28   16   17 ar  
    29   16   36 1   
    30   17   18 1   
    31   17   20 ar  
    32   18   19 1   
    33   19   37 1   
    34   19   38 1   
    35   19   39 1   
    36   20   21 1   
    37   20   23 ar  
    38   21   22 1   
    39   22   40 1   
    40   22   41 1   
    41   22   42 1   
    42   23   24 1   
    43   23   26 ar  
    44   24   25 1   
    45   25   43 1   
    46   25   44 1   
    47   25   45 1   
    48   26   46 1   
    49   27   47 1   
    50   27   48 1   
    51   27   49 1   
    52   28   50 1   
    53   28   51 1   
    54   28   52 1   
@<TRIPOS>SUBSTRUCTURE
     1 CO4         1 TEMP              0 ****  ****    0 ROOT
