@<TRIPOS>MOLECULE
CO9
   58    54     1     0     0
SMALL
bcc


@<TRIPOS>ATOM
      1 C1         -1.7170   -1.6340   -0.6050 c1        1 CO9     -0.001000
      2 N1         -0.5510    0.4270   -1.0590 n4        1 CO9     -0.071000
      3 O1          2.8760    0.1550    3.5670 o         1 CO9     -0.312000
      4 C2         -0.3860   -1.0670   -0.8210 c3        1 CO9     -0.041000
      5 N2          0.5940   -0.8160    1.5310 n2        1 CO9     -0.058000
      6 C3          0.5910   -1.2780    0.2760 c2        1 CO9     -0.146000
      7 N3          1.9300   -1.7220    4.5420 n         1 CO9     -0.262000
      8 C4          1.7630   -1.3200    2.1100 c2        1 CO9     -0.143000
      9 N4          4.2690   -4.5310    7.0960 n3        1 CO9     -0.398000
     10 C5          2.2480   -0.9120    3.4670 c2        1 CO9      0.386000
     11 N5          6.7850   -1.0870    9.2780 n3        1 CO9     -0.095000
     12 O5          1.7120   -2.0770   -0.0110 os        1 CO9     -0.090000
     13 C6          1.2170   -2.9730    4.3870 c3        1 CO9     -0.021000
     14 C7          2.0520   -4.1690    3.9580 c3        1 CO9     -0.243000
     15 C8          2.0430   -1.0420    6.8700 c2        1 CO9     -0.124000
     16 C9          2.6430   -1.5360    5.7690 c2        1 CO9     -0.079000
     17 C10         4.0890   -1.9110    5.8340 c2        1 CO9      0.226000
     18 C11         7.1440   -4.5760    7.7960 c1        1 CO9      0.124000
     19 C12         7.8740   -3.5000    7.6480 c2        1 CO9     -0.445000
     20 C13         7.4140   -2.1830    7.1080 c3        1 CO9     -0.034000
     21 C14         6.5120   -1.4590    8.0600 c1        1 CO9     -0.127000
     22 C15         7.9760   -1.2820   10.0210 c2        1 CO9     -0.191000
     23 C16         8.2310   -0.7670   11.2050 c1        1 CO9      0.174000
     24 C17         8.5160   -0.2920   12.3530 c1        1 CO9     -0.500000
     25 C18         8.8110    0.1850   13.5120 c1        1 CO9      0.309000
     26 C19         8.7150   -0.8160    5.4890 c2        1 CO9     -0.178000
     27 C20         8.5720   -1.3280    6.7080 c2        1 CO9     -0.187000
     28 C21         6.6440   -6.9820    8.2910 c1        1 CO9      0.452000
     29 C22         2.4450   -2.0990    1.1690 c2        1 CO9     -0.007000
     30 H11A        1.5240   -0.3060   -3.7960 ha        1 CO9      0.002000
     31 H12         0.0320   -1.5180   -1.7900 hx        1 CO9      0.212000
     32 H13         1.0810   -0.2740   -3.2830 ha        1 CO9      0.002000
     33 HN11       -1.4260    0.5780   -1.5790 hn        1 CO9      0.265667
     34 HN12        0.2470    0.7910   -1.5870 hn        1 CO9      0.265667
     35 H2         -1.8260   -2.6730   -0.2780 ha        1 CO9      0.148000
     36 HN4         4.6000   -1.6380    6.7910 h4        1 CO9      0.164000
     37 H61         0.3860   -2.8120    3.6430 h1        1 CO9      0.096000
     38 H62         0.7430   -3.2030    5.3860 h1        1 CO9      0.096000
     39 H71         2.6030   -0.9210    7.8080 ha        1 CO9      0.137500
     40 H72         1.4290   -5.0920    4.0330 hc        1 CO9      0.089333
     41 H81         2.9530   -4.2850    4.6120 hc        1 CO9      0.089333
     42 H82         2.4000   -4.0550    2.9020 hc        1 CO9      0.089333
     43 H9          0.9870   -0.7460    6.9050 ha        1 CO9      0.137500
     44 H11         5.0140   -4.3870    6.4420 hn        1 CO9      0.134000
     45 H121        4.6730   -4.6410    8.0070 hn        1 CO9      0.134000
     46 H122        8.9540   -3.5610    7.9050 ha        1 CO9      0.205000
     47 H14         6.7670   -2.3860    6.1960 hc        1 CO9      0.147000
     48 H16         8.7320   -1.9310    9.5320 h4        1 CO9      0.192000
     49 H17         9.5720   -0.1830    5.2210 ha        1 CO9      0.123000
     50 H18         7.9910   -0.9870    4.6800 ha        1 CO9      0.123000
     51 H19         9.3140   -1.1400    7.5010 ha        1 CO9      0.121000
     52 H22         3.3650   -2.6840    1.1510 h4        1 CO9      0.247000
     53 O4          7.7680   -7.0650    8.6750 o         1 CO9     -0.231000
     54 O2          4.6810   -2.4810    4.9140 o         1 CO9     -0.327000
     55 O3          5.5090   -6.9930    7.9250 o         1 CO9     -0.231000
     56 H131       -0.6160    0.9220   -0.1610 hn        1 CO9      0.265667
     57 H42         3.8140   -5.3910    6.8620 hn        1 CO9      0.134000
     58 HN5         6.0600   -0.5920    9.7630 hn        1 CO9      0.253000
@<TRIPOS>BOND
     1    1    4 1   
     2    1   35 1   
     3    2    4 1   
     4    2   33 1   
     5    2   34 1   
     6    2   56 1   
     7    3   10 1   
     8    4    6 1   
     9    4   31 1   
    10    5    6 1   
    11    5    8 1   
    12    6   12 1   
    13    7   10 1   
    14    7   13 1   
    15    7   16 1   
    16    8   10 1   
    17    8   29 1   
    18    9   44 1   
    19    9   45 1   
    20    9   57 1   
    21   11   21 1   
    22   11   22 1   
    23   11   58 1   
    24   12   29 1   
    25   13   14 1   
    26   13   37 1   
    27   13   38 1   
    28   14   40 1   
    29   14   41 1   
    30   14   42 1   
    31   15   16 1   
    32   15   39 1   
    33   15   43 1   
    34   16   17 1   
    35   17   36 1   
    36   17   54 1   
    37   18   19 1   
    38   19   20 1   
    39   19   46 1   
    40   20   21 1   
    41   20   27 1   
    42   20   47 1   
    43   22   23 1   
    44   22   48 1   
    45   23   24 1   
    46   24   25 1   
    47   26   27 1   
    48   26   49 1   
    49   26   50 1   
    50   27   51 1   
    51   28   53 1   
    52   28   55 1   
    53   29   52 1   
    54   30   32 1   
@<TRIPOS>SUBSTRUCTURE
     1 CO9         1 TEMP              0 ****  ****    0 ROOT
