@<TRIPOS>MOLECULE
CO9
   56    59     1     0     0
SMALL
bcc


@<TRIPOS>ATOM
      1 C1          5.7870   -6.0820    1.3030 c3        1 CO9     -0.087100
      2 N1          6.5390   -4.1020    2.5870 n3        1 CO9     -0.912800
      3 O1          2.1300   -2.4680   -2.3280 o         1 CO9     -0.602100
      4 C2          6.2290   -4.6190    1.2620 c3        1 CO9      0.164200
      5 N2          3.9560   -4.0640    0.1360 nc        1 CO9     -0.632000
      6 C3          5.1720   -3.7820    0.5970 cd        1 CO9      0.471700
      7 N3          1.0120   -2.8940   -0.3570 n         1 CO9     -0.423800
      8 C4          3.4740   -2.8620   -0.4180 cc        1 CO9      0.186500
      9 N4         -1.0470   -0.1520   -1.7940 n         1 CO9     -0.508900
     10 C5          2.1630   -2.7080   -1.1050 c         1 CO9      0.626600
     11 N5          2.4070   -0.2320   -4.4160 na        1 CO9     -0.182400
     12 O5          5.5240   -2.4280    0.3850 os        1 CO9     -0.398800
     13 C6          1.0470   -3.1580    1.0730 c3        1 CO9      0.083000
     14 C7         -0.3610   -2.8890    1.6290 c3        1 CO9     -0.086400
     15 C8         -1.2110   -2.4260    0.4500 c3        1 CO9     -0.084400
     16 C9         -0.2360   -2.2300   -0.7310 c3        1 CO9      0.017700
     17 C10        -0.0810   -0.7070   -1.0050 c         1 CO9      0.630100
     18 C11        -1.1250    1.2640   -2.0880 c3        1 CO9     -0.048300
     19 C12        -0.7300    1.5900   -3.5410 c3        1 CO9     -0.010200
     20 C13         0.6200    1.1390   -3.9070 cc        1 CO9     -0.111400
     21 C14         1.0530   -0.1760   -4.0310 cd        1 CO9     -0.099100
     22 C15         2.8840    1.0890   -4.4440 ca        1 CO9     -0.062200
     23 C16         4.1570    1.5950   -4.7350 ca        1 CO9     -0.155000
     24 C17         4.3180    2.9750   -4.7620 ca        1 CO9     -0.134000
     25 C18         3.2470    3.8440   -4.5110 ca        1 CO9     -0.173000
     26 C19         1.9760    3.3590   -4.2210 ca        1 CO9     -0.080000
     27 C20         1.7730    1.9830   -4.1780 ca        1 CO9     -0.074800
     28 C21        -2.5820    1.8230   -1.8740 c         1 CO9      0.910600
     29 C22         4.4300   -1.8650   -0.2640 cd        1 CO9      0.218300
     30 H11A        5.5720   -6.4320    0.2660 hc        1 CO9      0.050033
     31 H12         6.5990   -6.7140    1.7370 hc        1 CO9      0.050033
     32 H13         4.8660   -6.2030    1.9220 hc        1 CO9      0.050033
     33 HN11        6.6910   -3.1140    2.5540 hn        1 CO9      0.360800
     34 HN12        7.3490   -4.5630    2.9480 hn        1 CO9      0.360800
     35 H2          7.1330   -4.5530    0.5720 h1        1 CO9      0.028700
     36 HN4        -1.9250   -0.6260   -1.8800 hn        1 CO9      0.325500
     37 H61         1.8050   -2.5060    1.5890 h1        1 CO9      0.050700
     38 H62         1.3410   -4.2320    1.2280 h1        1 CO9      0.050700
     39 H71        -0.3170   -2.1000    2.4200 hc        1 CO9      0.048700
     40 H72        -0.7820   -3.8160    2.0880 hc        1 CO9      0.048700
     41 H81        -1.9740   -3.1970    0.1830 hc        1 CO9      0.066200
     42 H82        -1.7490   -1.4740    0.6830 hc        1 CO9      0.066200
     43 H9         -0.6150   -2.7360   -1.6650 h1        1 CO9      0.082700
     44 H11        -0.4320    1.8210   -1.3950 h1        1 CO9      0.073700
     45 H121       -1.4810    1.1280   -4.2370 hc        1 CO9      0.058200
     46 H122       -0.8120    2.7060   -3.6440 hc        1 CO9      0.058200
     47 H14         0.5060   -1.1090   -3.8740 h4        1 CO9      0.174000
     48 H16         5.0000    0.9230   -4.9350 ha        1 CO9      0.117000
     49 H17         5.3100    3.3960   -4.9820 ha        1 CO9      0.109000
     50 H18         3.4200    4.9290   -4.5410 ha        1 CO9      0.115000
     51 H19         1.1390    4.0440   -4.0190 ha        1 CO9      0.141000
     52 H22         4.5000   -0.8080   -0.5080 h4        1 CO9      0.089100
     53 O4         -2.7020    3.0750   -1.8740 o         1 CO9     -0.829800
     54 O2          0.9070   -0.0860   -0.5510 o         1 CO9     -0.645100
     55 O3         -3.5250    0.9960   -1.7200 o         1 CO9     -0.829800
     56 HN5         2.9780   -0.9960   -4.1460 hn        1 CO9      0.288700
@<TRIPOS>BOND
     1    1    4 1   
     2    1   30 1   
     3    1   31 1   
     4    1   32 1   
     5    2    4 1   
     6    2   33 1   
     7    2   34 1   
     8    3   10 2   
     9    4    6 1   
    10    4   35 1   
    11    5    6 2   
    12    5    8 1   
    13    6   12 1   
    14    7   10 1   
    15    7   13 1   
    16    7   16 1   
    17    8   10 1   
    18    8   29 2   
    19    9   17 1   
    20    9   18 1   
    21    9   36 1   
    22   11   21 1   
    23   11   22 1   
    24   11   56 1   
    25   12   29 1   
    26   13   14 1   
    27   13   37 1   
    28   13   38 1   
    29   14   15 1   
    30   14   39 1   
    31   14   40 1   
    32   15   16 1   
    33   15   41 1   
    34   15   42 1   
    35   16   17 1   
    36   16   43 1   
    37   17   54 2   
    38   18   19 1   
    39   18   28 1   
    40   18   44 1   
    41   19   20 1   
    42   19   45 1   
    43   19   46 1   
    44   20   21 2   
    45   20   27 1   
    46   21   47 1   
    47   22   23 ar  
    48   22   27 ar  
    49   23   24 ar  
    50   23   48 1   
    51   24   25 ar  
    52   24   49 1   
    53   25   26 ar  
    54   25   50 1   
    55   26   27 ar  
    56   26   51 1   
    57   28   53 1   
    58   28   55 1   
    59   29   52 1   
@<TRIPOS>SUBSTRUCTURE
     1 CO9         1 TEMP              0 ****  ****    0 ROOT
