@<TRIPOS>MOLECULE
CO9
   56    52     1     0     0
SMALL
bcc


@<TRIPOS>ATOM
      1 C1         -3.5210    4.8650   -6.0290 c3        1 CO9     -0.093100
      2 N1         -2.3230    2.8220   -6.3910 n3        1 CO9     -0.898800
      3 O1          0.4920    3.9570   -0.5760 o         1 CO9     -0.583500
      4 C2         -2.1950    4.1520   -5.9020 c3        1 CO9      0.178200
      5 N2         -1.7190    3.2360   -3.4180 ne        1 CO9     -0.470700
      6 O2          1.5620    1.0740    0.1770 o         1 CO9     -0.618100
      7 C3         -1.7790    4.1170   -4.4490 c2        1 CO9      0.431600
      8 N3         -0.9620    2.2010   -0.4830 n3        1 CO9     -0.253400
      9 O3          0.5060   -2.0110    1.0830 o         1 CO9     -0.835300
     10 C4         -0.8190    3.6950   -2.5290 cg        1 CO9     -0.101000
     11 N4          1.1980    0.4650    2.3600 n         1 CO9     -0.485900
     12 O4          2.5530   -1.8590    0.3490 o         1 CO9     -0.835300
     13 C5         -0.3690    3.3090   -1.1370 c1        1 CO9      0.635500
     14 N5          3.7220   -4.3420    4.3920 ne        1 CO9     -0.485400
     15 O5         -0.9060    5.1300   -4.1890 os        1 CO9     -0.288200
     16 C6         -2.0530    1.2830   -1.0410 c3        1 CO9      0.031300
     17 C7         -2.1120    0.2810   -0.2350 c3        1 CO9     -0.085400
     18 C8         -1.6360    0.8110    1.1940 c3        1 CO9     -0.106400
     19 C9         -0.6250    1.6670    0.9750 c3        1 CO9     -0.037000
     20 C10         0.7860    1.0350    1.1120 c         1 CO9      0.631100
     21 C11         2.0310   -0.6930    2.3760 c3        1 CO9     -0.067300
     22 C12         1.8190   -1.4530    3.6730 c3        1 CO9     -0.007200
     23 C13         2.2840   -2.8950    3.5000 cf        1 CO9     -0.119000
     24 C14         3.4530   -3.0090    4.2280 c1        1 CO9      0.159500
     25 C15         2.7190   -5.0630    3.7660 cg        1 CO9      0.035000
     26 C16         2.5140   -6.4450    3.6050 c1        1 CO9     -0.074750
     27 C17         1.4160   -6.9050    2.8910 c1        1 CO9     -0.074750
     28 C18         0.5200   -6.0010    2.3350 c1        1 CO9     -0.074750
     29 C19         0.7230   -4.6360    2.4940 c1        1 CO9     -0.074750
     30 C20         1.8340   -4.1700    3.2160 ch        1 CO9     -0.109300
     31 C21         1.6800   -1.5790    1.2120 c         1 CO9      0.903600
     32 C22        -0.3140    4.8760   -3.0110 c1        1 CO9     -0.028400
     33 H11A       -3.5080    5.6800   -5.4860 hc        1 CO9      0.048700
     34 H12        -4.2400    4.2760   -5.7180 hc        1 CO9      0.048700
     35 H13        -3.6770    5.1010   -6.9680 hc        1 CO9      0.048700
     36 HN11       -1.5200    2.3900   -6.3120 hn        1 CO9      0.362800
     37 HN12       -2.5720    2.8430   -7.2730 hn        1 CO9      0.362800
     38 H2         -1.5190    4.6280   -6.4230 h1        1 CO9      0.078700
     39 HN4         0.9610    0.8660    3.1440 hn        1 CO9      0.290500
     40 HN5         4.4370   -4.6940    4.8370 DU        1 CO9      0.197000
     41 H61        -2.9140    1.7540   -1.0610 h1        1 CO9      0.043200
     42 H62        -1.8120    0.9800   -1.9410 h1        1 CO9      0.043200
     43 H71        -3.0330   -0.0500   -0.1790 hc        1 CO9      0.050700
     44 H72        -1.5170   -0.4320   -0.5430 hc        1 CO9      0.050700
     45 H81        -2.3740    1.2730    1.6430 hc        1 CO9      0.090200
     46 H82        -1.3270    0.0620    1.7420 hc        1 CO9      0.090200
     47 H9         -0.5920    2.3850    1.6390 h1        1 CO9      0.082700
     48 H11         2.9680   -0.4210    2.3070 h1        1 CO9      0.084700
     49 H121        0.8690   -1.4430    3.9050 hc        1 CO9      0.057200
     50 H122        2.3340   -1.0270    4.3880 hc        1 CO9      0.057200
     51 H14         3.9720   -2.2710    4.5970 DU        1 CO9      0.197000
     52 H16         3.1440   -7.0820    3.9960 ha        1 CO9      0.080000
     53 H17         1.2740   -7.8660    2.7800 ha        1 CO9      0.080000
     54 H18        -0.2520   -6.3250    1.8330 ha        1 CO9      0.080000
     55 H19         0.1000   -4.0010    2.0920 ha        1 CO9      0.080000
     56 H22         0.3190    5.4580   -2.5500 DU        1 CO9      0.197000
@<TRIPOS>BOND
     1    1    4 1   
     2    1   33 1   
     3    1   34 1   
     4    1   35 1   
     5    2    4 1   
     6    2   36 1   
     7    2   37 1   
     8    3   13 2   
     9    4    7 1   
    10    4   38 1   
    11    5    7 2   
    12    5   10 1   
    13    6   20 2   
    14    7   15 1   
    15    8   13 2   
    16    8   16 1   
    17    8   19 1   
    18    9   31 1   
    19   10   32 3   
    20   11   20 1   
    21   11   21 1   
    22   11   39 1   
    23   12   31 1   
    24   14   24 2   
    25   14   25 1   
    26   15   32 1   
    27   16   17 1   
    28   16   41 1   
    29   16   42 1   
    30   17   18 1   
    31   17   43 1   
    32   17   44 1   
    33   18   19 1   
    34   18   45 1   
    35   18   46 1   
    36   19   20 1   
    37   19   47 1   
    38   21   22 1   
    39   21   31 1   
    40   21   48 1   
    41   22   23 1   
    42   22   49 1   
    43   22   50 1   
    44   23   24 2   
    45   23   30 1   
    46   25   30 3   
    47   26   27 3   
    48   26   52 1   
    49   27   53 1   
    50   28   29 3   
    51   28   54 1   
    52   29   55 1   
@<TRIPOS>SUBSTRUCTURE
     1 CO9         1 TEMP              0 ****  ****    0 ROOT
