@<TRIPOS>MOLECULE
CO9
   58    53     1     0     0
SMALL
bcc


@<TRIPOS>ATOM
      1 C1          2.5580    2.3890    0.5380 c1        1 CO9      0.007000
      2 N1          0.7660   -2.0280    0.5680 n9        1 CO9     -0.413000
      3 O1          4.3570   -3.5870    3.8660 o         1 CO9     -0.302000
      4 C2          2.8570    1.4640    1.2390 c1        1 CO9     -0.203000
      5 N2          2.7570   -0.8570    2.1520 na        1 CO9     -0.109000
      6 C3          3.2290    0.4060    2.0660 c2        1 CO9      0.223000
      7 N3          2.0720   -3.5550    3.3310 n         1 CO9     -0.226000
      8 C4          3.4890   -1.5270    3.1590 c2        1 CO9     -0.215000
      9 N4          2.8670   -5.6460    6.9680 n9        1 CO9     -0.413000
     10 C5          3.3450   -2.9590    3.5150 c2        1 CO9      0.372000
     11 N5          7.0790    0.2130    5.8730 n7        1 CO9     -0.113000
     12 O5          4.2480    0.5770    2.9970 os        1 CO9     -0.052000
     13 C6          0.9230   -2.9300    3.9780 c3        1 CO9     -0.040000
     14 C7          0.6980   -3.2560    5.4530 c3        1 CO9     -0.189000
     15 C8          1.7040   -2.5980    6.3580 c3        1 CO9     -0.216000
     16 C9          2.0760   -4.9750    3.4320 c2        1 CO9     -0.300000
     17 C10         1.7210   -5.7510    2.4170 c1        1 CO9      0.275000
     18 C11         5.1990   -3.0980    7.6150 c1        1 CO9      0.185000
     19 C12         6.3050   -2.5220    7.2070 c2        1 CO9     -0.461000
     20 C13         6.7370   -2.2650    5.8000 c3        1 CO9      0.069000
     21 C14         6.4430   -0.8320    5.4390 c1        1 CO9     -0.120000
     22 C15         8.2160    0.2590    6.7880 c3        1 CO9     -0.134000
     23 C16         8.7270    1.6290    6.8950 c1        1 CO9     -0.074000
     24 C17         9.8260    1.9380    7.7030 c2        1 CO9     -0.534000
     25 C18        10.2780    3.1950    7.7890 c1        1 CO9      0.465000
     26 C19         9.2420   -2.9740    5.3900 c1        1 CO9     -0.144000
     27 C20         8.1150   -2.6240    5.5910 c1        1 CO9     -0.219000
     28 C21         3.7790   -3.3930    9.7210 c1        1 CO9      0.447000
     29 C22         4.4230   -0.6210    3.6720 c2        1 CO9     -0.070000
     30 H11A       -0.5440   -4.7770    1.6520 ha        1 CO9      0.001500
     31 H12         2.0030   -1.2840    1.5700 hn        1 CO9      0.351000
     32 H13        -1.1280   -4.4450    1.5620 ha        1 CO9      0.001500
     33 HN11        0.0720   -1.3820    0.2530 hn        1 CO9      0.150333
     34 HN12        0.3300   -2.7360    1.1270 hn        1 CO9      0.150333
     35 H2          2.2900    3.2110   -0.0870 ha        1 CO9      0.260000
     36 HN4         2.4560   -5.4440    4.3640 h4        1 CO9      0.225000
     37 H61         0.0200   -3.2790    3.3960 h1        1 CO9      0.088500
     38 H62         1.0070   -1.8140    3.8640 h1        1 CO9      0.088500
     39 H71         1.5520   -2.9400    7.4120 hc        1 CO9      0.077000
     40 H72        -0.3350   -2.9050    5.7210 hc        1 CO9      0.107500
     41 H81         1.6050   -1.4860    6.3270 hc        1 CO9      0.077000
     42 H82         0.7250   -4.3680    5.6060 hc        1 CO9      0.107500
     43 H9          2.7480   -2.8720    6.0590 hc        1 CO9      0.077000
     44 H11         3.2320   -6.5410    7.2190 hn        1 CO9      0.150333
     45 H121        3.5540   -4.9480    7.1740 hn        1 CO9      0.150333
     46 H122        7.0290   -2.2180    7.9950 ha        1 CO9      0.203000
     47 H14         6.1060   -2.8990    5.0920 hc        1 CO9      0.178000
     48 H16         7.8760   -0.1220    7.7990 h1        1 CO9      0.141000
     49 H17        10.3620    1.1630    8.2990 ha        1 CO9      0.179000
     50 H18        10.2400   -3.2890    5.2050 ha        1 CO9      0.239000
     51 H19         9.0140   -0.4520    6.4060 h1        1 CO9      0.141000
     52 H22         5.3660   -0.6770    4.5270 h4        1 CO9      0.360000
     53 O4          2.7980   -3.9460    9.3390 o         1 CO9     -0.223000
     54 O2          1.3590   -6.5000    1.5700 o         1 CO9     -0.126000
     55 O3          4.7420   -2.8360   10.1500 o         1 CO9     -0.223000
     56 H131        1.2000   -2.4570   -0.2250 hn        1 CO9      0.150333
     57 H42         2.0590   -5.4600    7.5290 hn        1 CO9      0.150333
     58 HN5         6.7920    1.1250    5.5460 hn        1 CO9      0.271000
@<TRIPOS>BOND
     1    1    4 1   
     2    1   35 1   
     3    2   33 1   
     4    2   34 1   
     5    2   56 1   
     6    3   10 1   
     7    4    6 1   
     8    5    6 1   
     9    5    8 1   
    10    5   31 1   
    11    6   12 1   
    12    7   10 1   
    13    7   13 1   
    14    7   16 1   
    15    8   10 1   
    16    8   29 1   
    17    9   44 1   
    18    9   45 1   
    19    9   57 1   
    20   11   21 1   
    21   11   22 1   
    22   11   58 1   
    23   12   29 1   
    24   13   14 1   
    25   13   37 1   
    26   13   38 1   
    27   14   15 1   
    28   14   40 1   
    29   14   42 1   
    30   15   39 1   
    31   15   41 1   
    32   15   43 1   
    33   16   17 1   
    34   16   36 1   
    35   17   54 1   
    36   18   19 1   
    37   19   20 1   
    38   19   46 1   
    39   20   21 1   
    40   20   27 1   
    41   20   47 1   
    42   22   23 1   
    43   22   48 1   
    44   22   51 1   
    45   23   24 1   
    46   24   25 1   
    47   24   49 1   
    48   26   27 1   
    49   26   50 1   
    50   28   53 1   
    51   28   55 1   
    52   29   52 1   
    53   30   32 1   
@<TRIPOS>SUBSTRUCTURE
     1 CO9         1 TEMP              0 ****  ****    0 ROOT
