@<TRIPOS>MOLECULE
COC
   43    45     1     0     0
SMALL
bcc


@<TRIPOS>ATOM
      1 C1          0.2740    0.4390    0.1540 c3        1 COC      0.121700
      2 O5          1.6730    0.6820    0.3080 os        1 COC     -0.408900
      3 C6          2.4020   -0.3160    0.8880 c         1 COC      0.657100
      4 O7          1.8150   -1.3530    1.2100 o         1 COC     -0.561000
      5 C8          3.8700   -0.0400    1.0640 c3        1 COC     -0.095700
      6 C10         4.1730    0.0720    2.5800 c3        1 COC      0.160500
      7 N12         3.4910    1.2850    3.0880 n3        1 COC     -0.694600
      8 C14         3.3120    1.2970    4.5190 c3        1 COC      0.144100
      9 C18         5.6980    0.3030    2.7740 c3        1 COC     -0.110400
     10 C21         5.8450    1.8270    2.7900 c3        1 COC     -0.115400
     11 C24         4.3940    2.3500    2.5830 c3        1 COC      0.157500
     12 C26         4.1270    2.5190    1.0800 c3        1 COC     -0.093400
     13 C29         4.3980    1.2090    0.3390 c3        1 COC      0.168100
     14 O1          3.7500    1.2290   -0.9450 os        1 COC     -0.424900
     15 C2          4.3720    1.9010   -1.9640 c         1 COC      0.651700
     16 O3          5.4840    2.3960   -1.7540 o         1 COC     -0.552000
     17 C4          3.5880    1.9210   -3.2080 ca        1 COC     -0.135600
     18 C5          4.1980    2.3830   -4.3820 ca        1 COC     -0.071000
     19 C7          3.4710    2.4140   -5.5700 ca        1 COC     -0.149000
     20 C9          2.1420    1.9890   -5.5890 ca        1 COC     -0.096000
     21 C11         1.5350    1.5330   -4.4190 ca        1 COC     -0.149000
     22 C13         2.2540    1.4970   -3.2250 ca        1 COC     -0.071000
     23 H2         -0.1040    1.3760   -0.3230 h1        1 COC      0.048700
     24 H3          0.1110   -0.4500   -0.5020 h1        1 COC      0.048700
     25 H4         -0.1970    0.2680    1.1520 h1        1 COC      0.048700
     26 H9          4.4080   -0.9420    0.6570 hc        1 COC      0.087700
     27 H11         3.8110   -0.8520    3.1020 h1        1 COC      0.087700
     28 H15         2.8080    2.2580    4.8030 h1        1 COC      0.037033
     29 H16         4.2710    1.2110    5.0990 h1        1 COC      0.037033
     30 H17         2.6440    0.4410    4.8020 h1        1 COC      0.037033
     31 H19         6.0300   -0.1440    3.7420 hc        1 COC      0.053700
     32 H20         6.2890   -0.1670    1.9540 hc        1 COC      0.053700
     33 H22         6.5210    2.1900    1.9810 hc        1 COC      0.055200
     34 H23         6.2490    2.1810    3.7690 hc        1 COC      0.055200
     35 H25         4.2180    3.3170    3.1190 h1        1 COC      0.071700
     36 H27         4.7940    3.3170    0.6670 hc        1 COC      0.072200
     37 H28         3.0600    2.8220    0.9110 hc        1 COC      0.072200
     38 H30         5.5090    1.0890    0.1850 h1        1 COC      0.070700
     39 H6          5.2470    2.7200   -4.3510 ha        1 COC      0.159000
     40 H8          3.9480    2.7760   -6.4930 ha        1 COC      0.138500
     41 H10         1.5720    2.0150   -6.5300 ha        1 COC      0.135000
     42 H12         0.4870    1.2000   -4.4360 ha        1 COC      0.138500
     43 H14         1.7840    1.1400   -2.2910 ha        1 COC      0.159000
@<TRIPOS>BOND
     1    1    2 1   
     2    1   23 1   
     3    1   24 1   
     4    1   25 1   
     5    2    3 1   
     6    3    4 2   
     7    3    5 1   
     8    5    6 1   
     9    5   13 1   
    10    5   26 1   
    11    6    7 1   
    12    6    9 1   
    13    6   27 1   
    14    7    8 1   
    15    7   11 1   
    16    8   28 1   
    17    8   29 1   
    18    8   30 1   
    19    9   10 1   
    20    9   31 1   
    21    9   32 1   
    22   10   11 1   
    23   10   33 1   
    24   10   34 1   
    25   11   12 1   
    26   11   35 1   
    27   12   13 1   
    28   12   36 1   
    29   12   37 1   
    30   13   14 1   
    31   13   38 1   
    32   14   15 1   
    33   15   16 2   
    34   15   17 1   
    35   17   18 ar  
    36   17   22 ar  
    37   18   19 ar  
    38   18   39 1   
    39   19   20 ar  
    40   19   40 1   
    41   20   21 ar  
    42   20   41 1   
    43   21   22 ar  
    44   21   42 1   
    45   22   43 1   
@<TRIPOS>SUBSTRUCTURE
     1 COC         1 TEMP              0 ****  ****    0 ROOT
