@<TRIPOS>MOLECULE
COC
   43    45     1     0     0
SMALL
bcc


@<TRIPOS>ATOM
      1 C1          0.2710    0.4510    0.1560 c3        1 COC      0.121700
      2 O5          1.6710    0.6890    0.3090 os        1 COC     -0.408900
      3 C6          2.3970   -0.3130    0.8860 c         1 COC      0.657100
      4 O7          1.8060   -1.3490    1.2070 o         1 COC     -0.561000
      5 C8          3.8660   -0.0420    1.0610 c3        1 COC     -0.095700
      6 C10         4.1700    0.0660    2.5780 c3        1 COC      0.160500
      7 N12         3.4940    1.2800    3.0880 n3        1 COC     -0.694600
      8 C14         3.3150    1.2910    4.5190 c3        1 COC      0.144100
      9 C18         5.6960    0.2910    2.7710 c3        1 COC     -0.110400
     10 C21         5.8490    1.8150    2.7890 c3        1 COC     -0.115400
     11 C24         4.4000    2.3420    2.5840 c3        1 COC      0.157500
     12 C26         4.1320    2.5150    1.0820 c3        1 COC     -0.093400
     13 C29         4.3980    1.2060    0.3390 c3        1 COC      0.168100
     14 O1          3.7490    1.2300   -0.9450 os        1 COC     -0.424900
     15 C2          4.3730    1.9000   -1.9640 c         1 COC      0.651700
     16 O3          5.4870    2.3900   -1.7550 o         1 COC     -0.552000
     17 C4          3.5880    1.9250   -3.2070 ca        1 COC     -0.135600
     18 C5          4.1990    2.3870   -4.3810 ca        1 COC     -0.071000
     19 C7          3.4720    2.4220   -5.5690 ca        1 COC     -0.149000
     20 C9          2.1410    2.0030   -5.5870 ca        1 COC     -0.096000
     21 C11         1.5320    1.5470   -4.4170 ca        1 COC     -0.149000
     22 C13         2.2520    1.5070   -3.2240 ca        1 COC     -0.071000
     23 H2         -0.2000    0.2810    1.1540 h1        1 COC      0.048700
     24 H3          0.1040   -0.4360   -0.5020 h1        1 COC      0.048700
     25 H4         -0.1040    1.3900   -0.3200 h1        1 COC      0.048700
     26 H9          4.4000   -0.9460    0.6530 hc        1 COC      0.087700
     27 H11         3.8060   -0.8580    3.0980 h1        1 COC      0.087700
     28 H15         4.2750    1.2000    5.0980 h1        1 COC      0.037033
     29 H16         2.6440    0.4370    4.8010 h1        1 COC      0.037033
     30 H17         2.8150    2.2530    4.8060 h1        1 COC      0.037033
     31 H19         6.2850   -0.1800    1.9500 hc        1 COC      0.053700
     32 H20         6.0270   -0.1590    3.7380 hc        1 COC      0.053700
     33 H22         6.2550    2.1650    3.7680 hc        1 COC      0.055200
     34 H23         6.5260    2.1760    1.9800 hc        1 COC      0.055200
     35 H25         4.2280    3.3090    3.1220 h1        1 COC      0.071700
     36 H27         3.0670    2.8230    0.9140 hc        1 COC      0.072200
     37 H28         4.8020    3.3110    0.6690 hc        1 COC      0.072200
     38 H30         5.5090    1.0820    0.1830 h1        1 COC      0.070700
     39 H6          5.2490    2.7190   -4.3510 ha        1 COC      0.159000
     40 H8          3.9490    2.7830   -6.4920 ha        1 COC      0.138500
     41 H10         1.5690    2.0320   -6.5270 ha        1 COC      0.135000
     42 H12         0.4830    1.2180   -4.4340 ha        1 COC      0.138500
     43 H14         1.7820    1.1510   -2.2900 ha        1 COC      0.159000
@<TRIPOS>BOND
     1    1    2 1   
     2    1   23 1   
     3    1   24 1   
     4    1   25 1   
     5    2    3 1   
     6    3    4 2   
     7    3    5 1   
     8    5    6 1   
     9    5   13 1   
    10    5   26 1   
    11    6    7 1   
    12    6    9 1   
    13    6   27 1   
    14    7    8 1   
    15    7   11 1   
    16    8   28 1   
    17    8   29 1   
    18    8   30 1   
    19    9   10 1   
    20    9   31 1   
    21    9   32 1   
    22   10   11 1   
    23   10   33 1   
    24   10   34 1   
    25   11   12 1   
    26   11   35 1   
    27   12   13 1   
    28   12   36 1   
    29   12   37 1   
    30   13   14 1   
    31   13   38 1   
    32   14   15 1   
    33   15   16 2   
    34   15   17 1   
    35   17   18 ar  
    36   17   22 ar  
    37   18   19 ar  
    38   18   39 1   
    39   19   20 ar  
    40   19   40 1   
    41   20   21 ar  
    42   20   41 1   
    43   21   22 ar  
    44   21   42 1   
    45   22   43 1   
@<TRIPOS>SUBSTRUCTURE
     1 COC         1 TEMP              0 ****  ****    0 ROOT
