@<TRIPOS>MOLECULE
COC
   43    43     1     0     0
SMALL
bcc


@<TRIPOS>ATOM
      1 C1         -4.0190   -0.0220    0.5790 c3        1 COC     -0.061000
      2 O5         -2.6990   -0.1000    0.0100 os        1 COC     -0.293000
      3 C6         -1.6720    0.2510    0.9020 c2        1 COC      0.329000
      4 O7         -1.6280    1.3500    1.3540 o         1 COC     -0.334000
      5 C8         -0.5610   -0.7350    1.2040 c3        1 COC     -0.083000
      6 C10        -0.1170   -0.5260    2.6120 c3        1 COC     -0.036000
      7 N12         0.8780    0.3360    2.7840 n3        1 COC     -0.219000
      8 C14         1.0980    0.5500    4.2040 c3        1 COC     -0.131000
      9 C18         0.5970   -1.8350    3.0380 c3        1 COC     -0.189000
     10 C21         2.1680   -1.4560    2.7360 c3        1 COC     -0.194000
     11 C24         2.0360   -0.0380    2.1890 c3        1 COC     -0.040000
     12 C26         1.9900   -0.1730    0.6790 c3        1 COC     -0.175000
     13 C29         0.5940   -0.5480    0.1020 c3        1 COC      0.056000
     14 O1          0.2080    0.4340   -0.7710 os        1 COC     -0.266000
     15 C2          0.9240    0.4100   -2.0350 c2        1 COC      0.355000
     16 O3          2.1270    0.1220   -2.0590 o         1 COC     -0.364000
     17 C4          0.1930    0.7530   -3.3380 c2        1 COC     -0.119000
     18 C5          0.5640    1.8710   -4.0650 c2        1 COC     -0.074000
     19 C7          0.0030    2.1050   -5.3100 c1        1 COC     -0.150000
     20 C9         -0.9250    1.2230   -5.8250 c1        1 COC     -0.123500
     21 C11        -1.2960    0.1050   -5.0980 c1        1 COC     -0.123500
     22 C13        -0.7380   -0.1300   -3.8570 c1        1 COC     -0.066000
     23 H2         -4.6570   -0.5150    0.0010 h1        1 COC      0.087333
     24 H3         -4.2950    0.9260    0.6420 h1        1 COC      0.087333
     25 H4         -4.0130   -0.4280    1.4920 h1        1 COC      0.087333
     26 H9         -0.9160   -1.6310    1.1260 hc        1 COC      0.126000
     27 H11        -0.9130   -0.3150    3.2350 h1        1 COC      0.125000
     28 H15         0.8980    1.5400    4.4400 h1        1 COC      0.076000
     29 H16         2.0630    0.3360    4.4330 h1        1 COC      0.076000
     30 H17         0.4990   -0.0370    4.7210 h1        1 COC      0.076000
     31 H19         0.4570   -2.0190    3.9800 hc        1 COC      0.092500
     32 H20         0.3030   -2.6000    2.4760 hc        1 COC      0.092500
     33 H22         2.5510   -2.0570    2.0600 hc        1 COC      0.094500
     34 H23         2.7130   -1.4690    3.5860 hc        1 COC      0.094500
     35 H25         2.7830    0.5210    2.4770 h1        1 COC      0.112000
     36 H27         2.2680    0.6730    0.2850 hc        1 COC      0.113500
     37 H28         2.6170   -0.8510    0.4160 hc        1 COC      0.113500
     38 H30         0.6810   -1.3750   -0.3900 h1        1 COC      0.110000
     39 H6          1.2120    2.4860   -3.7050 ha        1 COC      0.153000
     40 H8          0.2660    2.8970   -5.8250 ha        1 COC      0.138000
     41 H10        -1.3200    1.3890   -6.7030 ha        1 COC      0.136500
     42 H12        -1.9220   -0.4890   -5.4460 ha        1 COC      0.136500
     43 H14        -1.0030   -0.9280   -3.3390 ha        1 COC      0.174000
@<TRIPOS>BOND
     1    1    2 1   
     2    1   23 1   
     3    1   24 1   
     4    1   25 1   
     5    2    3 1   
     6    3    4 1   
     7    3    5 1   
     8    5    6 1   
     9    5   13 1   
    10    5   26 1   
    11    6    7 1   
    12    6    9 1   
    13    6   27 1   
    14    7    8 1   
    15    7   11 1   
    16    8   28 1   
    17    8   29 1   
    18    8   30 1   
    19    9   10 1   
    20    9   31 1   
    21    9   32 1   
    22   10   11 1   
    23   10   33 1   
    24   10   34 1   
    25   11   12 1   
    26   11   35 1   
    27   12   13 1   
    28   12   36 1   
    29   12   37 1   
    30   13   14 1   
    31   13   38 1   
    32   14   15 1   
    33   15   16 1   
    34   15   17 1   
    35   17   18 1   
    36   17   22 1   
    37   18   19 1   
    38   18   39 1   
    39   19   40 1   
    40   20   21 1   
    41   20   41 1   
    42   21   42 1   
    43   22   43 1   
@<TRIPOS>SUBSTRUCTURE
     1 COC         1 TEMP              0 ****  ****    0 ROOT
