@<TRIPOS>MOLECULE
COC
   43    45     1     0     0
SMALL
bcc


@<TRIPOS>ATOM
      1 C1          3.2150    0.5580   -0.1730 c3        1 COC      0.121700
      2 O5          1.8440    0.2490   -0.4300 os        1 COC     -0.408900
      3 C6          1.6040   -0.8340   -1.2250 c         1 COC      0.657100
      4 O7          2.5740   -1.4770   -1.6390 o         1 COC     -0.561000
      5 C8          0.1580   -1.1360   -1.5060 c3        1 COC     -0.095700
      6 C10        -0.1160   -0.8830   -3.0110 c3        1 COC      0.160500
      7 N12         0.0260    0.5710   -3.2570 n3        1 COC     -0.694600
      8 C14         0.2310    0.9100   -4.6440 c3        1 COC      0.144100
      9 C18        -1.5950   -1.2450   -3.3220 c3        1 COC     -0.110400
     10 C21        -2.3520    0.0710   -3.1210 c3        1 COC     -0.115400
     11 C24        -1.2480    1.0800   -2.6910 c3        1 COC      0.157500
     12 C26        -1.1210    1.0680   -1.1610 c3        1 COC     -0.093400
     13 C29        -0.8560   -0.3520   -0.6580 c3        1 COC      0.168100
     14 O1         -0.3140   -0.3080    0.6730 os        1 COC     -0.424900
     15 C2         -1.1880   -0.1340    1.7140 c         1 COC      0.651700
     16 O3         -2.3980   -0.0930    1.4700 o         1 COC     -0.552000
     17 C4         -0.5200   -0.0290    3.0200 ca        1 COC     -0.135600
     18 C5         -1.3020   -0.0670    4.1820 ca        1 COC     -0.071000
     19 C7         -0.6900    0.0360    5.4290 ca        1 COC     -0.149000
     20 C9          0.6960    0.1790    5.5190 ca        1 COC     -0.096000
     21 C11         1.4730    0.2200    4.3610 ca        1 COC     -0.149000
     22 C13         0.8700    0.1170    3.1080 ca        1 COC     -0.071000
     23 H2          3.7050   -0.2950    0.3540 h1        1 COC      0.048700
     24 H3          3.7450    0.7710   -1.1310 h1        1 COC      0.048700
     25 H4          3.1610    1.4650    0.4770 h1        1 COC      0.048700
     26 H9          0.0230   -2.2350   -1.2970 hc        1 COC      0.087700
     27 H11         0.6080   -1.4770   -3.6270 h1        1 COC      0.087700
     28 H15         0.3070    2.0260   -4.7260 h1        1 COC      0.037033
     29 H16         1.1980    0.4560   -4.9840 h1        1 COC      0.037033
     30 H17        -0.5910    0.5560   -5.3240 h1        1 COC      0.037033
     31 H19        -1.9680   -2.0500   -2.6470 hc        1 COC      0.053700
     32 H20        -1.6850   -1.6050   -4.3750 hc        1 COC      0.053700
     33 H22        -3.1420   -0.0160   -2.3400 hc        1 COC      0.055200
     34 H23        -2.8340    0.4050   -4.0710 hc        1 COC      0.055200
     35 H25        -1.4650    2.1160   -3.0540 h1        1 COC      0.071700
     36 H27        -2.0680    1.4470   -0.7010 hc        1 COC      0.072200
     37 H28        -0.2770    1.7340   -0.8400 hc        1 COC      0.072200
     38 H30        -1.8260   -0.9290   -0.6380 h1        1 COC      0.070700
     39 H6         -2.3960   -0.1750    4.0960 ha        1 COC      0.159000
     40 H8         -1.3010    0.0050    6.3430 ha        1 COC      0.138500
     41 H10         1.1760    0.2590    6.5060 ha        1 COC      0.135000
     42 H12         2.5640    0.3340    4.4340 ha        1 COC      0.138500
     43 H14         1.4730    0.1510    2.1840 ha        1 COC      0.159000
@<TRIPOS>BOND
     1    1    2 1   
     2    1   23 1   
     3    1   24 1   
     4    1   25 1   
     5    2    3 1   
     6    3    4 2   
     7    3    5 1   
     8    5    6 1   
     9    5   13 1   
    10    5   26 1   
    11    6    7 1   
    12    6    9 1   
    13    6   27 1   
    14    7    8 1   
    15    7   11 1   
    16    8   28 1   
    17    8   29 1   
    18    8   30 1   
    19    9   10 1   
    20    9   31 1   
    21    9   32 1   
    22   10   11 1   
    23   10   33 1   
    24   10   34 1   
    25   11   12 1   
    26   11   35 1   
    27   12   13 1   
    28   12   36 1   
    29   12   37 1   
    30   13   14 1   
    31   13   38 1   
    32   14   15 1   
    33   15   16 2   
    34   15   17 1   
    35   17   18 ar  
    36   17   22 ar  
    37   18   19 ar  
    38   18   39 1   
    39   19   20 ar  
    40   19   40 1   
    41   20   21 ar  
    42   20   41 1   
    43   21   22 ar  
    44   21   42 1   
    45   22   43 1   
@<TRIPOS>SUBSTRUCTURE
     1 COC         1 TEMP              0 ****  ****    0 ROOT
