@<TRIPOS>MOLECULE
COC
   43    45     1     0     0
SMALL
bcc


@<TRIPOS>ATOM
      1 C1          0.2720    0.4470    0.1560 c3        1 COC      0.121700
      2 O5          1.6720    0.6860    0.3090 os        1 COC     -0.408900
      3 C6          2.3990   -0.3160    0.8830 c         1 COC      0.657100
      4 O7          1.8090   -1.3540    1.2010 o         1 COC     -0.561000
      5 C8          3.8680   -0.0450    1.0570 c3        1 COC     -0.095700
      6 C10         4.1740    0.0590    2.5740 c3        1 COC      0.160500
      7 N12         3.4960    1.2720    3.0880 n3        1 COC     -0.694600
      8 C14         3.3190    1.2780    4.5190 c3        1 COC      0.144100
      9 C18         5.6990    0.2850    2.7660 c3        1 COC     -0.110400
     10 C21         5.8510    1.8090    2.7890 c3        1 COC     -0.115400
     11 C24         4.4010    2.3360    2.5870 c3        1 COC      0.157500
     12 C26         4.1320    2.5130    1.0850 c3        1 COC     -0.093400
     13 C29         4.3980    1.2060    0.3380 c3        1 COC      0.168100
     14 O1          3.7480    1.2330   -0.9450 os        1 COC     -0.424900
     15 C2          4.3710    1.9070   -1.9630 c         1 COC      0.651700
     16 O3          5.4850    2.3970   -1.7530 o         1 COC     -0.552000
     17 C4          3.5850    1.9350   -3.2050 ca        1 COC     -0.135600
     18 C5          4.1940    2.4000   -4.3780 ca        1 COC     -0.071000
     19 C7          3.4660    2.4380   -5.5650 ca        1 COC     -0.149000
     20 C9          2.1350    2.0180   -5.5840 ca        1 COC     -0.096000
     21 C11         1.5280    1.5590   -4.4140 ca        1 COC     -0.149000
     22 C13         2.2490    1.5160   -3.2220 ca        1 COC     -0.071000
     23 H2         -0.1040    1.3880   -0.3170 h1        1 COC      0.048700
     24 H3         -0.1980    0.2740    1.1540 h1        1 COC      0.048700
     25 H4          0.1060   -0.4380   -0.5040 h1        1 COC      0.048700
     26 H9          4.4030   -0.9470    0.6460 hc        1 COC      0.087700
     27 H11         3.8100   -0.8660    3.0920 h1        1 COC      0.087700
     28 H15         2.6490    0.4230    4.8000 h1        1 COC      0.037033
     29 H16         4.2790    1.1860    5.0970 h1        1 COC      0.037033
     30 H17         2.8180    2.2390    4.8090 h1        1 COC      0.037033
     31 H19         6.0320   -0.1670    3.7320 hc        1 COC      0.053700
     32 H20         6.2880   -0.1820    1.9430 hc        1 COC      0.053700
     33 H22         6.2580    2.1580    3.7680 hc        1 COC      0.055200
     34 H23         6.5270    2.1740    1.9800 hc        1 COC      0.055200
     35 H25         4.2280    3.3010    3.1270 h1        1 COC      0.071700
     36 H27         4.8010    3.3110    0.6730 hc        1 COC      0.072200
     37 H28         3.0660    2.8200    0.9190 hc        1 COC      0.072200
     38 H30         5.5090    1.0830    0.1810 h1        1 COC      0.070700
     39 H6          5.2440    2.7330   -4.3480 ha        1 COC      0.159000
     40 H8          3.9420    2.8020   -6.4880 ha        1 COC      0.138500
     41 H10         1.5630    2.0500   -6.5230 ha        1 COC      0.135000
     42 H12         0.4790    1.2300   -4.4310 ha        1 COC      0.138500
     43 H14         1.7800    1.1570   -2.2880 ha        1 COC      0.159000
@<TRIPOS>BOND
     1    1    2 1   
     2    1   23 1   
     3    1   24 1   
     4    1   25 1   
     5    2    3 1   
     6    3    4 2   
     7    3    5 1   
     8    5    6 1   
     9    5   13 1   
    10    5   26 1   
    11    6    7 1   
    12    6    9 1   
    13    6   27 1   
    14    7    8 1   
    15    7   11 1   
    16    8   28 1   
    17    8   29 1   
    18    8   30 1   
    19    9   10 1   
    20    9   31 1   
    21    9   32 1   
    22   10   11 1   
    23   10   33 1   
    24   10   34 1   
    25   11   12 1   
    26   11   35 1   
    27   12   13 1   
    28   12   36 1   
    29   12   37 1   
    30   13   14 1   
    31   13   38 1   
    32   14   15 1   
    33   15   16 2   
    34   15   17 1   
    35   17   18 ar  
    36   17   22 ar  
    37   18   19 ar  
    38   18   39 1   
    39   19   20 ar  
    40   19   40 1   
    41   20   21 ar  
    42   20   41 1   
    43   21   22 ar  
    44   21   42 1   
    45   22   43 1   
@<TRIPOS>SUBSTRUCTURE
     1 COC         1 TEMP              0 ****  ****    0 ROOT
