@<TRIPOS>MOLECULE
COE
   53    55     1     0     0
SMALL
bcc


@<TRIPOS>ATOM
      1 N1         -1.4950   -0.7450   -0.0600 n2        1 COE     -0.214000
      2 C2         -0.2240   -0.4100   -0.5680 c2        1 COE      0.175000
      3 NA2        -0.1150   -0.3450   -1.9670 nv        1 COE     -0.316000
      4 N3          0.9240   -0.1880    0.1610 n2        1 COE     -0.292000
      5 C4          0.8600   -0.3700    1.5280 c2        1 COE      0.222000
      6 N4          2.0020   -0.2480    2.3080 nv        1 COE     -0.330000
      7 C4A        -0.3640   -0.7340    2.1310 c2        1 COE     -0.314000
      8 C6         -0.8090   -0.9800    3.5370 c3        1 COE      0.005000
      9 C7         -2.3070   -1.2480    3.3400 c1        1 COE      0.003000
     10 O8         -2.6440   -1.1940    2.0690 os        1 COE     -0.054000
     11 C8A        -1.4830   -0.8830    1.2670 c2        1 COE      0.098000
     12 C9         -0.5700    0.1550    4.4320 c2        1 COE     -0.745000
     13 N10        -1.2550    0.2110    5.6780 nx        1 COE      0.213000
     14 C10        -0.3440   -0.0790    6.8250 c3        1 COE     -0.184000
     15 C11        -3.1960    4.0230    6.2130 c2        1 COE     -0.199000
     16 C12        -3.9140    2.9110    5.8650 c2        1 COE      0.026000
     17 C13        -3.2720    1.6350    5.6950 c2        1 COE     -0.170000
     18 C14        -1.9290    1.5100    5.8840 c2        1 COE     -0.075000
     19 C15        -1.0990    2.7000    6.2420 c3        1 COE     -0.191000
     20 C16        -1.7940    3.9630    6.4300 c1        1 COE     -0.054000
     21 O          -5.1790    5.3140    6.4600 o         1 COE     -0.433000
     22 N          -3.1730    6.4580    6.5300 ns        1 COE     -0.306000
     23 CA         -3.7410    7.7850    6.3910 c3        1 COE     -0.094000
     24 CB         -3.9640    8.4940    7.7320 c3        1 COE     -0.159000
     25 CG         -5.0420    7.8490    8.5820 c3        1 COE     -0.216000
     26 CD         -4.5520    7.3670    9.9110 c2        1 COE      0.307000
     27 OE1        -3.4010    6.6370    9.9980 oh        1 COE     -0.313000
     28 OE2        -5.1010    7.5300   11.0060 o         1 COE     -0.356000
     29 CT         -2.8280    8.7320    5.5140 c2        1 COE      0.335000
     30 O1         -1.6740    8.3350    5.2030 o         1 COE     -0.554000
     31 O2         -3.3450    9.8320    5.1910 o         1 COE     -0.554000
     32 HN21        0.6670    0.1610   -2.3160 hn        1 COE      0.215500
     33 HN22       -0.9680   -0.2050   -2.4590 hn        1 COE      0.215500
     34 HN41        2.7760    0.2390    1.9190 hn        1 COE      0.221500
     35 HN42        1.8170   -0.0910    3.2760 hn        1 COE      0.221500
     36 H7         -0.3440   -1.9300    3.9340 hc        1 COE      0.090000
     37 H91        -1.9820   -0.5220    5.6770 hn        1 COE      0.219000
     38 H92        -0.0630    1.0560    4.1040 hx        1 COE      0.151000
     39 H101        0.0100   -1.1370    6.7230 hx        1 COE      0.107667
     40 H102        0.5410    0.6030    6.7740 hx        1 COE      0.107667
     41 H103       -0.8870    0.0610    7.7950 hx        1 COE      0.107667
     42 H12        -3.9090    0.7850    5.3950 ha        1 COE      0.154000
     43 H13        -5.0090    2.9690    5.7150 ha        1 COE      0.173000
     44 H15        -0.5130    2.5080    7.1900 hc        1 COE      0.171500
     45 H16        -0.3320    2.8840    5.4250 hc        1 COE      0.171500
     46 HN         -2.1920    6.4060    6.3090 hn        1 COE      0.266000
     47 HA         -3.0030    6.5460    9.1190 ho        1 COE      0.246000
     48 HB1        -4.7370    7.7050    5.8660 h1        1 COE      0.106000
     49 HB2        -4.2660    9.5460    7.4760 hc        1 COE      0.104000
     50 HG1        -2.9960    8.5600    8.2950 hc        1 COE      0.104000
     51 HG2        -5.8730    8.5800    8.7660 hc        1 COE      0.127000
     52 H2         -5.4880    6.9640    8.0440 hc        1 COE      0.127000
     53 C          -3.9230    5.3260    6.3870 c2        1 COE      0.330000
@<TRIPOS>BOND
     1    1    2 1   
     2    1   11 1   
     3    2    3 1   
     4    2    4 1   
     5    3   32 1   
     6    3   33 1   
     7    4    5 1   
     8    5    6 1   
     9    5    7 1   
    10    6   34 1   
    11    6   35 1   
    12    7    8 1   
    13    7   11 1   
    14    8    9 1   
    15    8   12 1   
    16    8   36 1   
    17    9   10 1   
    18   10   11 1   
    19   12   13 1   
    20   12   38 1   
    21   13   14 1   
    22   13   18 1   
    23   13   37 1   
    24   14   39 1   
    25   14   40 1   
    26   14   41 1   
    27   15   16 1   
    28   15   20 1   
    29   15   53 1   
    30   16   17 1   
    31   16   43 1   
    32   17   18 1   
    33   17   42 1   
    34   18   19 1   
    35   19   20 1   
    36   19   44 1   
    37   19   45 1   
    38   21   53 1   
    39   22   23 1   
    40   22   46 1   
    41   22   53 1   
    42   23   24 1   
    43   23   29 1   
    44   23   48 1   
    45   24   25 1   
    46   24   49 1   
    47   24   50 1   
    48   25   26 1   
    49   25   51 1   
    50   25   52 1   
    51   26   27 1   
    52   26   28 1   
    53   27   47 1   
    54   29   30 1   
    55   29   31 1   
@<TRIPOS>SUBSTRUCTURE
     1 COE         1 TEMP              0 ****  ****    0 ROOT
