@<TRIPOS>MOLECULE
COE
   56    57     1     0     0
SMALL
bcc


@<TRIPOS>ATOM
      1 N1          0.7390   -0.3520    0.2800 n2        1 COE     -0.135000
      2 C2          1.5230   -0.9780   -0.7110 c2        1 COE     -0.259000
      3 NA2         1.2430   -0.5720   -2.1010 n4        1 COE      0.047000
      4 N3          2.4870   -1.9150   -0.5060 n2        1 COE     -0.039000
      5 C4          2.7140   -2.2640    0.7660 c2        1 COE     -0.231000
      6 N4          3.7400   -3.2730    1.0480 n4        1 COE      0.028000
      7 C4A         2.0020   -1.7080    1.9340 c2        1 COE      0.018000
      8 C6          2.2480   -2.0460    3.1760 c1        1 COE     -0.240000
      9 C7         -0.3810    0.9400    2.5730 c1        1 COE     -0.051000
     10 O8          0.2030   -0.1910    2.5830 os        1 COE     -0.001000
     11 C8A         0.9920   -0.7210    1.5100 c2        1 COE      0.022000
     12 C9          2.4570   -2.3490    4.4190 c2        1 COE     -0.092000
     13 N10        -1.9650    0.8160    5.1180 n3        1 COE     -0.239000
     14 C10        -2.0010   -0.5900    5.4140 c3        1 COE     -0.113000
     15 C11        -3.9540    3.7510    7.3410 c2        1 COE     -0.326000
     16 C12        -4.0480    2.3830    7.7110 c2        1 COE      0.118000
     17 C13        -3.3960    1.4140    6.9850 c2        1 COE     -0.324000
     18 C14        -2.6080    1.7430    5.8400 c2        1 COE      0.180000
     19 C15        -2.5010    3.1980    5.4310 c3        1 COE     -0.163000
     20 C16        -3.2170    4.1590    6.2510 c1        1 COE     -0.214000
     21 O          -5.3900    4.6250    9.0960 o         1 COE     -0.247000
     22 N          -4.4490    6.1660    7.6330 n4        1 COE     -0.133000
     23 CA         -6.4340   10.4470    7.3060 cx        1 COE     -0.018000
     24 CB         -5.5220   10.9370    8.3910 c3        1 COE     -0.170000
     25 CG         -5.3570    9.9040    9.4660 cx        1 COE     -0.018000
     26 CD         -4.0460    9.5410    9.9750 cu        1 COE      0.307500
     27 OE1        -2.9900    9.4970   10.5460 o         1 COE     -0.230000
     28 OE2        -4.6270    8.6700    9.0650 os        1 COE     -0.293000
     29 CT         -6.0530    9.3080    6.4790 cu        1 COE      0.307500
     30 O1         -5.8700   10.5390    5.9260 os        1 COE     -0.293000
     31 O2         -5.8130    8.1770    6.1200 o         1 COE     -0.230000
     32 HN21        1.4120    0.4350   -2.1960 hn        1 COE      0.260333
     33 HN22        0.2600   -0.7750   -2.3180 hn        1 COE      0.260333
     34 HN41        4.2110   -3.5910    0.1940 hn        1 COE      0.257333
     35 HN42        4.4280   -2.8590    1.6880 hn        1 COE      0.257333
     36 H7         -0.3390    1.6540    1.7340 ha        1 COE      0.096000
     37 H91        -1.4220    1.0930    4.3050 hn        1 COE      0.286000
     38 H92         3.1860   -1.8060    5.0450 ha        1 COE      0.155000
     39 H101       -1.3670   -1.1280    4.6590 h1        1 COE      0.109333
     40 H102       -1.5980   -0.7870    6.4440 h1        1 COE      0.109333
     41 H103       -3.0540   -0.9790    5.3570 h1        1 COE      0.109333
     42 H12        -3.4880    0.3610    7.2970 ha        1 COE      0.158000
     43 H13        -4.6540    2.0980    8.5930 ha        1 COE      0.167000
     44 H15        -2.8780    3.3160    4.3710 hc        1 COE      0.165500
     45 H16        -1.4120    3.5050    5.4260 hc        1 COE      0.165500
     46 HN         -5.3470    6.6510    7.5270 hn        1 COE      0.271000
     47 HA         -3.8880    6.6880    8.3110 hn        1 COE      0.271000
     48 HB1        -7.4910   10.7780    7.3650 h1        1 COE      0.177000
     49 HB2        -4.5270   11.2190    7.9480 hc        1 COE      0.145500
     50 HG1        -5.9550   11.8660    8.8560 hc        1 COE      0.145500
     51 HG2        -6.2640    9.6930   10.0720 h1        1 COE      0.177000
     52 HA23        1.8500   -1.0850   -2.7490 hn        1 COE      0.260333
     53 H43         3.2880   -4.0710    1.5100 hn        1 COE      0.257333
     54 H104        1.9210   -3.1690    4.9260 ha        1 COE      0.155000
     55 H2         -3.9540    6.1330    6.7200 hn        1 COE      0.271000
     56 C          -4.6580    4.7530    8.1180 c2        1 COE      0.341000
@<TRIPOS>BOND
     1    1    2 1   
     2    1   11 1   
     3    2    3 1   
     4    2    4 1   
     5    3   32 1   
     6    3   33 1   
     7    3   52 1   
     8    4    5 1   
     9    5    6 1   
    10    5    7 1   
    11    6   34 1   
    12    6   35 1   
    13    6   53 1   
    14    7    8 1   
    15    7   11 1   
    16    8   12 1   
    17    9   10 1   
    18    9   36 1   
    19   10   11 1   
    20   12   38 1   
    21   12   54 1   
    22   13   14 1   
    23   13   18 1   
    24   13   37 1   
    25   14   39 1   
    26   14   40 1   
    27   14   41 1   
    28   15   16 1   
    29   15   20 1   
    30   15   56 1   
    31   16   17 1   
    32   16   43 1   
    33   17   18 1   
    34   17   42 1   
    35   18   19 1   
    36   19   20 1   
    37   19   44 1   
    38   19   45 1   
    39   21   56 1   
    40   22   46 1   
    41   22   47 1   
    42   22   55 1   
    43   22   56 1   
    44   23   24 1   
    45   23   29 1   
    46   23   30 1   
    47   23   48 1   
    48   24   25 1   
    49   24   49 1   
    50   24   50 1   
    51   25   26 1   
    52   25   28 1   
    53   25   51 1   
    54   26   27 1   
    55   26   28 1   
    56   29   30 1   
    57   29   31 1   
@<TRIPOS>SUBSTRUCTURE
     1 COE         1 TEMP              0 ****  ****    0 ROOT
