@<TRIPOS>MOLECULE
COE
   52    54     1     0     0
SMALL
bcc


@<TRIPOS>ATOM
      1 N1         -0.6040    1.9680    5.9890 nb        1 COE     -0.757000
      2 C2         -1.7150    1.3340    6.5370 ca        1 COE      0.886900
      3 NA2        -2.3370    1.9840    7.6260 nh        1 COE     -0.911500
      4 N3         -2.2520    0.1130    6.1580 nb        1 COE     -0.831000
      5 C4         -1.5980   -0.6050    5.1910 ca        1 COE      0.745200
      6 N4         -2.0620   -1.8680    4.8450 nh        1 COE     -0.933500
      7 C4A        -0.4250   -0.0760    4.5820 ca        1 COE     -0.411400
      8 C6          0.5140   -0.4620    3.5470 cc        1 COE     -0.108400
      9 C7          1.3870    0.5900    3.4060 cd        1 COE     -0.028900
     10 O8          1.1040    1.6420    4.3050 os        1 COE     -0.307400
     11 C8A        -0.0140    1.2260    5.0290 ca        1 COE      0.635600
     12 C9          0.4900   -1.7600    2.8240 c3        1 COE      0.249000
     13 N10         1.6110   -2.1100    1.9780 nh        1 COE     -0.637000
     14 C10         2.8750   -2.2210    2.6580 c3        1 COE      0.177100
     15 C11         1.6620   -0.3560   -1.8800 ca        1 COE     -0.138600
     16 C12         2.6990   -0.0840   -0.9910 ca        1 COE     -0.084000
     17 C13         2.6860   -0.6250    0.2940 ca        1 COE     -0.176000
     18 C14         1.6350   -1.4730    0.6970 ca        1 COE      0.083600
     19 C15         0.5960   -1.7480   -0.2190 ca        1 COE     -0.176000
     20 C16         0.6060   -1.1900   -1.4930 ca        1 COE     -0.084000
     21 O           2.6150   -0.1090   -4.0520 o         1 COE     -0.654100
     22 N           0.6630    1.0590   -3.5950 n         1 COE     -0.485900
     23 CA          0.1730    1.2550   -4.9480 c3        1 COE     -0.037300
     24 CB         -1.0250    0.3410   -5.2690 c3        1 COE     -0.074400
     25 CG         -0.6780   -1.1320   -5.3180 c3        1 COE     -0.190400
     26 CD         -1.7280   -2.0130   -4.6330 c         1 COE      0.908600
     27 OE1        -1.7770   -2.0400   -3.3610 o         1 COE     -0.874800
     28 OE2        -2.4960   -2.7230   -5.3460 o         1 COE     -0.874800
     29 CT         -0.2810    2.7390   -5.1700 c         1 COE      0.917600
     30 O1          0.0110    3.2580   -6.2840 o         1 COE     -0.850800
     31 O2         -0.9130    3.3350   -4.2540 o         1 COE     -0.850800
     32 HN21       -3.2840    1.7190    7.7820 hn        1 COE      0.408300
     33 HN22       -2.1750    2.9660    7.6690 hn        1 COE      0.408300
     34 HN41       -2.9850   -2.1100    5.1260 hn        1 COE      0.423300
     35 HN42       -1.7900   -2.1840    3.9410 hn        1 COE      0.423300
     36 H7          2.2200    0.8070    2.7390 h4        1 COE      0.209000
     37 H91        -0.4400   -1.7800    2.1790 h1        1 COE      0.062700
     38 H92         0.4060   -2.5810    3.5980 h1        1 COE      0.062700
     39 H101        2.7660   -2.9690    3.4870 h1        1 COE      0.026700
     40 H102        3.6470   -2.5890    1.9330 h1        1 COE      0.026700
     41 H103        3.2350   -1.2530    3.1060 h1        1 COE      0.026700
     42 H12         3.5320    0.5600   -1.3080 ha        1 COE      0.188500
     43 H13         3.5130   -0.3900    0.9790 ha        1 COE      0.121000
     44 H15        -0.2330   -2.4180    0.0560 ha        1 COE      0.121000
     45 H16        -0.2220   -1.4210   -2.2120 ha        1 COE      0.188500
     46 HN         -0.0260    1.2420   -2.8980 hn        1 COE      0.310500
     47 HA          1.0150    1.0320   -5.6620 h1        1 COE      0.066700
     48 HB1        -1.8320    0.5170   -4.5090 hc        1 COE      0.046700
     49 HB2        -1.4270    0.6720   -6.2620 hc        1 COE      0.046700
     50 HG1        -0.5770   -1.4590   -6.3840 hc        1 COE      0.023200
     51 HG2         0.3060   -1.3250   -4.8160 hc        1 COE      0.023200
     52 C           1.6750    0.1930   -3.2800 c         1 COE      0.659700
@<TRIPOS>BOND
     1    1    2 ar  
     2    1   11 ar  
     3    2    3 1   
     4    2    4 ar  
     5    3   32 1   
     6    3   33 1   
     7    4    5 ar  
     8    5    6 1   
     9    5    7 ar  
    10    6   34 1   
    11    6   35 1   
    12    7    8 1   
    13    7   11 ar  
    14    8    9 2   
    15    8   12 1   
    16    9   10 1   
    17    9   36 1   
    18   10   11 1   
    19   12   13 1   
    20   12   37 1   
    21   12   38 1   
    22   13   14 1   
    23   13   18 1   
    24   14   39 1   
    25   14   40 1   
    26   14   41 1   
    27   15   16 ar  
    28   15   20 ar  
    29   15   52 1   
    30   16   17 ar  
    31   16   42 1   
    32   17   18 ar  
    33   17   43 1   
    34   18   19 ar  
    35   19   20 ar  
    36   19   44 1   
    37   20   45 1   
    38   21   52 2   
    39   22   23 1   
    40   22   46 1   
    41   22   52 1   
    42   23   24 1   
    43   23   29 1   
    44   23   47 1   
    45   24   25 1   
    46   24   48 1   
    47   24   49 1   
    48   25   26 1   
    49   25   50 1   
    50   25   51 1   
    51   26   27 1   
    52   26   28 1   
    53   29   30 1   
    54   29   31 1   
@<TRIPOS>SUBSTRUCTURE
     1 COE         1 TEMP              0 ****  ****    0 ROOT
