@<TRIPOS>MOLECULE
COE
   52    45     1     0     0
SMALL
bcc


@<TRIPOS>ATOM
      1 N1          0.1700   -6.2430   -3.6010 n1        1 COE     -0.242000
      2 C2          1.1470   -6.5130   -4.5260 c1        1 COE      0.172000
      3 NA2         0.9480   -7.5530   -5.4870 n2        1 COE     -0.321500
      4 N3          2.2580   -5.7240   -4.5980 n2        1 COE     -0.307000
      5 C4          2.3990   -4.6730   -3.7550 c1        1 COE      0.237000
      6 N4          3.5990   -3.9220   -3.7550 n2        1 COE     -0.321500
      7 C4A         1.4160   -4.4010   -2.8230 c1        1 COE     -0.280000
      8 C6          1.3020   -3.4180   -1.8360 c1        1 COE     -0.078000
      9 C7          0.1150   -3.6220   -1.1700 c1        1 COE     -0.079000
     10 O8         -0.5040   -4.7120   -1.7300 os        1 COE     -0.104000
     11 C8A         0.3070   -5.1930   -2.7550 c1        1 COE      0.138000
     12 C9          2.0000   -2.0520   -1.6440 c2        1 COE     -0.006000
     13 N10         1.9030   -1.6500   -0.2590 n3        1 COE     -0.228000
     14 C10         2.5720   -2.4330    0.7690 c3        1 COE     -0.110000
     15 C11         0.2900    2.1120    0.8400 c1        1 COE     -0.121000
     16 C12        -0.4520    0.9510    1.0460 c1        1 COE     -0.117000
     17 C13         0.0690   -0.2880    0.6640 c1        1 COE     -0.117000
     18 C14         1.3340   -0.3620    0.0760 c1        1 COE      0.002000
     19 C15         2.0730    0.7980   -0.1290 c1        1 COE     -0.201000
     20 C16         1.5510    2.0380    0.2530 c1        1 COE     -0.083000
     21 C          -0.2450    3.4860    1.3640 c2        1 COE      0.334000
     22 O           0.4020    4.4960    1.1840 o         1 COE     -0.419000
     23 N          -1.5360    3.5650    1.9880 n         1 COE     -0.293000
     24 CA         -1.9690    4.7970    2.5870 c3        1 COE     -0.064000
     25 CB         -3.4730    4.7310    2.8670 c3        1 COE     -0.155000
     26 CG         -4.0220    6.1420    3.0260 c3        1 COE     -0.220000
     27 CD         -5.3250    6.0970    3.8400 c2        1 COE      0.328000
     28 OE1        -5.2830    5.8830    5.0860 o         1 COE     -0.610500
     29 OE2        -6.4250    6.3900    3.2870 o         1 COE     -0.610500
     30 CT         -1.2390    5.0110    3.8610 c2        1 COE      0.338000
     31 O1         -0.5440    6.0390    4.0190 o         1 COE     -0.585500
     32 O2         -1.2990    4.1490    4.7710 o         1 COE     -0.585500
     33 HN21        1.6670   -7.9990   -5.8320 hn        1 COE      0.216250
     34 HN22        0.1030   -7.7390   -5.7920 hn        1 COE      0.216250
     35 HN41        3.8570   -3.4700   -4.5090 hn        1 COE      0.216250
     36 HN42        4.1200   -3.8890   -3.0010 hn        1 COE      0.216250
     37 H7         -0.2120   -3.1050   -0.4170 DU        1 COE      0.203000
     38 H91         1.5610   -1.3760   -2.2140 h4        1 COE      0.095000
     39 H92         2.9530   -2.1300   -1.8980 h4        1 COE      0.095000
     40 H101        3.4510   -2.0240    0.9770 h1        1 COE      0.067333
     41 H102        2.7070   -3.3580    0.4430 h1        1 COE      0.067333
     42 H103        2.0160   -2.4500    1.5840 h1        1 COE      0.067333
     43 H12        -1.3370    1.0030    1.4580 ha        1 COE      0.190000
     44 H13        -0.4890   -1.1040    0.7420 ha        1 COE      0.190000
     45 H15         2.9640    0.7460   -0.5430 ha        1 COE      0.109000
     46 H16         2.0680    2.8480    0.1100 ha        1 COE      0.135000
     47 HN         -2.0680    2.8400    2.0140 hn        1 COE      0.224000
     48 HA         -1.7800    5.5500    1.9690 h1        1 COE      0.105000
     49 HB1        -3.9240    4.2880    2.1200 hc        1 COE      0.086000
     50 HB2        -3.6310    4.2230    3.6920 hc        1 COE      0.086000
     51 HG1        -3.3660    6.6960    3.4920 hc        1 COE      0.063500
     52 HG2        -4.2010    6.5200    2.1480 hc        1 COE      0.063500
@<TRIPOS>BOND
     1    1    2 1   
     2    2    4 1   
     3    3   33 1   
     4    3   34 1   
     5    4    5 1   
     6    5    7 1   
     7    6   35 1   
     8    6   36 1   
     9    7   11 1   
    10    8    9 1   
    11    9   10 1   
    12   10   11 1   
    13   12   13 1   
    14   12   38 1   
    15   12   39 1   
    16   13   14 1   
    17   13   18 1   
    18   14   40 1   
    19   14   41 1   
    20   14   42 1   
    21   15   20 1   
    22   15   21 1   
    23   16   17 1   
    24   16   43 1   
    25   17   44 1   
    26   18   19 1   
    27   19   45 1   
    28   20   46 1   
    29   21   22 1   
    30   21   23 1   
    31   23   24 1   
    32   23   47 1   
    33   24   25 1   
    34   24   30 1   
    35   24   48 1   
    36   25   26 1   
    37   25   49 1   
    38   25   50 1   
    39   26   27 1   
    40   26   51 1   
    41   26   52 1   
    42   27   28 1   
    43   27   29 1   
    44   30   31 1   
    45   30   32 1   
@<TRIPOS>SUBSTRUCTURE
     1 COE         1 TEMP              0 ****  ****    0 ROOT
