@<TRIPOS>MOLECULE
COG
   46    48     1     0     0
SMALL
bcc


@<TRIPOS>ATOM
      1 C2B         0.6960    0.4360   -0.2270 ca        1 COG      0.878900
      2 C4B         0.1150    0.1490    2.0300 ca        1 COG      0.705200
      3 C4A         1.5340    0.1360    2.3860 ca        1 COG     -0.285600
      4 C5B         2.0120   -0.0100    3.7040 ca        1 COG     -0.156000
      5 C6B         3.3800   -0.0050    3.9890 ca        1 COG      0.138600
      6 C7B         4.2900    0.1320    2.8890 ca        1 COG     -0.130000
      7 C8A         2.4440    0.2980    1.3020 ca        1 COG      0.444600
      8 C21         8.6030   -0.6830    3.0520 c3        1 COG      0.113700
      9 C7'         5.2550   -0.2880    5.5630 c3        1 COG      0.247100
     10 C61         2.9350   -0.5380    6.3170 c3        1 COG      0.181100
     11 C1'         5.8080   -1.6430    5.2140 ca        1 COG     -0.108300
     12 C2'         6.9470   -1.7670    4.3840 ca        1 COG      0.100100
     13 C3'         7.4880   -3.0220    4.0930 ca        1 COG     -0.167000
     14 C4'         6.9050   -4.1740    4.6200 ca        1 COG     -0.165000
     15 C5'         5.7820   -4.0590    5.4410 ca        1 COG      0.095100
     16 C51         5.6180   -6.4180    5.7060 c3        1 COG      0.113700
     17 C6'         5.2360   -2.7960    5.7400 ca        1 COG     -0.120000
     18 N1'         2.0380    0.4660   -0.0010 nb        1 COG     -0.775000
     19 N2'         0.2440    0.4840   -1.5620 nh        1 COG     -0.915500
     20 N3'        -0.2960    0.2870    0.7550 nb        1 COG     -0.814000
     21 N4'        -0.8540    0.0860    3.0300 nh        1 COG     -0.937500
     22 C8'         3.8440    0.2840    1.6060 ca        1 COG     -0.172300
     23 O2'         7.4680   -0.5760    3.9030 os        1 COG     -0.335900
     24 O5'         5.1220   -5.1250    6.0280 os        1 COG     -0.327900
     25 N6'         3.8500   -0.0450    5.3190 nh        1 COG     -0.650000
     26 H5'         1.2870   -0.1080    4.5260 ha        1 COG      0.126000
     27 H7'         5.3790    0.1060    3.0710 ha        1 COG      0.153000
     28 H211        9.4620   -1.1450    3.5960 h1        1 COG      0.045700
     29 H212        8.8300    0.3810    2.7890 h1        1 COG      0.045700
     30 H213        8.3560   -1.2710    2.1350 h1        1 COG      0.045700
     31 H7'1        5.4380   -0.1250    6.6670 h1        1 COG      0.071700
     32 H7'2        5.8360    0.5100    5.0150 h1        1 COG      0.071700
     33 H611        2.1330    0.2320    6.4790 h1        1 COG      0.037367
     34 H612        2.4460   -1.5060    6.0180 h1        1 COG      0.037367
     35 H613        3.4690   -0.6960    7.2910 h1        1 COG      0.037367
     36 H3'         8.3720   -3.1200    3.4470 ha        1 COG      0.140000
     37 H4'         7.3380   -5.1550    4.3800 ha        1 COG      0.140000
     38 H511        4.9300   -7.1060    6.2590 h1        1 COG      0.044033
     39 H512        6.6680   -6.5390    6.0660 h1        1 COG      0.044033
     40 H513        5.5590   -6.6030    4.6050 h1        1 COG      0.044033
     41 H6'         4.3540   -2.7380    6.3950 ha        1 COG      0.151000
     42 HN21       -0.6980    0.7820   -1.6800 hn        1 COG      0.413300
     43 HN22        0.8900    0.8750   -2.2110 hn        1 COG      0.413300
     44 HN41       -0.5920   -0.4100    3.8500 hn        1 COG      0.415800
     45 HN42       -1.7970   -0.0440    2.7410 hn        1 COG      0.415800
     46 H8'         4.5640    0.3950    0.7790 ha        1 COG      0.149000
@<TRIPOS>BOND
     1    1   18 ar  
     2    1   19 1   
     3    1   20 ar  
     4    2    3 ar  
     5    2   20 ar  
     6    2   21 1   
     7    3    4 ar  
     8    3    7 ar  
     9    4    5 ar  
    10    4   26 1   
    11    5    6 ar  
    12    5   25 1   
    13    6   22 ar  
    14    6   27 1   
    15    7   18 ar  
    16    7   22 ar  
    17    8   23 1   
    18    8   28 1   
    19    8   29 1   
    20    8   30 1   
    21    9   11 1   
    22    9   25 1   
    23    9   31 1   
    24    9   32 1   
    25   10   25 1   
    26   10   33 1   
    27   10   34 1   
    28   10   35 1   
    29   11   12 ar  
    30   11   17 ar  
    31   12   13 ar  
    32   12   23 1   
    33   13   14 ar  
    34   13   36 1   
    35   14   15 ar  
    36   14   37 1   
    37   15   17 ar  
    38   15   24 1   
    39   16   24 1   
    40   16   38 1   
    41   16   39 1   
    42   16   40 1   
    43   17   41 1   
    44   19   42 1   
    45   19   43 1   
    46   21   44 1   
    47   21   45 1   
    48   22   46 1   
@<TRIPOS>SUBSTRUCTURE
     1 COG         1 TEMP              0 ****  ****    0 ROOT
