@<TRIPOS>MOLECULE
COG
   46    48     1     0     0
SMALL
bcc


@<TRIPOS>ATOM
      1 C2B         0.6800    0.4820   -0.2260 ca        1 COG      0.879900
      2 C4B         0.1030    0.2640    2.0410 ca        1 COG      0.704200
      3 C4A         1.5230    0.1860    2.3860 ca        1 COG     -0.285600
      4 C5B         2.0030    0.0330    3.7030 ca        1 COG     -0.155000
      5 C6B         3.3720   -0.0260    3.9770 ca        1 COG      0.137600
      6 C7B         4.2790    0.0460    2.8700 ca        1 COG     -0.130000
      7 C8A         2.4310    0.2620    1.2910 ca        1 COG      0.444600
      8 C21         8.6430   -0.7010    3.0970 c3        1 COG      0.113700
      9 C7'         5.2520   -0.3100    5.5460 c3        1 COG      0.247100
     10 C61         2.9320   -0.5720    6.3030 c3        1 COG      0.181100
     11 C1'         5.8090   -1.6660    5.2050 ca        1 COG     -0.108300
     12 C2'         6.9600   -1.7880    4.3930 ca        1 COG      0.098100
     13 C3'         7.5090   -3.0420    4.1120 ca        1 COG     -0.167000
     14 C4'         6.9210   -4.1950    4.6320 ca        1 COG     -0.166000
     15 C5'         5.7850   -4.0810    5.4350 ca        1 COG      0.095100
     16 C51         5.6150   -6.4410    5.6900 c3        1 COG      0.113700
     17 C6'         5.2320   -2.8200    5.7240 ca        1 COG     -0.120000
     18 N1'         2.0220    0.3920   -0.0150 nb        1 COG     -0.775000
     19 N2'         0.2270    0.7380   -1.5350 nv        1 COG     -0.915500
     20 N3'        -0.3100    0.4160    0.7680 nb        1 COG     -0.813000
     21 N4'        -0.8630    0.1110    3.0340 nv        1 COG     -0.936500
     22 C8'         3.8300    0.1850    1.5850 ca        1 COG     -0.172300
     23 O2'         7.4840   -0.5970    3.9150 os        1 COG     -0.335900
     24 O5'         5.1210   -5.1480    6.0150 os        1 COG     -0.327900
     25 N6'         3.8460   -0.0710    5.3060 nh        1 COG     -0.652000
     26 H5'         1.2800   -0.0480    4.5280 ha        1 COG      0.127000
     27 H7'         5.3670   -0.0230    3.0460 ha        1 COG      0.153000
     28 H211        9.4880   -1.1600    3.6660 h1        1 COG      0.045367
     29 H212        8.8730    0.3640    2.8390 h1        1 COG      0.045367
     30 H213        8.4240   -1.2910    2.1740 h1        1 COG      0.045367
     31 H7'1        5.8280    0.4860    4.9880 h1        1 COG      0.071700
     32 H7'2        5.4390   -0.1380    6.6480 h1        1 COG      0.071700
     33 H611        2.1480    0.2100    6.4940 h1        1 COG      0.037367
     34 H612        2.4190   -1.5210    5.9830 h1        1 COG      0.037367
     35 H613        3.4740   -0.7660    7.2660 h1        1 COG      0.037367
     36 H3'         8.4030   -3.1390    3.4800 ha        1 COG      0.139000
     37 H4'         7.3610   -5.1750    4.4010 ha        1 COG      0.140000
     38 H511        5.5670   -6.6180    4.5880 h1        1 COG      0.043700
     39 H512        6.6600   -6.5690    6.0620 h1        1 COG      0.043700
     40 H513        4.9170   -7.1300    6.2310 h1        1 COG      0.043700
     41 H6'         4.3380   -2.7640    6.3640 ha        1 COG      0.151000
     42 HN21       -0.7180    0.4830   -1.7150 hn        1 COG      0.413800
     43 HN22        0.8690    0.4990   -2.2580 hn        1 COG      0.413800
     44 HN41       -1.8050    0.3100    2.7810 hn        1 COG      0.415300
     45 HN42       -0.5970    0.4230    3.9380 hn        1 COG      0.415300
     46 H8'         4.5490    0.2370    0.7510 ha        1 COG      0.149000
@<TRIPOS>BOND
     1    1   18 ar  
     2    1   19 1   
     3    1   20 ar  
     4    2    3 ar  
     5    2   20 ar  
     6    2   21 1   
     7    3    4 ar  
     8    3    7 ar  
     9    4    5 ar  
    10    4   26 1   
    11    5    6 ar  
    12    5   25 1   
    13    6   22 ar  
    14    6   27 1   
    15    7   18 ar  
    16    7   22 ar  
    17    8   23 1   
    18    8   28 1   
    19    8   29 1   
    20    8   30 1   
    21    9   11 1   
    22    9   25 1   
    23    9   31 1   
    24    9   32 1   
    25   10   25 1   
    26   10   33 1   
    27   10   34 1   
    28   10   35 1   
    29   11   12 ar  
    30   11   17 ar  
    31   12   13 ar  
    32   12   23 1   
    33   13   14 ar  
    34   13   36 1   
    35   14   15 ar  
    36   14   37 1   
    37   15   17 ar  
    38   15   24 1   
    39   16   24 1   
    40   16   38 1   
    41   16   39 1   
    42   16   40 1   
    43   17   41 1   
    44   19   42 1   
    45   19   43 1   
    46   21   44 1   
    47   21   45 1   
    48   22   46 1   
@<TRIPOS>SUBSTRUCTURE
     1 COG         1 TEMP              0 ****  ****    0 ROOT
