@<TRIPOS>MOLECULE
COG
   49    51     1     0     0
SMALL
bcc


@<TRIPOS>ATOM
      1 C2B        -0.9260    1.5990    1.1820 ca        1 COG      0.745900
      2 C4B         0.5040    1.8130    2.9980 ca        1 COG      0.582200
      3 C4A         1.0850    0.5150    2.7250 ca        1 COG     -0.216600
      4 C5B         2.1140   -0.1010    3.4720 ca        1 COG     -0.118000
      5 C6B         2.5860   -1.3620    3.1100 ca        1 COG      0.088600
      6 C7B         2.0380   -2.0340    1.9780 ca        1 COG     -0.069000
      7 C8A         0.5290   -0.1670    1.5810 ca        1 COG      0.444600
      8 C21         6.7550    0.6200    5.3000 c3        1 COG      0.119700
      9 C7'         4.8880   -2.2700    3.0110 c3        1 COG      0.216100
     10 C61         3.1700   -3.2760    4.5140 c3        1 COG      0.083100
     11 C1'         6.0490   -2.6400    3.8530 ca        1 COG     -0.197300
     12 C2'         6.6380   -1.6870    4.7110 ca        1 COG      0.091100
     13 C3'         7.7940   -1.9990    5.4350 ca        1 COG     -0.130000
     14 C4'         8.3640   -3.2630    5.3180 ca        1 COG     -0.113000
     15 C5'         7.7720   -4.2260    4.4820 ca        1 COG      0.143100
     16 C51         9.4540   -5.8510    4.9640 c3        1 COG      0.101700
     17 C6'         6.6090   -3.9160    3.7530 ca        1 COG     -0.113000
     18 N1'        -0.4770    0.3860    0.8170 nb        1 COG     -0.557000
     19 N2'        -2.0140    2.2140    0.3670 n4        1 COG     -0.814300
     20 N3'        -0.4710    2.3580    2.2640 nb        1 COG     -0.649000
     21 N4'         0.9850    2.6160    4.1460 n4        1 COG     -0.839300
     22 C8'         1.0380   -1.4570    1.2320 ca        1 COG     -0.089300
     23 O2'         5.9710   -0.4720    4.8030 os        1 COG     -0.420900
     24 O5'         8.2330   -5.5020    4.3040 os        1 COG     -0.306900
     25 N6'         3.6520   -2.0130    3.8820 n4        1 COG     -0.595800
     26 H5'         2.5490    0.4190    4.3430 ha        1 COG      0.162000
     27 H7'         2.4140   -3.0360    1.6830 ha        1 COG      0.211000
     28 H211        6.9010    0.5060    6.4020 h1        1 COG      0.062700
     29 H212        6.1310    1.5190    5.0720 h1        1 COG      0.062700
     30 H213        7.7370    0.6770    4.7710 h1        1 COG      0.062700
     31 H7'1        4.6270   -3.0860    2.2800 hx        1 COG      0.106200
     32 H7'2        5.0940   -1.3050    2.4650 hx        1 COG      0.106200
     33 H611        2.3580   -3.0460    5.2540 hx        1 COG      0.118367
     34 H612        2.7870   -3.9800    3.7290 hx        1 COG      0.118367
     35 H613        4.0450   -3.7550    5.0430 hx        1 COG      0.118367
     36 H3'         8.2640   -1.2530    6.0960 ha        1 COG      0.172000
     37 H4'         9.2800   -3.5010    5.8860 ha        1 COG      0.184000
     38 H511        9.6210   -6.9090    4.6320 h1        1 COG      0.071367
     39 H512        9.3260   -5.7970    6.0720 h1        1 COG      0.071367
     40 H513       10.2870   -5.1910    4.6200 h1        1 COG      0.071367
     41 H6'         6.1760   -4.6830    3.0910 ha        1 COG      0.167000
     42 HN21       -2.2820    1.5800   -0.4080 hn        1 COG      0.509800
     43 HN22       -2.8400    2.3850    0.9650 hn        1 COG      0.509800
     44 HN41        1.9920    2.8050    4.0290 hn        1 COG      0.502133
     45 HN42        0.8270    2.0880    5.0190 hn        1 COG      0.502133
     46 H8'         0.6190   -1.9900    0.3500 ha        1 COG      0.230000
     47 H2'3       -1.6860    3.1110   -0.0280 hn        1 COG      0.509800
     48 H4'3        0.4850    3.5230    4.2150 hn        1 COG      0.502133
     49 H6'1        3.9660   -1.3760    4.6390 hn        1 COG      0.480800
@<TRIPOS>BOND
     1    1   18 ar  
     2    1   19 1   
     3    1   20 ar  
     4    2    3 ar  
     5    2   20 ar  
     6    2   21 1   
     7    3    4 ar  
     8    3    7 ar  
     9    4    5 ar  
    10    4   26 1   
    11    5    6 ar  
    12    5   25 1   
    13    6   22 ar  
    14    6   27 1   
    15    7   18 ar  
    16    7   22 ar  
    17    8   23 1   
    18    8   28 1   
    19    8   29 1   
    20    8   30 1   
    21    9   11 1   
    22    9   25 1   
    23    9   31 1   
    24    9   32 1   
    25   10   25 1   
    26   10   33 1   
    27   10   34 1   
    28   10   35 1   
    29   11   12 ar  
    30   11   17 ar  
    31   12   13 ar  
    32   12   23 1   
    33   13   14 ar  
    34   13   36 1   
    35   14   15 ar  
    36   14   37 1   
    37   15   17 ar  
    38   15   24 1   
    39   16   24 1   
    40   16   38 1   
    41   16   39 1   
    42   16   40 1   
    43   17   41 1   
    44   19   42 1   
    45   19   43 1   
    46   19   47 1   
    47   21   44 1   
    48   21   45 1   
    49   21   48 1   
    50   22   46 1   
    51   25   49 1   
@<TRIPOS>SUBSTRUCTURE
     1 COG         1 TEMP              0 ****  ****    0 ROOT
