@<TRIPOS>MOLECULE
COG
   46    48     1     0     0
SMALL
bcc


@<TRIPOS>ATOM
      1 C2B        -0.3620    1.5640   -4.7500 ca        1 COG      0.880900
      2 C4B         0.0540   -0.6610   -4.1260 ca        1 COG      0.707200
      3 C4A        -0.4010   -0.3560   -2.7690 ca        1 COG     -0.286600
      4 C5B        -0.4030   -1.2910   -1.7140 ca        1 COG     -0.154000
      5 C6B        -0.8840   -0.9570   -0.4450 ca        1 COG      0.136600
      6 C7B        -1.3510    0.3830   -0.2400 ca        1 COG     -0.130000
      7 C8A        -0.8590    0.9760   -2.5540 ca        1 COG      0.444600
      8 C21        -2.3490    2.1650    3.6760 c3        1 COG      0.113700
      9 C7'        -1.3030   -1.5060    1.9210 c3        1 COG      0.247100
     10 C61        -0.1260   -3.0820    0.4540 c3        1 COG      0.180100
     11 C1'        -0.2850   -0.6860    2.6670 ca        1 COG     -0.108300
     12 C2'        -0.6510    0.5390    3.2720 ca        1 COG      0.098100
     13 C3'         0.2790    1.2820    4.0040 ca        1 COG     -0.167000
     14 C4'         1.5870    0.8200    4.1470 ca        1 COG     -0.165000
     15 C5'         1.9540   -0.3900    3.5550 ca        1 COG      0.096100
     16 C51         4.2040   -0.1800    4.2990 c3        1 COG      0.113700
     17 C6'         1.0200   -1.1430    2.8190 ca        1 COG     -0.120000
     18 N1'        -0.8490    1.9390   -3.5350 nb        1 COG     -0.776000
     19 N2'        -0.2060    2.5540   -5.7400 nh        1 COG     -0.916500
     20 N3'         0.0510    0.2690   -5.1010 nb        1 COG     -0.816000
     21 N4'         0.5480   -1.9290   -4.4240 nh        1 COG     -0.938500
     22 C8'        -1.3410    1.3070   -1.2480 ca        1 COG     -0.173300
     23 O2'        -1.9680    0.9280    3.0860 os        1 COG     -0.336900
     24 O5'         3.2140   -0.9560    3.6360 os        1 COG     -0.327900
     25 N6'        -0.9820   -1.9280    0.5750 nh        1 COG     -0.651000
     26 H5'        -0.0070   -2.3010   -1.8960 ha        1 COG      0.127000
     27 H7'        -1.7160    0.6900    0.7560 ha        1 COG      0.153000
     28 H211       -3.4270    2.2660    3.3910 h1        1 COG      0.045700
     29 H212       -2.2400    2.1220    4.7870 h1        1 COG      0.045700
     30 H213       -1.7500    3.0070    3.2540 h1        1 COG      0.045700
     31 H7'1       -1.4930   -2.4400    2.5290 h1        1 COG      0.071700
     32 H7'2       -2.2800   -0.9420    1.8730 h1        1 COG      0.071700
     33 H611       -0.1290   -3.6720    1.4080 h1        1 COG      0.037700
     34 H612       -0.5260   -3.7400   -0.3650 h1        1 COG      0.037700
     35 H613        0.9370   -2.8100    0.2050 h1        1 COG      0.037700
     36 H3'        -0.0030    2.2360    4.4730 ha        1 COG      0.139000
     37 H4'         2.3090    1.4150    4.7220 ha        1 COG      0.140000
     38 H511        5.1300   -0.8030    4.2040 h1        1 COG      0.044033
     39 H512        4.3400    0.8060    3.7930 h1        1 COG      0.044033
     40 H513        3.9360   -0.0350    5.3740 h1        1 COG      0.044033
     41 H6'         1.3390   -2.0940    2.3680 ha        1 COG      0.151000
     42 HN21       -0.1550    2.2190   -6.6750 hn        1 COG      0.413800
     43 HN22       -0.7640    3.3690   -5.6160 hn        1 COG      0.413800
     44 HN41        0.7220   -2.1360   -5.3810 hn        1 COG      0.416300
     45 HN42        0.1650   -2.6750   -3.8920 hn        1 COG      0.416300
     46 H8'        -1.6990    2.3320   -1.0610 ha        1 COG      0.149000
@<TRIPOS>BOND
     1    1   18 ar  
     2    1   19 1   
     3    1   20 ar  
     4    2    3 ar  
     5    2   20 ar  
     6    2   21 1   
     7    3    4 ar  
     8    3    7 ar  
     9    4    5 ar  
    10    4   26 1   
    11    5    6 ar  
    12    5   25 1   
    13    6   22 ar  
    14    6   27 1   
    15    7   18 ar  
    16    7   22 ar  
    17    8   23 1   
    18    8   28 1   
    19    8   29 1   
    20    8   30 1   
    21    9   11 1   
    22    9   25 1   
    23    9   31 1   
    24    9   32 1   
    25   10   25 1   
    26   10   33 1   
    27   10   34 1   
    28   10   35 1   
    29   11   12 ar  
    30   11   17 ar  
    31   12   13 ar  
    32   12   23 1   
    33   13   14 ar  
    34   13   36 1   
    35   14   15 ar  
    36   14   37 1   
    37   15   17 ar  
    38   15   24 1   
    39   16   24 1   
    40   16   38 1   
    41   16   39 1   
    42   16   40 1   
    43   17   41 1   
    44   19   42 1   
    45   19   43 1   
    46   21   44 1   
    47   21   45 1   
    48   22   46 1   
@<TRIPOS>SUBSTRUCTURE
     1 COG         1 TEMP              0 ****  ****    0 ROOT
