@<TRIPOS>MOLECULE
COI
   18    17     1     0     0
SMALL
bcc


@<TRIPOS>ATOM
      1 C1          0.0050    0.1660    0.0070 c         1 COI      0.853600
      2 O1          0.6550    1.1940    0.3350 o         1 COI     -0.816800
      3 O2          0.0370   -0.9460    0.5970 o         1 COI     -0.816800
      4 C2         -0.8640    0.2640   -1.2570 c         1 COI      0.469100
      5 O3         -2.0550    0.5970   -1.2670 o         1 COI     -0.596100
      6 C3         -0.1140   -0.0820   -2.5190 c3        1 COI     -0.192400
      7 C4         -0.9550   -0.0690   -3.7830 c3        1 COI     -0.063700
      8 C5         -0.0710   -0.0050   -5.0100 c3        1 COI     -0.085100
      9 C6         -1.8600   -1.2820   -3.8420 c3        1 COI     -0.085100
     10 H31         0.3470   -1.0940   -2.3710 hc        1 COI      0.064200
     11 H32         0.7230    0.6610   -2.6100 hc        1 COI      0.064200
     12 H4         -1.6060    0.8520   -3.7560 hc        1 COI      0.057700
     13 H51         0.6160   -0.8850   -5.0430 hc        1 COI      0.024867
     14 H52        -0.6920   -0.0070   -5.9390 hc        1 COI      0.024867
     15 H53         0.5470    0.9240   -4.9980 hc        1 COI      0.024867
     16 H61        -1.2590   -2.2220   -3.8860 hc        1 COI      0.024867
     17 H62        -2.5030   -1.3100   -2.9280 hc        1 COI      0.024867
     18 H63        -2.5150   -1.2380   -4.7450 hc        1 COI      0.024867
@<TRIPOS>BOND
     1    1    2 1   
     2    1    3 1   
     3    1    4 1   
     4    4    5 2   
     5    4    6 1   
     6    6    7 1   
     7    6   10 1   
     8    6   11 1   
     9    7    8 1   
    10    7    9 1   
    11    7   12 1   
    12    8   13 1   
    13    8   14 1   
    14    8   15 1   
    15    9   16 1   
    16    9   17 1   
    17    9   18 1   
@<TRIPOS>SUBSTRUCTURE
     1 COI         1 TEMP              0 ****  ****    0 ROOT
