@<TRIPOS>MOLECULE
COI
   18    17     1     0     0
SMALL
bcc


@<TRIPOS>ATOM
      1 C1          1.8930   -0.3880   -0.0130 c         1 COI      0.853600
      2 O1          2.3930   -1.1800   -0.8560 o         1 COI     -0.816800
      3 O2          2.3790   -0.1090    1.1150 o         1 COI     -0.816800
      4 C2          0.5410    0.2510   -0.3710 c         1 COI      0.469100
      5 O3          0.4100    1.3350   -0.9520 o         1 COI     -0.596100
      6 C3         -0.6400   -0.5870    0.0480 c3        1 COI     -0.192400
      7 C4         -1.9950    0.0430   -0.2230 c3        1 COI     -0.063700
      8 C5         -3.0880   -1.0030   -0.1710 c3        1 COI     -0.085100
      9 C6         -2.2790    1.1570    0.7630 c3        1 COI     -0.085100
     10 H31        -0.5550   -1.5620   -0.5030 hc        1 COI      0.064200
     11 H32        -0.5260   -0.8060    1.1420 hc        1 COI      0.064200
     12 H4         -1.9680    0.4900   -1.2580 hc        1 COI      0.057700
     13 H51        -3.1120   -1.4950    0.8310 hc        1 COI      0.024867
     14 H52        -4.0850   -0.5360   -0.3590 hc        1 COI      0.024867
     15 H53        -2.9130   -1.7890   -0.9450 hc        1 COI      0.024867
     16 H61        -3.2510    1.6520    0.5240 hc        1 COI      0.024867
     17 H62        -2.3300    0.7600    1.8050 hc        1 COI      0.024867
     18 H63        -1.4610    1.9170    0.7090 hc        1 COI      0.024867
@<TRIPOS>BOND
     1    1    2 1   
     2    1    3 1   
     3    1    4 1   
     4    4    5 2   
     5    4    6 1   
     6    6    7 1   
     7    6   10 1   
     8    6   11 1   
     9    7    8 1   
    10    7    9 1   
    11    7   12 1   
    12    8   13 1   
    13    8   14 1   
    14    8   15 1   
    15    9   16 1   
    16    9   17 1   
    17    9   18 1   
@<TRIPOS>SUBSTRUCTURE
     1 COI         1 TEMP              0 ****  ****    0 ROOT
