@<TRIPOS>MOLECULE
COI
   18    16     1     0     0
SMALL
bcc


@<TRIPOS>ATOM
      1 C1         -0.8050   -1.2650    2.6580 c1        1 COI      0.556500
      2 O1         -2.0340   -1.5200    2.7580 o         1 COI     -0.785500
      3 O2         -0.1130   -1.0830    3.6940 os        1 COI     -0.551000
      4 C2         -0.1600   -1.1780    1.2920 c2        1 COI      0.495300
      5 O3          0.1200   -2.1930    0.6870 o         1 COI     -0.622300
      6 C3          0.1370    0.1740    0.6810 c3        1 COI     -0.192400
      7 C4          0.1040    0.0630   -0.8280 c3        1 COI     -0.063700
      8 C5         -0.9230    1.0270   -1.3810 c3        1 COI     -0.085100
      9 C6          1.4670    0.4020   -1.3890 c3        1 COI     -0.085100
     10 H31         1.0240    0.4730    0.9660 hc        1 COI      0.064200
     11 H32        -0.5350    0.8200    0.9750 hc        1 COI      0.064200
     12 H4         -0.1350   -0.8480   -1.0820 hc        1 COI      0.057700
     13 H51        -0.6940    1.9400   -1.1080 hc        1 COI      0.024867
     14 H52        -1.8090    0.7940   -1.0350 hc        1 COI      0.024867
     15 H53        -0.9290    0.9710   -2.3600 hc        1 COI      0.024867
     16 H61         1.4560    0.2960   -2.3630 hc        1 COI      0.024867
     17 H62         2.1380   -0.2000   -1.0020 hc        1 COI      0.024867
     18 H63         1.6920    1.3290   -1.1640 hc        1 COI      0.024867
@<TRIPOS>BOND
     1    1    2 2   
     2    1    4 2   
     3    4    5 1   
     4    4    6 1   
     5    6    7 1   
     6    6   10 1   
     7    6   11 1   
     8    7    8 1   
     9    7    9 1   
    10    7   12 1   
    11    8   13 1   
    12    8   14 1   
    13    8   15 1   
    14    9   16 1   
    15    9   17 1   
    16    9   18 1   
@<TRIPOS>SUBSTRUCTURE
     1 COI         1 TEMP              0 ****  ****    0 ROOT
