@<TRIPOS>MOLECULE
COI
   18    17     1     0     0
SMALL
bcc


@<TRIPOS>ATOM
      1 C1          0.0100    0.1170    0.0130 c         1 COI      0.853600
      2 O1          0.7070    1.1110    0.3500 o         1 COI     -0.816800
      3 O2         -0.0120   -1.0000    0.5950 o         1 COI     -0.816800
      4 C2         -0.8480    0.2630   -1.2550 c         1 COI      0.469100
      5 O3         -2.0210    0.6520   -1.2670 o         1 COI     -0.596100
      6 C3         -0.1090   -0.1090   -2.5160 c3        1 COI     -0.192400
      7 C4         -0.9430   -0.0490   -3.7830 c3        1 COI     -0.063700
      8 C5         -0.0520   -0.0190   -5.0060 c3        1 COI     -0.085100
      9 C6         -1.9020   -1.2190   -3.8530 c3        1 COI     -0.085100
     10 H31         0.3040   -1.1420   -2.3720 hc        1 COI      0.064200
     11 H32         0.7620    0.5950   -2.5980 hc        1 COI      0.064200
     12 H4         -1.5510    0.9000   -3.7530 hc        1 COI      0.057700
     13 H51         0.5940   -0.9290   -5.0420 hc        1 COI      0.024867
     14 H52        -0.6670    0.0130   -5.9370 hc        1 COI      0.024867
     15 H53         0.6090    0.8810   -4.9860 hc        1 COI      0.024867
     16 H61        -1.3450   -2.1850   -3.9010 hc        1 COI      0.024867
     17 H62        -2.5500   -1.2220   -2.9420 hc        1 COI      0.024867
     18 H63        -2.5510   -1.1390   -4.7590 hc        1 COI      0.024867
@<TRIPOS>BOND
     1    1    2 1   
     2    1    3 1   
     3    1    4 1   
     4    4    5 2   
     5    4    6 1   
     6    6    7 1   
     7    6   10 1   
     8    6   11 1   
     9    7    8 1   
    10    7    9 1   
    11    7   12 1   
    12    8   13 1   
    13    8   14 1   
    14    8   15 1   
    15    9   16 1   
    16    9   17 1   
    17    9   18 1   
@<TRIPOS>SUBSTRUCTURE
     1 COI         1 TEMP              0 ****  ****    0 ROOT
