@<TRIPOS>MOLECULE
COL
   25    23     1     0     0
SMALL
bcc


@<TRIPOS>ATOM
      1 S1         -2.4810   -0.2700   -2.9920 ss        1 COL     -0.098000
      2 C2         -0.9290   -0.2870   -2.9910 c3        1 COL     -0.105000
      3 C3         -0.2420   -0.2930   -1.5750 c2        1 COL     -0.536000
      4 C4         -1.1850   -0.1410   -0.2800 c1        1 COL     -0.016000
      5 C5         -2.8140    0.2300   -0.5210 c2        1 COL     -0.125000
      6 C6         -3.2030    0.5410   -1.8350 c3        1 COL     -0.212000
      7 S13         1.1940   -0.4690   -1.0860 ss        1 COL      0.536000
      8 C14         1.1680   -0.4290    0.5460 c1        1 COL     -0.130000
      9 C15        -0.2830   -0.2310    0.9940 c1        1 COL     -0.215000
     10 C16        -0.7630   -0.1380    2.4260 c1        1 COL      0.383000
     11 O17        -0.7800    0.9760    3.0130 o         1 COL     -0.586500
     12 O18        -1.1220   -1.1780    3.0380 o         1 COL     -0.586500
     13 N19         2.2930   -0.5580    1.4010 n2        1 COL     -0.279000
     14 C20         3.4190    0.2870    1.2240 c2        1 COL      0.231000
     15 C21         4.6200    0.1470    2.1330 c2        1 COL      0.367000
     16 O22         5.6240   -0.5100    1.7520 o         1 COL     -0.540000
     17 O23         4.6050    0.6650    3.2800 o         1 COL     -0.540000
     18 O24         3.4190    1.1210    0.3410 o         1 COL     -0.430000
     19 H21        -0.6350    0.5260   -3.4480 h1        1 COL      0.082500
     20 H22A       -0.6540   -1.1090   -3.4450 h1        1 COL      0.082500
     21 H51        -3.0360    0.9960    0.0490 ha        1 COL      0.124000
     22 H52        -3.3460   -0.5360   -0.2220 ha        1 COL      0.124000
     23 H61        -4.1600    0.3410   -1.9030 h1        1 COL      0.089000
     24 H62        -2.9930    1.4870   -1.9770 h1        1 COL      0.089000
     25 H19         2.2830   -1.1680    2.0790 hn        1 COL      0.292000
@<TRIPOS>BOND
     1    1    2 1   
     2    1    6 1   
     3    2    3 1   
     4    2   19 1   
     5    2   20 1   
     6    3    4 1   
     7    3    7 1   
     8    4    9 1   
     9    5    6 1   
    10    5   21 1   
    11    5   22 1   
    12    6   23 1   
    13    6   24 1   
    14    7    8 1   
    15    8    9 1   
    16   10   11 1   
    17   10   12 1   
    18   13   14 1   
    19   13   25 1   
    20   14   15 1   
    21   14   18 1   
    22   15   16 1   
    23   15   17 1   
@<TRIPOS>SUBSTRUCTURE
     1 COL         1 TEMP              0 ****  ****    0 ROOT
