@<TRIPOS>MOLECULE
COL
   25    26     1     0     0
SMALL
bcc


@<TRIPOS>ATOM
      1 S1          0.5880    1.1530   -0.2180 ss        1 COL     -0.462200
      2 C2          1.9230    0.0020    0.1140 c3        1 COL      0.163000
      3 C3          2.3890   -0.0040    1.4920 cc        1 COL     -0.273400
      4 C4          1.6030    0.2550    2.6080 cd        1 COL     -0.023300
      5 C5          0.1830    0.6420    2.4800 c3        1 COL     -0.039100
      6 C6         -0.0190    1.6550    1.3790 c3        1 COL      0.048700
      7 S13         3.9670   -0.3730    1.9170 ss        1 COL     -0.003800
      8 C14         3.6570   -0.2200    3.5980 cc        1 COL      0.132500
      9 C15         2.3170    0.1300    3.8380 cd        1 COL     -0.235600
     10 C16         1.7300    0.3390    5.2060 c         1 COL      0.934200
     11 O17         0.4840    0.5510    5.3320 o         1 COL     -0.851800
     12 O18         2.4950    0.2980    6.2170 o         1 COL     -0.851800
     13 N19         4.6400   -0.4270    4.5410 ns        1 COL     -0.425100
     14 C20         5.9450   -0.7830    4.2160 c         1 COL      0.537100
     15 C21         6.9700   -0.9950    5.3710 c         1 COL      0.897600
     16 O22         7.0640   -2.1590    5.8320 o         1 COL     -0.805300
     17 O23         7.6410    0.0080    5.7190 o         1 COL     -0.805300
     18 O24         6.2580   -0.9240    3.0100 o         1 COL     -0.669100
     19 H21         1.5310   -1.0070   -0.1780 h1        1 COL      0.043200
     20 H22A        2.7420    0.2770   -0.5970 h1        1 COL      0.043200
     21 H51        -0.1810    1.0690    3.4610 hc        1 COL      0.084700
     22 H52        -0.4310   -0.2760    2.2700 hc        1 COL      0.084700
     23 H61        -1.1080    1.8510    1.2270 h1        1 COL      0.049700
     24 H62         0.4820    2.6140    1.6550 h1        1 COL      0.049700
     25 H19         4.3650   -0.2940    5.5010 hn        1 COL      0.378500
@<TRIPOS>BOND
     1    1    2 1   
     2    1    6 1   
     3    2    3 1   
     4    2   19 1   
     5    2   20 1   
     6    3    4 2   
     7    3    7 1   
     8    4    5 1   
     9    4    9 1   
    10    5    6 1   
    11    5   21 1   
    12    5   22 1   
    13    6   23 1   
    14    6   24 1   
    15    7    8 1   
    16    8    9 2   
    17    8   13 1   
    18    9   10 1   
    19   10   11 1   
    20   10   12 1   
    21   13   14 1   
    22   13   25 1   
    23   14   15 1   
    24   14   18 2   
    25   15   16 1   
    26   15   17 1   
@<TRIPOS>SUBSTRUCTURE
     1 COL         1 TEMP              0 ****  ****    0 ROOT
