@<TRIPOS>MOLECULE
COL
   26    27     1     0     0
SMALL
bcc


@<TRIPOS>ATOM
      1 S1          0.8880    1.2740   -0.1880 ss        1 COL     -0.361200
      2 C2          2.2720    0.2250    0.2050 c3        1 COL      0.091000
      3 C3          2.5910    0.1560    1.6300 cc        1 COL     -0.137400
      4 C4          1.6520    0.2320    2.6530 cd        1 COL     -0.067300
      5 C5          0.2180    0.4550    2.3830 c3        1 COL     -0.037100
      6 C6          0.0140    1.5250    1.3370 c3        1 COL      0.017700
      7 S13         4.1380   -0.0600    2.2070 ss        1 COL      0.061200
      8 C14         3.6300   -0.0840    3.8240 cc        1 COL     -0.045500
      9 C15         2.2490    0.0900    3.9460 cd        1 COL     -0.096600
     10 C16         1.5120    0.1290    5.2720 c         1 COL      0.927200
     11 O17         0.2620    0.2450    5.2820 o         1 COL     -0.805300
     12 O18         2.2120    0.0440    6.3300 o         1 COL     -0.805300
     13 N19         4.5210   -0.2510    4.9380 n4        1 COL     -0.541200
     14 C20         5.6190   -1.2840    4.7200 c         1 COL      0.385100
     15 C21         7.0430   -0.6480    4.3540 c         1 COL      0.907600
     16 O22         7.7220   -1.3430    3.5860 o         1 COL     -0.725300
     17 O23         7.2520    0.4570    4.8950 o         1 COL     -0.725300
     18 O24         5.3230   -2.4500    4.9100 o         1 COL     -0.471100
     19 H21         2.0270   -0.8000   -0.1780 h1        1 COL      0.072700
     20 H22A        3.1340    0.6190   -0.3910 h1        1 COL      0.072700
     21 H51        -0.2430   -0.5110    2.0390 hc        1 COL      0.095200
     22 H52        -0.3090    0.7530    3.3370 hc        1 COL      0.095200
     23 H61         0.3170    2.5180    1.7510 h1        1 COL      0.067200
     24 H62        -1.0650    1.5780    1.0500 h1        1 COL      0.067200
     25 H19         3.9300   -0.4890    5.7750 hn        1 COL      0.478800
     26 H192        4.9930    0.6460    5.1240 hn        1 COL      0.478800
@<TRIPOS>BOND
     1    1    2 1   
     2    1    6 1   
     3    2    3 1   
     4    2   19 1   
     5    2   20 1   
     6    3    4 2   
     7    3    7 1   
     8    4    5 1   
     9    4    9 1   
    10    5    6 1   
    11    5   21 1   
    12    5   22 1   
    13    6   23 1   
    14    6   24 1   
    15    7    8 1   
    16    8    9 2   
    17    8   13 1   
    18    9   10 1   
    19   10   11 1   
    20   10   12 1   
    21   13   14 1   
    22   13   25 1   
    23   13   26 1   
    24   14   15 1   
    25   14   18 2   
    26   15   16 1   
    27   15   17 1   
@<TRIPOS>SUBSTRUCTURE
     1 COL         1 TEMP              0 ****  ****    0 ROOT
