@<TRIPOS>MOLECULE
COL
   25    26     1     0     0
SMALL
bcc


@<TRIPOS>ATOM
      1 S1          0.5970    1.1860   -0.2130 ss        1 COL     -0.462200
      2 C2          1.9660    0.0710    0.1000 c3        1 COL      0.163000
      3 C3          2.4150    0.0360    1.4850 cc        1 COL     -0.273400
      4 C4          1.6050    0.2310    2.5970 cd        1 COL     -0.023300
      5 C5          0.1740    0.5730    2.4610 c3        1 COL     -0.039100
      6 C6         -0.0490    1.6130    1.3910 c3        1 COL      0.048700
      7 S13         3.9990   -0.2910    1.9200 ss        1 COL     -0.003800
      8 C14         3.6610   -0.2040    3.6000 cc        1 COL      0.132500
      9 C15         2.3070    0.0900    3.8320 cd        1 COL     -0.235600
     10 C16         1.6940    0.2350    5.1980 c         1 COL      0.934200
     11 O17         0.4400    0.3980    5.3120 o         1 COL     -0.851800
     12 O18         2.4470    0.1880    6.2170 o         1 COL     -0.851800
     13 N19         4.6390   -0.4080    4.5500 n         1 COL     -0.425100
     14 C20         5.9590   -0.7080    4.2320 c         1 COL      0.537100
     15 C21         6.9760   -0.9220    5.3950 c         1 COL      0.897600
     16 O22         7.1040   -2.0970    5.8190 o         1 COL     -0.805300
     17 O23         7.6070    0.0910    5.7840 o         1 COL     -0.805300
     18 O24         6.2930   -0.7990    3.0270 o         1 COL     -0.669100
     19 H21         1.6150   -0.9400   -0.2290 h1        1 COL      0.043200
     20 H22A        2.7850    0.3980   -0.5890 h1        1 COL      0.043200
     21 H51        -0.4040   -0.3580    2.2120 hc        1 COL      0.084700
     22 H52        -0.2170    0.9550    3.4500 hc        1 COL      0.084700
     23 H61         0.4150    2.5800    1.7040 h1        1 COL      0.049700
     24 H62        -1.1410    1.7770    1.2290 h1        1 COL      0.049700
     25 H19         4.3460   -0.3160    5.5100 hn        1 COL      0.378500
@<TRIPOS>BOND
     1    1    2 1   
     2    1    6 1   
     3    2    3 1   
     4    2   19 1   
     5    2   20 1   
     6    3    4 2   
     7    3    7 1   
     8    4    5 1   
     9    4    9 1   
    10    5    6 1   
    11    5   21 1   
    12    5   22 1   
    13    6   23 1   
    14    6   24 1   
    15    7    8 1   
    16    8    9 2   
    17    8   13 1   
    18    9   10 1   
    19   10   11 1   
    20   10   12 1   
    21   13   14 1   
    22   13   25 1   
    23   14   15 1   
    24   14   18 2   
    25   15   16 1   
    26   15   17 1   
@<TRIPOS>SUBSTRUCTURE
     1 COL         1 TEMP              0 ****  ****    0 ROOT
