@<TRIPOS>MOLECULE
COL
   25    26     1     0     0
SMALL
bcc


@<TRIPOS>ATOM
      1 S1          1.2100    0.8810   -4.2700 ss        1 COL     -0.462200
      2 C2          1.9300    0.1920   -2.7800 c3        1 COL      0.163000
      3 C3          1.0220    0.1200   -1.6440 cc        1 COL     -0.273400
      4 C4         -0.3510   -0.0720   -1.7250 cd        1 COL     -0.023300
      5 C5         -1.0460   -0.1550   -3.0270 c3        1 COL     -0.039100
      6 C6         -0.5490    0.8970   -3.9890 c3        1 COL      0.048700
      7 S13         1.5410    0.2240   -0.0560 ss        1 COL     -0.003800
      8 C14        -0.0360   -0.0010    0.5810 cc        1 COL      0.132500
      9 C15        -0.9820   -0.1510   -0.4470 cd        1 COL     -0.235600
     10 C16        -2.4530   -0.3640   -0.2180 c         1 COL      0.934200
     11 O17        -3.2180   -0.5950   -1.2060 o         1 COL     -0.851800
     12 O18        -2.9050   -0.3110    0.9650 o         1 COL     -0.851800
     13 N19        -0.2770   -0.0220    1.9380 n         1 COL     -0.425100
     14 C20         0.7250    0.1230    2.8920 c         1 COL      0.537100
     15 C21         0.3310    0.0770    4.3990 c         1 COL      0.897600
     16 O22         0.3540   -1.0500    4.9520 o         1 COL     -0.805300
     17 O23         0.0580    1.1760    4.9430 o         1 COL     -0.805300
     18 O24         1.9090    0.2840    2.5150 o         1 COL     -0.669100
     19 H21         2.8220    0.8280   -2.5530 h1        1 COL      0.043200
     20 H22A        2.2930   -0.8300   -3.0640 h1        1 COL      0.043200
     21 H51        -2.1580   -0.0310   -2.8700 hc        1 COL      0.084700
     22 H52        -0.8840   -1.1770   -3.4650 hc        1 COL      0.084700
     23 H61        -0.8300    1.9110   -3.6140 h1        1 COL      0.049700
     24 H62        -1.0050    0.7490   -4.9970 h1        1 COL      0.049700
     25 H19        -1.2390   -0.1400    2.2120 hn        1 COL      0.378500
@<TRIPOS>BOND
     1    1    2 1   
     2    1    6 1   
     3    2    3 1   
     4    2   19 1   
     5    2   20 1   
     6    3    4 2   
     7    3    7 1   
     8    4    5 1   
     9    4    9 1   
    10    5    6 1   
    11    5   21 1   
    12    5   22 1   
    13    6   23 1   
    14    6   24 1   
    15    7    8 1   
    16    8    9 2   
    17    8   13 1   
    18    9   10 1   
    19   10   11 1   
    20   10   12 1   
    21   13   14 1   
    22   13   25 1   
    23   14   15 1   
    24   14   18 2   
    25   15   16 1   
    26   15   17 1   
@<TRIPOS>SUBSTRUCTURE
     1 COL         1 TEMP              0 ****  ****    0 ROOT
