@<TRIPOS>MOLECULE
COM
   12    10     1     0     0
SMALL
bcc


@<TRIPOS>ATOM
      1 C1         -0.9230    0.4010   -0.1390 c3        1 COM      0.094700
      2 C2          0.5840    0.4010   -0.0110 c3        1 COM     -0.315100
      3 S1         -1.5130    2.0730   -0.1780 sh        1 COM     -0.457900
      4 S2          1.1560   -1.2570    0.2450 s4        1 COM      1.647500
      5 O1S         2.6400   -1.3700   -0.0060 o         1 COM     -0.678400
      6 O2S         0.6090   -2.1940   -0.8060 o         1 COM     -0.678400
      7 O3S         0.7980   -1.7250    1.6360 os        1 COM     -1.072000
      8 H11        -1.1800   -0.0540   -0.9660 h1        1 COM      0.065700
      9 H12        -1.3150   -0.0660    0.6260 h1        1 COM      0.065700
     10 H21         0.8470    0.9580    0.7500 h1        1 COM      0.078700
     11 H22         0.9810    0.7600   -0.8300 h1        1 COM      0.078700
     12 HS1        -2.6820    2.0730   -0.3220 hs        1 COM      0.173800
@<TRIPOS>BOND
     1    1    2 1   
     2    1    3 1   
     3    1    8 1   
     4    1    9 1   
     5    2    4 1   
     6    2   10 1   
     7    2   11 1   
     8    3   12 1   
     9    4    5 1   
    10    4    6 1   
@<TRIPOS>SUBSTRUCTURE
     1 COM         1 TEMP              0 ****  ****    0 ROOT
