@<TRIPOS>MOLECULE
COM
   12    11     1     0     0
SMALL
bcc


@<TRIPOS>ATOM
      1 C1          0.0440   -0.0070   -0.0120 c3        1 COM      0.094700
      2 C2          1.5300    0.0070   -0.0090 c3        1 COM     -0.280600
      3 S1         -0.5180   -0.0010    1.6860 sh        1 COM     -0.457900
      4 S2          2.2060    0.0050   -1.6740 s6        1 COM      1.427800
      5 O1S         1.6910    1.1780   -2.2720 o         1 COM     -0.747867
      6 O2S         1.7230   -1.1900   -2.2560 o         1 COM     -0.747867
      7 O3S         3.6030    0.0250   -1.4690 o         1 COM     -0.747867
      8 H11        -0.3560    0.8950   -0.5380 h1        1 COM      0.065200
      9 H12        -0.3390   -0.9220   -0.5260 h1        1 COM      0.065200
     10 H21         1.9300   -0.8850    0.5300 h1        1 COM      0.078200
     11 H22         1.9140    0.9110    0.5220 h1        1 COM      0.078200
     12 HS1        -1.8190   -0.0130    1.4810 hs        1 COM      0.173800
@<TRIPOS>BOND
     1    1    2 1   
     2    1    3 1   
     3    1    8 1   
     4    1    9 1   
     5    2    4 1   
     6    2   10 1   
     7    2   11 1   
     8    3   12 1   
     9    4    5 1   
    10    4    6 1   
    11    4    7 1   
@<TRIPOS>SUBSTRUCTURE
     1 COM         1 TEMP              0 ****  ****    0 ROOT
