@<TRIPOS>MOLECULE
COM
   12    11     1     0     0
SMALL
bcc


@<TRIPOS>ATOM
      1 C1         -0.5280   -0.0050   -1.3680 c3        1 COM      0.094700
      2 C2          0.5940    0.0060   -0.3930 c3        1 COM     -0.280600
      3 S1          0.1660    0.0020   -3.0170 sh        1 COM     -0.457900
      4 S2          0.0070    0.0000    1.3050 s6        1 COM      1.427800
      5 O1S        -0.7450   -1.1910    1.4210 o         1 COM     -0.747867
      6 O2S        -0.7690    1.1760    1.4210 o         1 COM     -0.747867
      7 O3S         1.1940    0.0120    2.0700 o         1 COM     -0.747867
      8 H11        -1.1560   -0.9200   -1.2340 h1        1 COM      0.065700
      9 H12        -1.1740    0.8960   -1.2340 h1        1 COM      0.065700
     10 H21         1.2310    0.9110   -0.5380 h1        1 COM      0.078700
     11 H22         1.2490   -0.8860   -0.5380 h1        1 COM      0.078700
     12 HS1        -0.9490   -0.0090   -3.7190 hs        1 COM      0.173800
@<TRIPOS>BOND
     1    1    2 1   
     2    1    3 1   
     3    1    8 1   
     4    1    9 1   
     5    2    4 1   
     6    2   10 1   
     7    2   11 1   
     8    3   12 1   
     9    4    5 1   
    10    4    6 1   
    11    4    7 1   
@<TRIPOS>SUBSTRUCTURE
     1 COM         1 TEMP              0 ****  ****    0 ROOT
