@<TRIPOS>MOLECULE
COM
   12    11     1     0     0
SMALL
bcc


@<TRIPOS>ATOM
      1 C1          0.0450    0.0000   -0.0110 c3        1 COM      0.094700
      2 C2          1.5310    0.0000   -0.0100 c3        1 COM     -0.280600
      3 S1         -0.5150   -0.0000    1.6880 sh        1 COM     -0.457900
      4 S2          2.2040    0.0010   -1.6760 s6        1 COM      1.427800
      5 O1S         1.7050    1.1850   -2.2640 o         1 COM     -0.747867
      6 O2S         1.7040   -1.1830   -2.2650 o         1 COM     -0.747867
      7 O3S         3.6020   -0.0000   -1.4720 o         1 COM     -0.747867
      8 H11        -0.3480    0.9090   -0.5300 h1        1 COM      0.065700
      9 H12        -0.3480   -0.9080   -0.5310 h1        1 COM      0.065700
     10 H21         1.9230   -0.8980    0.5240 h1        1 COM      0.078700
     11 H22         1.9240    0.8980    0.5250 h1        1 COM      0.078700
     12 HS1        -1.8170   -0.0000    1.4850 hs        1 COM      0.173800
@<TRIPOS>BOND
     1    1    2 1   
     2    1    3 1   
     3    1    8 1   
     4    1    9 1   
     5    2    4 1   
     6    2   10 1   
     7    2   11 1   
     8    3   12 1   
     9    4    5 1   
    10    4    6 1   
    11    4    7 1   
@<TRIPOS>SUBSTRUCTURE
     1 COM         1 TEMP              0 ****  ****    0 ROOT
