@<TRIPOS>MOLECULE
COP
   69    72     1     0     0
SMALL
bcc


@<TRIPOS>ATOM
      1 C3          0.7830   -0.6010   -0.6660 ca        1 COP      0.951900
      2 C1          0.4170   -0.5370    1.6560 ca        1 COP      0.717900
      3 C10         1.8670   -0.3840    1.8600 ca        1 COP      0.025000
      4 C8          3.7230   -0.1420    3.2020 ca        1 COP      0.223300
      5 C7          4.5530   -0.1330    2.0140 ca        1 COP      0.356900
      6 C5          2.6870   -0.3730    0.6590 ca        1 COP      0.636000
      7 C11         4.4100   -0.0470    4.5440 c3        1 COP      0.173500
      8 C13         4.2010    1.0300    6.7390 ca        1 COP      0.237600
      9 C18         3.4850    1.9010    7.6110 ca        1 COP     -0.229500
     10 C17         3.8510    2.0220    8.9360 ca        1 COP     -0.017500
     11 C16         4.9230    1.2730    9.4640 ca        1 COP     -0.258600
     12 C15         5.6360    0.4120    8.6150 ca        1 COP     -0.017500
     13 C14         5.2840    0.2890    7.2810 ca        1 COP     -0.229500
     14 C19         5.2370    1.4750   10.8740 c         1 COP      0.583700
     15 C21         7.4940    0.8590   11.7310 c3        1 COP     -0.042500
     16 C24         8.4320   -0.0730   10.8410 c         1 COP      0.927600
     17 C27         7.9880    0.7850   13.1680 c3        1 COP     -0.088400
     18 C28         7.2070    1.6500   14.1360 c3        1 COP     -0.142400
     19 C29         6.4470    0.7940   15.1530 c3        1 COP      0.154800
     20 N4          2.1550   -0.4840   -0.5940 nb        1 COP     -0.773000
     21 N3          0.2180   -0.6460   -1.9280 nh        1 COP     -0.945500
     22 N2         -0.1040   -0.6520    0.4130 nb        1 COP     -0.847000
     23 N1         -0.4290   -0.5600    2.7320 nh        1 COP     -0.954500
     24 N9          2.4020   -0.2650    3.1140 nb        1 COP     -0.599000
     25 N6          4.0790   -0.2440    0.7910 nb        1 COP     -0.623000
     26 N12         3.8660    0.9730    5.4020 nh        1 COP     -0.752600
     27 N20         6.0560    0.4450   11.5820 n4        1 COP     -0.653800
     28 O19         4.8600    2.4220   11.5690 o         1 COP     -0.503100
     29 O24         7.8680   -1.0560   10.2870 o         1 COP     -0.773800
     30 O25         9.6240    0.2770   10.7820 o         1 COP     -0.773800
     31 N30         5.4710    1.4640   15.9710 n3        1 COP     -0.921800
     32 C31         3.6730   -1.2000   13.8440 c         1 COP      0.754200
     33 O32         4.4320   -1.5170   12.9390 o         1 COP     -0.537000
     34 C33         2.8480   -1.9100   14.8410 ca        1 COP     -0.144600
     35 C38         2.2090   -0.9140   15.6380 ca        1 COP     -0.144600
     36 C37         1.3730   -1.2630   16.6760 ca        1 COP     -0.047500
     37 C36         1.1690   -2.6360   16.9190 ca        1 COP     -0.109000
     38 C35         1.7900   -3.6060   16.1420 ca        1 COP     -0.109000
     39 C34         2.6480   -3.2520   15.0810 ca        1 COP     -0.047500
     40 C39         2.6400    0.4050   15.1250 c         1 COP      0.754200
     41 O40         2.4270    1.5700   15.3990 o         1 COP     -0.537000
     42 O41         3.5170    0.1830   14.0310 os        1 COP     -0.462200
     43 H7          5.6510   -0.0280    2.1090 h4        1 COP      0.041100
     44 H111        5.5030    0.1850    4.3730 h1        1 COP      0.062200
     45 H112        4.3480   -1.0610    5.0440 h1        1 COP      0.062200
     46 H18         2.6410    2.4950    7.2270 ha        1 COP      0.146500
     47 H17         3.3020    2.7120    9.5990 ha        1 COP      0.178000
     48 H15         6.5090   -0.1730    8.9780 ha        1 COP      0.178000
     49 H14         5.8740   -0.3870    6.6420 ha        1 COP      0.146500
     50 H21         7.5940    1.9130   11.3500 hx        1 COP      0.091700
     51 H271        9.0640    1.1140   13.1270 hc        1 COP      0.082200
     52 H272        7.9950   -0.2850   13.5090 hc        1 COP      0.082200
     53 H281        7.9140    2.3260   14.6850 hc        1 COP      0.051200
     54 H282        6.4930    2.3180   13.5830 hc        1 COP      0.051200
     55 H291        7.1970    0.3000   15.8350 h1        1 COP      0.042200
     56 H292        5.9050   -0.0290   14.6000 h1        1 COP      0.042200
     57 HN31        0.8110   -0.7340   -2.7170 hn        1 COP      0.449300
     58 HN32       -0.7450   -0.8610   -2.0200 hn        1 COP      0.449300
     59 HN11       -1.4030   -0.6920    2.6040 hn        1 COP      0.452300
     60 HN12       -0.0610   -0.5340    3.6490 hn        1 COP      0.452300
     61 HN2         3.0050    1.3910    5.1320 hn        1 COP      0.439800
     62 HN0         5.6400    0.2770   12.5080 hn        1 COP      0.470800
     63 HN3         4.7800    1.9220   15.4040 hn        1 COP      0.354800
     64 H37         0.8820   -0.5010   17.3000 ha        1 COP      0.165500
     65 H36         0.5050   -2.9380   17.7450 ha        1 COP      0.152500
     66 H35         1.6170   -4.6730   16.3530 ha        1 COP      0.152500
     67 H34         3.1410   -4.0260   14.4730 ha        1 COP      0.165500
     68 H202        6.0560   -0.4550   11.0540 hn        1 COP      0.470800
     69 H302        5.9040    2.1460   16.5620 hn        1 COP      0.354800
@<TRIPOS>BOND
     1    1   20 ar  
     2    1   21 1   
     3    1   22 ar  
     4    2    3 ar  
     5    2   22 ar  
     6    2   23 1   
     7    3    6 ar  
     8    3   24 ar  
     9    4    5 ar  
    10    4    7 1   
    11    4   24 ar  
    12    5   25 ar  
    13    5   43 1   
    14    6   20 ar  
    15    6   25 ar  
    16    7   26 1   
    17    7   44 1   
    18    7   45 1   
    19    8    9 ar  
    20    8   13 ar  
    21    8   26 1   
    22    9   10 ar  
    23    9   46 1   
    24   10   11 ar  
    25   10   47 1   
    26   11   12 ar  
    27   11   14 1   
    28   12   13 ar  
    29   12   48 1   
    30   13   49 1   
    31   14   27 1   
    32   14   28 2   
    33   15   16 1   
    34   15   17 1   
    35   15   27 1   
    36   15   50 1   
    37   16   29 1   
    38   16   30 1   
    39   17   18 1   
    40   17   51 1   
    41   17   52 1   
    42   18   19 1   
    43   18   53 1   
    44   18   54 1   
    45   19   31 1   
    46   19   55 1   
    47   19   56 1   
    48   21   57 1   
    49   21   58 1   
    50   23   59 1   
    51   23   60 1   
    52   26   61 1   
    53   27   62 1   
    54   27   68 1   
    55   31   63 1   
    56   31   69 1   
    57   32   33 2   
    58   32   34 1   
    59   32   42 1   
    60   34   35 ar  
    61   34   39 ar  
    62   35   36 ar  
    63   35   40 1   
    64   36   37 ar  
    65   36   64 1   
    66   37   38 ar  
    67   37   65 1   
    68   38   39 ar  
    69   38   66 1   
    70   39   67 1   
    71   40   41 2   
    72   40   42 1   
@<TRIPOS>SUBSTRUCTURE
     1 COP         1 TEMP              0 ****  ****    0 ROOT
