@<TRIPOS>MOLECULE
COP
   67    70     1     0     0
SMALL
bcc


@<TRIPOS>ATOM
      1 C3          3.7870   -3.0540    3.8910 ca        1 COP      0.909900
      2 C1          2.6110   -1.3490    2.7650 ca        1 COP      0.707900
      3 C10         1.5800   -1.4170    3.8290 ca        1 COP      0.040000
      4 C8         -0.3870   -0.7110    4.7980 ca        1 COP      0.191300
      5 C7         -0.2320   -1.7360    5.8010 ca        1 COP      0.332900
      6 C5          1.7650   -2.4290    4.8550 ca        1 COP      0.618000
      7 C11        -1.6130    0.1710    4.8920 c3        1 COP      0.138500
      8 C13        -2.0440    1.1830    2.7220 ca        1 COP      0.089600
      9 C18        -1.1750    1.5350    1.6680 ca        1 COP     -0.160000
     10 C17        -1.5950    1.4440    0.3450 ca        1 COP     -0.080000
     11 C16        -2.8810    0.9850    0.0460 ca        1 COP     -0.142600
     12 C15        -3.7430    0.6130    1.0790 ca        1 COP     -0.080000
     13 C14        -3.3360    0.7140    2.4070 ca        1 COP     -0.160000
     14 C19        -3.3040    0.9060   -1.3890 c         1 COP      0.660700
     15 C21        -3.8830   -0.6150   -3.2610 c3        1 COP     -0.035300
     16 C24        -4.9560   -1.7540   -3.3900 c         1 COP      0.910600
     17 C27        -2.6690   -1.0350   -4.1070 c3        1 COP     -0.076400
     18 C28        -1.5500   -0.0130   -4.1260 c3        1 COP     -0.108400
     19 C29        -0.3420   -0.4930   -3.3110 c3        1 COP      0.100000
     20 N4          2.8570   -3.2550    4.8880 nb        1 COP     -0.810000
     21 N3          4.9830   -3.8050    3.9840 nh        1 COP     -0.916500
     22 N2          3.7050   -2.1750    2.8330 nb        1 COP     -0.858000
     23 N1          2.4940   -0.4960    1.7340 nh        1 COP     -0.874500
     24 N9          0.5140   -0.5660    3.8270 nb        1 COP     -0.574000
     25 N6          0.7910   -2.5670    5.8540 nb        1 COP     -0.655000
     26 N12        -1.6580    1.3650    4.0820 nh        1 COP     -0.695600
     27 N20        -3.5470   -0.3430   -1.8820 n         1 COP     -0.521900
     28 O19        -3.3760    1.9490   -2.0830 o         1 COP     -0.653100
     29 O24        -5.6070   -1.7880   -4.4690 o         1 COP     -0.840800
     30 O25        -5.1070   -2.5650   -2.4330 o         1 COP     -0.840800
     31 N30         0.5960    0.5380   -2.9570 n         1 COP     -0.549900
     32 C31         1.6230    0.9250   -3.7740 c         1 COP      0.673700
     33 O32         1.8500    0.3640   -4.8740 o         1 COP     -0.664100
     34 C33         2.4430    2.1060   -3.3490 ca        1 COP     -0.112600
     35 C38         2.9390    2.3040   -2.0580 ca        1 COP     -0.068600
     36 C37         3.6930    3.4580   -1.7900 ca        1 COP     -0.125000
     37 C36         3.9400    4.4000   -2.7820 ca        1 COP     -0.138000
     38 C35         3.4490    4.1940   -4.0730 ca        1 COP     -0.169000
     39 C34         2.7110    3.0510   -4.3540 ca        1 COP     -0.097000
     40 C39         2.7600    1.3390   -0.9080 c         1 COP      0.910200
     41 O40         1.6450    1.2790   -0.3040 o         1 COP     -0.838300
     42 O41         3.7590    0.6530   -0.5440 o         1 COP     -0.838300
     43 H7         -1.0020   -1.8520    6.5850 h4        1 COP      0.014100
     44 H111       -2.5090   -0.4720    4.6540 h1        1 COP      0.054700
     45 H112       -1.6940    0.5080    5.9670 h1        1 COP      0.054700
     46 H18        -0.1410    1.8620    1.8680 ha        1 COP      0.135000
     47 H17        -0.8910    1.7150   -0.4620 ha        1 COP      0.155000
     48 H15        -4.7490    0.2340    0.8420 ha        1 COP      0.155000
     49 H14        -4.0320    0.4240    3.2070 ha        1 COP      0.135000
     50 H21        -4.3190    0.3240   -3.7110 h1        1 COP      0.065700
     51 H271       -2.2910   -2.0260   -3.7440 hc        1 COP      0.044700
     52 H272       -3.0590   -1.1910   -5.1470 hc        1 COP      0.044700
     53 H281       -1.2160    0.1660   -5.1820 hc        1 COP      0.048700
     54 H282       -1.9230    0.9690   -3.7290 hc        1 COP      0.048700
     55 H291       -0.7110   -0.9590   -2.3530 h1        1 COP      0.048700
     56 H292        0.1940   -1.2870   -3.9070 h1        1 COP      0.048700
     57 HN31        5.4890   -3.8830    3.1290 hn        1 COP      0.404300
     58 HN32        4.8950   -4.6600    4.4860 hn        1 COP      0.404300
     59 HN11        3.1880   -0.4330    0.9990 hn        1 COP      0.497300
     60 HN12        1.6900    0.0870    1.6050 hn        1 COP      0.497300
     61 HN2        -0.7820    1.8560    4.1280 hn        1 COP      0.377800
     62 HN0        -3.6340   -1.1180   -1.2620 hn        1 COP      0.329500
     63 HN3         0.5100    0.9580   -2.0530 hn        1 COP      0.352500
     64 H37         4.0930    3.6020   -0.7750 ha        1 COP      0.132000
     65 H36         4.5250    5.3020   -2.5540 ha        1 COP      0.105000
     66 H35         3.6460    4.9310   -4.8630 ha        1 COP      0.108000
     67 H34         2.3310    2.8650   -5.3710 ha        1 COP      0.138000
@<TRIPOS>BOND
     1    1   20 ar  
     2    1   21 1   
     3    1   22 ar  
     4    2    3 ar  
     5    2   22 ar  
     6    2   23 1   
     7    3    6 ar  
     8    3   24 ar  
     9    4    5 ar  
    10    4    7 1   
    11    4   24 ar  
    12    5   25 ar  
    13    5   43 1   
    14    6   20 ar  
    15    6   25 ar  
    16    7   26 1   
    17    7   44 1   
    18    7   45 1   
    19    8    9 ar  
    20    8   13 ar  
    21    8   26 1   
    22    9   10 ar  
    23    9   46 1   
    24   10   11 ar  
    25   10   47 1   
    26   11   12 ar  
    27   11   14 1   
    28   12   13 ar  
    29   12   48 1   
    30   13   49 1   
    31   14   27 1   
    32   14   28 2   
    33   15   16 1   
    34   15   17 1   
    35   15   27 1   
    36   15   50 1   
    37   16   29 1   
    38   16   30 1   
    39   17   18 1   
    40   17   51 1   
    41   17   52 1   
    42   18   19 1   
    43   18   53 1   
    44   18   54 1   
    45   19   31 1   
    46   19   55 1   
    47   19   56 1   
    48   21   57 1   
    49   21   58 1   
    50   23   59 1   
    51   23   60 1   
    52   26   61 1   
    53   27   62 1   
    54   31   32 1   
    55   31   63 1   
    56   32   33 2   
    57   32   34 1   
    58   34   35 ar  
    59   34   39 ar  
    60   35   36 ar  
    61   35   40 1   
    62   36   37 ar  
    63   36   64 1   
    64   37   38 ar  
    65   37   65 1   
    66   38   39 ar  
    67   38   66 1   
    68   39   67 1   
    69   40   41 1   
    70   40   42 1   
@<TRIPOS>SUBSTRUCTURE
     1 COP         1 TEMP              0 ****  ****    0 ROOT
