@<TRIPOS>MOLECULE
COP
   67    61     1     0     0
SMALL
bcc


@<TRIPOS>ATOM
      1 C3         -4.6840   -2.2230   -7.9150 c1        1 COP      0.206000
      2 C1         -4.0630   -2.5200   -5.6570 c1        1 COP      0.257000
      3 C10        -4.3220   -1.1710   -5.4220 c1        1 COP     -0.231000
      4 C8         -4.4120    0.6460   -3.9570 c1        1 COP     -0.186000
      5 C7         -4.8580    1.4600   -5.0030 c1        1 COP     -0.062000
      6 C5         -4.7600   -0.3720   -6.4470 c1        1 COP      0.100000
      7 C11        -4.2860    1.0470   -2.4420 c3        1 COP     -0.002000
      8 C13        -2.6790    2.4250   -1.0940 c1        1 COP      0.031000
      9 C18        -2.3610    1.3280   -0.2690 c1        1 COP     -0.140000
     10 C17        -1.6980    1.5390    0.9520 c1        1 COP     -0.140000
     11 C16        -1.3540    2.8440    1.3450 c1        1 COP     -0.129000
     12 C15        -1.6740    3.9380    0.5160 c1        1 COP     -0.069000
     13 C14        -2.3330    3.7290   -0.6970 c1        1 COP     -0.188000
     14 C19        -0.5100    3.0690    2.6180 c2        1 COP      0.326000
     15 C21         1.1820    1.9700    4.0990 c3        1 COP     -0.072000
     16 C24         2.3060    1.9580    3.1000 c2        1 COP      0.325000
     17 C27         1.3050    0.7510    5.0130 c3        1 COP     -0.140000
     18 C28         2.6420    0.8310    5.8090 c3        1 COP     -0.166000
     19 C29         3.3250   -0.5490    5.7940 c3        1 COP     -0.029000
     20 N4         -4.9400   -0.8970   -7.6870 n1        1 COP     -0.285000
     21 N3         -4.8490   -2.8380   -9.1940 n3        1 COP     -0.323000
     22 N2         -4.2420   -3.0320   -6.8840 n1        1 COP     -0.328000
     23 N1         -3.5460   -3.3820   -4.5870 n3        1 COP     -0.264000
     24 N9         -4.1520   -0.6490   -4.1780 n2        1 COP     -0.034000
     25 N6         -5.0240    0.9440   -6.2200 n2        1 COP     -0.132000
     26 N12        -3.4130    2.2170   -2.3130 n3        1 COP     -0.255000
     27 N20        -0.0730    1.9270    3.4090 n         1 COP     -0.301000
     28 O19        -0.2760    4.2370    3.0160 o         1 COP     -0.388000
     29 O24         2.2600    1.1540    2.0910 o         1 COP     -0.587000
     30 O25         3.3160    2.6920    3.2760 o         1 COP     -0.587000
     31 N30         4.3940   -0.5480    4.8150 n         1 COP     -0.347000
     32 C31         4.7700   -1.7840    4.1400 c2        1 COP      0.348000
     33 O32         4.8960   -2.8210    4.7850 o         1 COP     -0.434000
     34 C33         5.1850   -1.7510    2.6270 c2        1 COP     -0.095000
     35 C38         4.4390   -2.4280    1.6990 c2        1 COP     -0.056000
     36 C37         4.8430   -2.4490    0.3630 c1        1 COP     -0.127000
     37 C36         6.0070   -1.7790   -0.0250 c1        1 COP     -0.140000
     38 C35         6.7520   -1.1030    0.9040 c1        1 COP     -0.140000
     39 C34         6.3480   -1.0820    2.2380 c1        1 COP     -0.100000
     40 C39         3.2730   -3.3290    2.1600 c2        1 COP      0.358000
     41 O40         3.4890   -4.5530    2.4720 o         1 COP     -0.558000
     42 O41         2.1170   -2.8870    2.1510 o         1 COP     -0.558000
     43 H7         -5.1720    2.3820   -4.8120 ha        1 COP      0.151000
     44 H111       -5.1320    1.2520   -2.1040 h1        1 COP      0.099500
     45 H112       -3.8870    0.2660   -1.9140 h1        1 COP      0.099500
     46 H18        -2.6480    0.3950   -0.5360 ha        1 COP      0.119500
     47 H17        -1.5300    0.7590    1.5800 ha        1 COP      0.119500
     48 H15        -1.5530    4.8410    0.8470 ha        1 COP      0.151000
     49 H14        -2.5880    4.5030   -1.2630 ha        1 COP      0.120000
     50 H21         1.2300    2.8200    4.6560 h1        1 COP      0.112000
     51 H271        0.5320    0.7340    5.6510 hc        1 COP      0.081500
     52 H272        1.2990   -0.0710    4.4670 hc        1 COP      0.081500
     53 H281        2.4630    1.0930    6.7190 hc        1 COP      0.095000
     54 H282        3.2090    1.4670    5.4060 hc        1 COP      0.095000
     55 H291        2.6690   -1.2350    5.5580 h1        1 COP      0.081500
     56 H292        3.6960   -0.7410    6.6840 h1        1 COP      0.081500
     57 HN31       -4.5950   -3.6770   -9.3180 hn        1 COP      0.211500
     58 HN32       -5.2520   -2.4070   -9.8360 hn        1 COP      0.211500
     59 HN11       -3.2460   -3.0250   -3.8430 hn        1 COP      0.287500
     60 HN12       -3.5660   -4.2790   -4.6810 hn        1 COP      0.287500
     61 HN2        -3.4390    2.8920   -2.9610 hn        1 COP      0.163000
     62 HN0        -0.6240    1.1600    3.4750 hn        1 COP      0.215000
     63 HN3         4.8060    0.2160    4.6070 hn        1 COP      0.273000
     64 H37         4.2680   -2.8530   -0.3090 ha        1 COP      0.133000
     65 H36         6.2930   -1.7930   -0.9640 ha        1 COP      0.119500
     66 H35         7.5750   -0.6300    0.6280 ha        1 COP      0.119500
     67 H34         6.8490   -0.6300    2.8630 ha        1 COP      0.132000
@<TRIPOS>BOND
     1    1   21 1   
     2    1   22 1   
     3    2    3 1   
     4    2   23 1   
     5    3   24 1   
     6    4    7 1   
     7    4   24 1   
     8    5   25 1   
     9    5   43 1   
    10    6   20 1   
    11    6   25 1   
    12    7   26 1   
    13    7   44 1   
    14    7   45 1   
    15    8   13 1   
    16    8   26 1   
    17    9   10 1   
    18    9   46 1   
    19   10   47 1   
    20   11   12 1   
    21   11   14 1   
    22   12   48 1   
    23   13   49 1   
    24   14   27 1   
    25   14   28 1   
    26   15   16 1   
    27   15   17 1   
    28   15   27 1   
    29   15   50 1   
    30   16   29 1   
    31   16   30 1   
    32   17   18 1   
    33   17   51 1   
    34   17   52 1   
    35   18   19 1   
    36   18   53 1   
    37   18   54 1   
    38   19   31 1   
    39   19   55 1   
    40   19   56 1   
    41   21   57 1   
    42   21   58 1   
    43   23   59 1   
    44   23   60 1   
    45   26   61 1   
    46   27   62 1   
    47   31   32 1   
    48   31   63 1   
    49   32   33 1   
    50   32   34 1   
    51   34   35 1   
    52   34   39 1   
    53   35   36 1   
    54   35   40 1   
    55   36   64 1   
    56   37   38 1   
    57   37   65 1   
    58   38   66 1   
    59   39   67 1   
    60   40   41 1   
    61   40   42 1   
@<TRIPOS>SUBSTRUCTURE
     1 COP         1 TEMP              0 ****  ****    0 ROOT
