@<TRIPOS>MOLECULE
COP
   69    72     1     0     0
SMALL
bcc


@<TRIPOS>ATOM
      1 C3          0.9020   -0.2040   -0.7380 ca        1 COP      0.951900
      2 C1          0.5480   -0.3920    1.5790 ca        1 COP      0.718900
      3 C10         1.9850   -0.1530    1.7970 ca        1 COP      0.025000
      4 C8          3.8280    0.0920    3.1560 ca        1 COP      0.222300
      5 C7          4.6470    0.2750    1.9740 ca        1 COP      0.356900
      6 C5          2.7940    0.0330    0.6030 ca        1 COP      0.636000
      7 C11         4.5140    0.1070    4.5020 c3        1 COP      0.173500
      8 C13         4.2290    0.9430    6.7920 ca        1 COP      0.240600
      9 C18         3.4530    1.6720    7.7390 ca        1 COP     -0.230000
     10 C17         3.8040    1.6800    9.0740 ca        1 COP     -0.015000
     11 C16         4.9230    0.9560    9.5340 ca        1 COP     -0.261600
     12 C15         5.6950    0.2330    8.6110 ca        1 COP     -0.015000
     13 C14         5.3580    0.2230    7.2680 ca        1 COP     -0.230000
     14 C19         5.2140    1.0270   10.9610 c         1 COP      0.587700
     15 C21         7.5740    0.5460   11.5980 c3        1 COP     -0.044500
     16 C24         8.5330   -0.4060   10.7510 c         1 COP      0.927600
     17 C27         8.1160    0.6550   13.0150 c3        1 COP     -0.089400
     18 C28         7.3140    1.5760   13.9100 c3        1 COP     -0.138400
     19 C29         6.3570    0.8210   14.8440 c3        1 COP      0.139800
     20 N4          2.2630    0.0040   -0.6560 nb        1 COP     -0.773000
     21 N3          0.3330   -0.1690   -1.9990 nv        1 COP     -0.944500
     22 N2          0.0280   -0.4240    0.3310 nb        1 COP     -0.847000
     23 N1         -0.2870   -0.5790    2.6480 nv        1 COP     -0.953500
     24 N9          2.5180   -0.1180    3.0560 nb        1 COP     -0.598000
     25 N6          4.1730    0.2490    0.7470 nb        1 COP     -0.623000
     26 N12         3.9040    0.9990    5.4530 nu        1 COP     -0.751600
     27 N20         6.1610    0.0340   11.5480 ny        1 COP     -0.658800
     28 O19         4.7280    1.8320   11.7610 o         1 COP     -0.517100
     29 O24         7.9670   -1.3680   10.1610 o         1 COP     -0.772300
     30 O25         9.7340   -0.0830   10.7440 o         1 COP     -0.772300
     31 N30         4.9810    1.2480   14.8670 n8        1 COP     -0.928800
     32 C31         3.4560   -1.2110   14.1710 c         1 COP      0.761200
     33 O32         4.4700   -1.4310   13.5230 o         1 COP     -0.549000
     34 C33         2.8580   -1.7520   15.4090 ca        1 COP     -0.143100
     35 C38         1.6350   -1.0480   15.6220 ca        1 COP     -0.143100
     36 C37         0.8390   -1.3190   16.7130 ca        1 COP     -0.050000
     37 C36         1.2740   -2.3160   17.6100 ca        1 COP     -0.110000
     38 C35         2.4650   -3.0010   17.4020 ca        1 COP     -0.110000
     39 C34         3.2820   -2.7240   16.2880 ca        1 COP     -0.050000
     40 C39         1.4860   -0.0820   14.5100 c         1 COP      0.761200
     41 O40         0.6630    0.7510   14.1810 o         1 COP     -0.549000
     42 O41         2.6040   -0.2210   13.6530 os        1 COP     -0.442200
     43 H7          5.7350    0.4490    2.0800 h4        1 COP      0.041100
     44 H111        4.5280   -0.9520    4.9020 h1        1 COP      0.062200
     45 H112        5.5870    0.4310    4.3540 h1        1 COP      0.062200
     46 H18         2.5720    2.2420    7.4090 ha        1 COP      0.147500
     47 H17         3.2030    2.2560    9.7990 ha        1 COP      0.177500
     48 H15         6.5990   -0.3350    8.9230 ha        1 COP      0.177500
     49 H14         5.9910   -0.3460    6.5700 ha        1 COP      0.147500
     50 H21         7.5940    1.5570   11.1050 hx        1 COP      0.087700
     51 H271        9.1660    1.0470   12.8970 hc        1 COP      0.083700
     52 H272        8.2080   -0.3660   13.4700 hc        1 COP      0.083700
     53 H281        6.7500    2.3160   13.2810 hc        1 COP      0.051700
     54 H282        8.0250    2.1720   14.5410 hc        1 COP      0.051700
     55 H291        6.7550    0.8950   15.8960 h1        1 COP      0.051200
     56 H292        6.3520   -0.2770   14.5770 h1        1 COP      0.051200
     57 HN31       -0.6120   -0.4430   -2.1110 hn        1 COP      0.449300
     58 HN32        0.9250   -0.1370   -2.7920 hn        1 COP      0.449300
     59 HN11        0.0860   -0.6180    3.5630 hn        1 COP      0.452300
     60 HN12       -1.2490   -0.7710    2.5080 hn        1 COP      0.452300
     61 HN2         3.0200    1.3890    5.2170 hn        1 COP      0.440800
     62 HN0         5.8480   -0.2050   12.4980 hn        1 COP      0.473800
     63 HN3         4.5810    1.2380   13.9450 hn        1 COP      0.355800
     64 H37        -0.1040   -0.7790   16.8860 ha        1 COP      0.163500
     65 H36         0.6530   -2.5490   18.4890 ha        1 COP      0.151000
     66 H35         2.7850   -3.7750   18.1180 ha        1 COP      0.151000
     67 H34         4.2260   -3.2680   16.1330 ha        1 COP      0.163500
     68 H202        6.1810   -0.8360   10.9730 hn        1 COP      0.473800
     69 H302        4.9000    2.1760   15.2350 hn        1 COP      0.355800
@<TRIPOS>BOND
     1    1   20 ar  
     2    1   21 1   
     3    1   22 ar  
     4    2    3 ar  
     5    2   22 ar  
     6    2   23 1   
     7    3    6 ar  
     8    3   24 ar  
     9    4    5 ar  
    10    4    7 1   
    11    4   24 ar  
    12    5   25 ar  
    13    5   43 1   
    14    6   20 ar  
    15    6   25 ar  
    16    7   26 1   
    17    7   44 1   
    18    7   45 1   
    19    8    9 ar  
    20    8   13 ar  
    21    8   26 1   
    22    9   10 ar  
    23    9   46 1   
    24   10   11 ar  
    25   10   47 1   
    26   11   12 ar  
    27   11   14 1   
    28   12   13 ar  
    29   12   48 1   
    30   13   49 1   
    31   14   27 1   
    32   14   28 2   
    33   15   16 1   
    34   15   17 1   
    35   15   27 1   
    36   15   50 1   
    37   16   29 1   
    38   16   30 1   
    39   17   18 1   
    40   17   51 1   
    41   17   52 1   
    42   18   19 1   
    43   18   53 1   
    44   18   54 1   
    45   19   31 1   
    46   19   55 1   
    47   19   56 1   
    48   21   57 1   
    49   21   58 1   
    50   23   59 1   
    51   23   60 1   
    52   26   61 1   
    53   27   62 1   
    54   27   68 1   
    55   31   63 1   
    56   31   69 1   
    57   32   33 2   
    58   32   34 1   
    59   32   42 1   
    60   34   35 ar  
    61   34   39 ar  
    62   35   36 ar  
    63   35   40 1   
    64   36   37 ar  
    65   36   64 1   
    66   37   38 ar  
    67   37   65 1   
    68   38   39 ar  
    69   38   66 1   
    70   39   67 1   
    71   40   41 2   
    72   40   42 1   
@<TRIPOS>SUBSTRUCTURE
     1 COP         1 TEMP              0 ****  ****    0 ROOT
