@<TRIPOS>MOLECULE
COP
   67    70     1     0     0
SMALL
bcc


@<TRIPOS>ATOM
      1 C3         -0.0290    0.0660   -0.3100 ca        1 COP      0.916900
      2 C1         -0.1340   -0.2550    2.0160 ca        1 COP      0.712900
      3 C10         1.3180   -0.0240    2.0870 ca        1 COP      0.038000
      4 C8          3.2930    0.1390    3.2600 ca        1 COP      0.254300
      5 C7          3.9820    0.3970    2.0090 ca        1 COP      0.353900
      6 C5          1.9950    0.2300    0.8320 ca        1 COP      0.619000
      7 C11         4.1160    0.0800    4.5270 c3        1 COP      0.125500
      8 C13         5.1230    1.5230    6.2020 ca        1 COP      0.105600
      9 C18         5.1810    2.8180    6.7660 ca        1 COP     -0.187000
     10 C17         5.6400    3.0000    8.0640 ca        1 COP     -0.064500
     11 C16         6.0510    1.9080    8.8370 ca        1 COP     -0.137600
     12 C15         6.0020    0.6260    8.2870 ca        1 COP     -0.064500
     13 C14         5.5450    0.4290    6.9860 ca        1 COP     -0.187000
     14 C19         6.4760    2.1570   10.2550 c         1 COP      0.654700
     15 C21         8.0470    1.5270   12.0710 c3        1 COP     -0.048300
     16 C24         9.6070    1.6820   11.9450 c         1 COP      0.906600
     17 C27         7.7820    0.3640   13.0370 c3        1 COP     -0.069400
     18 C28         6.3190    0.1800   13.3740 c3        1 COP     -0.092400
     19 C29         6.1540   -0.9530   14.3920 c3        1 COP      0.087000
     20 N4          1.3260    0.2630   -0.3670 nb        1 COP     -0.771000
     21 N3         -0.7480    0.2110   -1.5060 nh        1 COP     -0.926500
     22 N2         -0.7860   -0.2180    0.8280 nb        1 COP     -0.850000
     23 N1         -0.8420   -0.5250    3.1550 nh        1 COP     -0.951500
     24 N9          1.9810   -0.0580    3.2880 nb        1 COP     -0.595000
     25 N6          3.3810    0.4440    0.8380 nb        1 COP     -0.636000
     26 N12         4.7110    1.3630    4.8540 nh        1 COP     -0.710600
     27 N20         7.4300    1.3230   10.7730 n         1 COP     -0.501900
     28 O19         5.9050    3.0620   10.9090 o         1 COP     -0.646100
     29 O24        10.1930    2.2880   12.8800 o         1 COP     -0.838300
     30 O25        10.1800    1.1980   10.9270 o         1 COP     -0.838300
     31 N30         4.7810   -1.2460   14.7130 n         1 COP     -0.545900
     32 C31         4.3570   -1.4170   16.0050 c         1 COP      0.673700
     33 O32         5.1200   -1.2350   16.9870 o         1 COP     -0.675100
     34 C33         2.9080   -1.7220   16.2370 ca        1 COP     -0.115600
     35 C38         2.1830   -2.7100   15.5640 ca        1 COP     -0.074600
     36 C37         0.8330   -2.9040   15.9030 ca        1 COP     -0.128000
     37 C36         0.2140   -2.1270   16.8750 ca        1 COP     -0.143000
     38 C35         0.9440   -1.1420   17.5450 ca        1 COP     -0.179000
     39 C34         2.2840   -0.9500   17.2310 ca        1 COP     -0.100000
     40 C39         2.7350   -3.6280   14.4790 c         1 COP      0.909200
     41 O40         3.0290   -3.1190   13.3590 o         1 COP     -0.822300
     42 O41         2.8100   -4.8590   14.7390 o         1 COP     -0.822300
     43 H7          5.0760    0.5720    2.0220 h4        1 COP      0.051100
     44 H111        4.9610   -0.6470    4.3480 h1        1 COP      0.065200
     45 H112        3.4930   -0.3290    5.3780 h1        1 COP      0.065200
     46 H18         4.8610    3.6930    6.1800 ha        1 COP      0.123500
     47 H17         5.6680    4.0070    8.5100 ha        1 COP      0.154000
     48 H15         6.3080   -0.2500    8.8830 ha        1 COP      0.154000
     49 H14         5.5210   -0.5940    6.5820 ha        1 COP      0.123500
     50 H21         7.6370    2.4740   12.5250 h1        1 COP      0.073700
     51 H271        8.1930   -0.5850   12.6030 hc        1 COP      0.047200
     52 H272        8.3650    0.5890   13.9690 hc        1 COP      0.047200
     53 H281        5.7360   -0.0580   12.4460 hc        1 COP      0.044200
     54 H282        5.9040    1.1340   13.7910 hc        1 COP      0.044200
     55 H291        6.7040   -0.6780   15.3370 h1        1 COP      0.044700
     56 H292        6.6390   -1.8830   13.9710 h1        1 COP      0.044700
     57 HN31       -1.6500   -0.2040   -1.5310 hn        1 COP      0.422300
     58 HN32       -0.2180    0.1540   -2.3450 hn        1 COP      0.422300
     59 HN11       -0.3790   -0.5470    4.0300 hn        1 COP      0.454800
     60 HN12       -1.8210   -0.6690    3.1190 hn        1 COP      0.454800
     61 HN2         4.1350    2.1290    4.5600 hn        1 COP      0.377800
     62 HN0         8.0210    0.8320   10.1320 hn        1 COP      0.321500
     63 HN3         4.1930   -1.5670   13.9660 hn        1 COP      0.361500
     64 H37         0.2750   -3.6980   15.3840 ha        1 COP      0.132000
     65 H36        -0.8450   -2.2870   17.1210 ha        1 COP      0.099000
     66 H35         0.4640   -0.5270   18.3170 ha        1 COP      0.102000
     67 H34         2.8790   -0.1940   17.7670 ha        1 COP      0.132000
@<TRIPOS>BOND
     1    1   20 ar  
     2    1   21 1   
     3    1   22 ar  
     4    2    3 ar  
     5    2   22 ar  
     6    2   23 1   
     7    3    6 ar  
     8    3   24 ar  
     9    4    5 ar  
    10    4    7 1   
    11    4   24 ar  
    12    5   25 ar  
    13    5   43 1   
    14    6   20 ar  
    15    6   25 ar  
    16    7   26 1   
    17    7   44 1   
    18    7   45 1   
    19    8    9 ar  
    20    8   13 ar  
    21    8   26 1   
    22    9   10 ar  
    23    9   46 1   
    24   10   11 ar  
    25   10   47 1   
    26   11   12 ar  
    27   11   14 1   
    28   12   13 ar  
    29   12   48 1   
    30   13   49 1   
    31   14   27 1   
    32   14   28 2   
    33   15   16 1   
    34   15   17 1   
    35   15   27 1   
    36   15   50 1   
    37   16   29 1   
    38   16   30 1   
    39   17   18 1   
    40   17   51 1   
    41   17   52 1   
    42   18   19 1   
    43   18   53 1   
    44   18   54 1   
    45   19   31 1   
    46   19   55 1   
    47   19   56 1   
    48   21   57 1   
    49   21   58 1   
    50   23   59 1   
    51   23   60 1   
    52   26   61 1   
    53   27   62 1   
    54   31   32 1   
    55   31   63 1   
    56   32   33 2   
    57   32   34 1   
    58   34   35 ar  
    59   34   39 ar  
    60   35   36 ar  
    61   35   40 1   
    62   36   37 ar  
    63   36   64 1   
    64   37   38 ar  
    65   37   65 1   
    66   38   39 ar  
    67   38   66 1   
    68   39   67 1   
    69   40   41 1   
    70   40   42 1   
@<TRIPOS>SUBSTRUCTURE
     1 COP         1 TEMP              0 ****  ****    0 ROOT
