@<TRIPOS>MOLECULE
COQ
   45    47     1     0     0
SMALL
bcc


@<TRIPOS>ATOM
      1 C2B         1.1420   -0.4190   -4.9090 ca        1 COQ      0.907900
      2 C4B        -0.2790   -1.4130   -3.3300 ca        1 COQ      0.729200
      3 C4A        -0.3960   -0.1320   -2.6450 ca        1 COQ     -0.361600
      4 C5B        -1.1640    0.0790   -1.4780 ca        1 COQ     -0.089000
      5 C6B        -1.2170    1.3390   -0.8970 ca        1 COQ     -0.035700
      6 C7'        -0.4390    2.3810   -1.5350 ca        1 COQ      0.449200
      7 C8A         0.3500    0.9640   -3.2060 ca        1 COQ      0.703300
      8 C9'        -1.3190    2.1600    1.3870 c3        1 COQ      0.226100
      9 C1'        -0.6040    1.1330    2.2230 ca        1 COQ     -0.064300
     10 C2'         0.7780    0.9860    2.1100 ca        1 COQ     -0.180500
     11 C3'         1.4380    0.0440    2.9190 ca        1 COQ      0.156600
     12 C4'         0.7360   -0.7520    3.8320 ca        1 COQ     -0.273000
     13 C5'        -0.6510   -0.5850    3.9240 ca        1 COQ      0.156600
     14 C6'        -1.3280    0.3540    3.1280 ca        1 COQ     -0.180500
     15 C31         3.5100   -0.9720    3.5140 c3        1 COQ      0.113200
     16 C51        -0.8110   -2.2410    5.6300 c3        1 COQ      0.113200
     17 CN'        -3.1170    0.7750    0.4970 c3        1 COQ      0.162100
     18 N1'         1.1330    0.8190   -4.3310 nb        1 COQ     -0.759000
     19 N2'         1.8360   -0.5650   -6.1170 nh        1 COQ     -0.926500
     20 N3'         0.4680   -1.5560   -4.4440 nb        1 COQ     -0.823000
     21 N4'        -0.8920   -2.5420   -2.8010 nh        1 COQ     -0.944500
     22 N8'         0.3020    2.2260   -2.6090 nb        1 COQ     -0.646000
     23 N9'        -2.0320    1.6840    0.2130 nh        1 COQ     -0.619000
     24 O3'         2.8050   -0.0150    2.7330 os        1 COQ     -0.324400
     25 O5'        -1.4630   -1.3060    4.7780 os        1 COQ     -0.324400
     26 H5'        -1.7200   -0.7550   -1.0230 ha        1 COQ      0.132000
     27 H7'        -0.4510    3.4080   -1.1160 h4        1 COQ      0.031100
     28 H9'1       -2.0850    2.6750    2.0380 h1        1 COQ      0.064700
     29 H9'2       -0.5750    2.9360    1.0480 h1        1 COQ      0.064700
     30 H2'         1.3620    1.5910    1.4030 ha        1 COQ      0.152500
     31 H4'         1.2580   -1.4860    4.4590 ha        1 COQ      0.144000
     32 H6'        -2.4160    0.4680    3.2300 ha        1 COQ      0.152500
     33 H311        4.5720   -0.8420    3.1850 h1        1 COQ      0.044867
     34 H312        3.4050   -0.7470    4.6040 h1        1 COQ      0.044867
     35 H313        3.1520   -2.0060    3.2910 h1        1 COQ      0.044867
     36 H511       -1.6520   -2.6770    6.2280 h1        1 COQ      0.044867
     37 H512       -0.3030   -3.0340    5.0300 h1        1 COQ      0.044867
     38 H513       -0.0800   -1.7250    6.2980 h1        1 COQ      0.044867
     39 HCN1       -3.8090    1.2750    1.2260 h1        1 COQ      0.040033
     40 HCN2       -3.6780    0.5660   -0.4510 h1        1 COQ      0.040033
     41 HCN3       -2.7790   -0.2000    0.9440 h1        1 COQ      0.040033
     42 HN21        2.0800   -1.4910   -6.3820 hn        1 COQ      0.427300
     43 HN22        2.4970    0.1450   -6.3360 hn        1 COQ      0.427300
     44 HN41       -0.9030   -3.3670   -3.3560 hn        1 COQ      0.423800
     45 HN42       -1.6900   -2.3880   -2.2340 hn        1 COQ      0.423800
@<TRIPOS>BOND
     1    1   18 ar  
     2    1   19 1   
     3    1   20 ar  
     4    2    3 ar  
     5    2   20 ar  
     6    2   21 1   
     7    3    4 ar  
     8    3    7 ar  
     9    4    5 ar  
    10    4   26 1   
    11    5    6 ar  
    12    5   23 1   
    13    6   22 ar  
    14    6   27 1   
    15    7   18 ar  
    16    7   22 ar  
    17    8    9 1   
    18    8   23 1   
    19    8   28 1   
    20    8   29 1   
    21    9   10 ar  
    22    9   14 ar  
    23   10   11 ar  
    24   10   30 1   
    25   11   12 ar  
    26   11   24 1   
    27   12   13 ar  
    28   12   31 1   
    29   13   14 ar  
    30   13   25 1   
    31   14   32 1   
    32   15   24 1   
    33   15   33 1   
    34   15   34 1   
    35   15   35 1   
    36   16   25 1   
    37   16   36 1   
    38   16   37 1   
    39   16   38 1   
    40   17   23 1   
    41   17   39 1   
    42   17   40 1   
    43   17   41 1   
    44   19   42 1   
    45   19   43 1   
    46   21   44 1   
    47   21   45 1   
@<TRIPOS>SUBSTRUCTURE
     1 COQ         1 TEMP              0 ****  ****    0 ROOT
