@<TRIPOS>MOLECULE
COQ
   48    50     1     0     0
SMALL
bcc


@<TRIPOS>ATOM
      1 C2B         0.3590   -0.1360    0.2160 ca        1 COQ      0.771900
      2 C4B         1.5460   -1.4300    1.7360 ca        1 COQ      0.612200
      3 C4A         2.1740   -0.2450    2.2650 ca        1 COQ     -0.288600
      4 C5B         3.0800   -0.2050    3.3600 ca        1 COQ     -0.035000
      5 C6B         3.7480    0.9750    3.6460 ca        1 COQ     -0.083700
      6 C7'         3.4000    2.1620    2.8840 ca        1 COQ      0.492200
      7 C8A         1.8590    0.9960    1.5860 ca        1 COQ      0.714300
      8 C9'         6.0020    0.2060    4.3630 c3        1 COQ      0.174100
      9 C1'         5.8020   -1.2570    4.5680 ca        1 COQ     -0.110300
     10 C2'         5.2980   -2.0430    3.5190 ca        1 COQ     -0.203000
     11 C3'         5.1530   -3.4230    3.7180 ca        1 COQ      0.180600
     12 C4'         5.5690   -4.0470    4.9000 ca        1 COQ     -0.225000
     13 C5'         6.1120   -3.2510    5.9190 ca        1 COQ      0.180600
     14 C6'         6.2010   -1.8420    5.7630 ca        1 COQ     -0.203000
     15 C31         4.9630   -5.4370    2.4430 c3        1 COQ      0.110200
     16 C51         6.6320   -5.1330    7.3010 c3        1 COQ      0.110200
     17 CN'         4.2490    0.8000    6.0420 c3        1 COQ      0.080100
     18 N1'         0.9170    1.0360    0.5640 nb        1 COQ     -0.542000
     19 N2'        -0.6700   -0.1020   -0.8660 n4        1 COQ     -0.819300
     20 N3'         0.6480   -1.3990    0.7430 nb        1 COQ     -0.659000
     21 N4'         1.9200   -2.7590    2.2650 n4        1 COQ     -0.848300
     22 N8'         2.4940    2.1840    1.9290 nb        1 COQ     -0.539000
     23 N9'         4.7860    1.0700    4.6770 n4        1 COQ     -0.569800
     24 O3'         4.4950   -4.1010    2.7050 os        1 COQ     -0.365400
     25 O5'         6.5560   -3.7120    7.1180 os        1 COQ     -0.365400
     26 H5'         3.2460   -1.1090    3.9770 ha        1 COQ      0.192000
     27 H7'         3.8860    3.1500    3.0820 h4        1 COQ      0.106100
     28 H9'1        6.8240    0.5820    5.0470 hx        1 COQ      0.130700
     29 H9'2        6.2910    0.4190    3.2920 hx        1 COQ      0.130700
     30 H2'         5.1120   -1.6120    2.5260 ha        1 COQ      0.157000
     31 H4'         5.4940   -5.1400    5.0160 ha        1 COQ      0.186000
     32 H6'         6.6270   -1.2530    6.5920 ha        1 COQ      0.157000
     33 H311        4.5400   -6.1300    3.2100 h1        1 COQ      0.077700
     34 H312        6.0790   -5.4690    2.4430 h1        1 COQ      0.077700
     35 H313        4.5600   -5.6630    1.4240 h1        1 COQ      0.077700
     36 H511        7.2920   -5.5910    6.5250 h1        1 COQ      0.077700
     37 H512        5.6080   -5.5780    7.2830 h1        1 COQ      0.077700
     38 H513        7.0910   -5.2220    8.3220 h1        1 COQ      0.077700
     39 HCN1        3.3600    1.4590    6.2390 hx        1 COQ      0.121033
     40 HCN2        3.9610   -0.2810    6.1310 hx        1 COQ      0.121033
     41 HCN3        5.0580    1.0260    6.7930 hx        1 COQ      0.121033
     42 HN21       -1.5720   -0.4470   -0.4960 hn        1 COQ      0.512800
     43 HN22       -0.3690   -0.7040   -1.6510 hn        1 COQ      0.512800
     44 HN41        1.5340   -2.8720    3.2150 hn        1 COQ      0.508467
     45 HN42        2.9590   -2.8410    2.2990 hn        1 COQ      0.508467
     46 H2'3       -0.7940    0.8700   -1.2120 hn        1 COQ      0.512800
     47 H4'3        1.5540   -3.5250    1.6710 hn        1 COQ      0.508467
     48 H9'3        5.1280    2.0490    4.6710 hn        1 COQ      0.476800
@<TRIPOS>BOND
     1    1   18 ar  
     2    1   19 1   
     3    1   20 ar  
     4    2    3 ar  
     5    2   20 ar  
     6    2   21 1   
     7    3    4 ar  
     8    3    7 ar  
     9    4    5 ar  
    10    4   26 1   
    11    5    6 ar  
    12    5   23 1   
    13    6   22 ar  
    14    6   27 1   
    15    7   18 ar  
    16    7   22 ar  
    17    8    9 1   
    18    8   23 1   
    19    8   28 1   
    20    8   29 1   
    21    9   10 ar  
    22    9   14 ar  
    23   10   11 ar  
    24   10   30 1   
    25   11   12 ar  
    26   11   24 1   
    27   12   13 ar  
    28   12   31 1   
    29   13   14 ar  
    30   13   25 1   
    31   14   32 1   
    32   15   24 1   
    33   15   33 1   
    34   15   34 1   
    35   15   35 1   
    36   16   25 1   
    37   16   36 1   
    38   16   37 1   
    39   16   38 1   
    40   17   23 1   
    41   17   39 1   
    42   17   40 1   
    43   17   41 1   
    44   19   42 1   
    45   19   43 1   
    46   19   46 1   
    47   21   44 1   
    48   21   45 1   
    49   21   47 1   
    50   23   48 1   
@<TRIPOS>SUBSTRUCTURE
     1 COQ         1 TEMP              0 ****  ****    0 ROOT
