@<TRIPOS>MOLECULE
COQ
   45    47     1     0     0
SMALL
bcc


@<TRIPOS>ATOM
      1 C2B         0.0850   -0.1380    0.1640 ca        1 COQ      0.907900
      2 C4B         0.3750   -0.9230    2.3560 ca        1 COQ      0.729200
      3 C4A         1.6350   -0.1960    2.4370 ca        1 COQ     -0.361600
      4 C5B         2.4780   -0.1890    3.5720 ca        1 COQ     -0.089000
      5 C6B         3.6610    0.5370    3.5570 ca        1 COQ     -0.035700
      6 C7'         3.9730    1.2460    2.3330 ca        1 COQ      0.449200
      7 C8A         2.0310    0.5350    1.2620 ca        1 COQ      0.703300
      8 C9'         5.8820    0.1990    4.4820 c3        1 COQ      0.226100
      9 C1'         6.0830   -1.2930    4.5250 ca        1 COQ     -0.064300
     10 C2'         6.2350   -2.0070    3.3380 ca        1 COQ     -0.180500
     11 C3'         6.4530   -3.3950    3.3940 ca        1 COQ      0.156600
     12 C4'         6.5160   -4.0750    4.6160 ca        1 COQ     -0.273000
     13 C5'         6.3590   -3.3330    5.7930 ca        1 COQ      0.156600
     14 C6'         6.1450   -1.9450    5.7580 ca        1 COQ     -0.180500
     15 C31         6.7970   -5.4120    2.1710 c3        1 COQ      0.113200
     16 C51         6.6490   -5.2750    7.1430 c3        1 COQ      0.113200
     17 CN'         3.9510    0.3890    5.9580 c3        1 COQ      0.162100
     18 N1'         1.2640    0.5530    0.1170 nb        1 COQ     -0.759000
     19 N2'        -0.7670   -0.0420   -0.9430 nh        1 COQ     -0.926500
     20 N3'        -0.3910   -0.8910    1.2460 nb        1 COQ     -0.823000
     21 N4'        -0.0330   -1.7270    3.4120 nh        1 COQ     -0.944500
     22 N8'         3.2280    1.2540    1.2500 nb        1 COQ     -0.646000
     23 N9'         4.5280    0.6940    4.6710 nh        1 COQ     -0.619000
     24 O3'         6.5980   -4.0030    2.1630 os        1 COQ     -0.324400
     25 O5'         6.3950   -3.8780    7.0620 os        1 COQ     -0.324400
     26 H5'         2.2010   -0.7630    4.4700 ha        1 COQ      0.132000
     27 H7'         4.9020    1.8470    2.2690 h4        1 COQ      0.031100
     28 H9'1        6.2570    0.5890    3.4930 h1        1 COQ      0.064700
     29 H9'2        6.5080    0.6640    5.2990 h1        1 COQ      0.064700
     30 H2'         6.1890   -1.5080    2.3590 ha        1 COQ      0.152500
     31 H4'         6.6860   -5.1580    4.6510 ha        1 COQ      0.144000
     32 H6'         6.0340   -1.3890    6.7000 ha        1 COQ      0.152500
     33 H311        6.8720   -5.6690    1.0830 h1        1 COQ      0.044867
     34 H312        5.9260   -5.9320    2.6390 h1        1 COQ      0.044867
     35 H313        7.7430   -5.6740    2.7030 h1        1 COQ      0.044867
     36 H511        7.6420   -5.5240    6.6960 h1        1 COQ      0.044867
     37 H512        6.6500   -5.4750    8.2450 h1        1 COQ      0.044867
     38 H513        5.8360   -5.8530    6.6390 h1        1 COQ      0.044867
     39 HCN1        4.6460    0.7740    6.7520 h1        1 COQ      0.040033
     40 HCN2        3.7950   -0.7120    6.1300 h1        1 COQ      0.040033
     41 HCN3        2.9650    0.9150    6.0530 h1        1 COQ      0.040033
     42 HN21       -1.4630   -0.7450   -1.0320 hn        1 COQ      0.427300
     43 HN22       -0.3580    0.2830   -1.7890 hn        1 COQ      0.427300
     44 HN41       -0.9530   -2.1030    3.3810 hn        1 COQ      0.423800
     45 HN42        0.3070   -1.4840    4.3110 hn        1 COQ      0.423800
@<TRIPOS>BOND
     1    1   18 ar  
     2    1   19 1   
     3    1   20 ar  
     4    2    3 ar  
     5    2   20 ar  
     6    2   21 1   
     7    3    4 ar  
     8    3    7 ar  
     9    4    5 ar  
    10    4   26 1   
    11    5    6 ar  
    12    5   23 1   
    13    6   22 ar  
    14    6   27 1   
    15    7   18 ar  
    16    7   22 ar  
    17    8    9 1   
    18    8   23 1   
    19    8   28 1   
    20    8   29 1   
    21    9   10 ar  
    22    9   14 ar  
    23   10   11 ar  
    24   10   30 1   
    25   11   12 ar  
    26   11   24 1   
    27   12   13 ar  
    28   12   31 1   
    29   13   14 ar  
    30   13   25 1   
    31   14   32 1   
    32   15   24 1   
    33   15   33 1   
    34   15   34 1   
    35   15   35 1   
    36   16   25 1   
    37   16   36 1   
    38   16   37 1   
    39   16   38 1   
    40   17   23 1   
    41   17   39 1   
    42   17   40 1   
    43   17   41 1   
    44   19   42 1   
    45   19   43 1   
    46   21   44 1   
    47   21   45 1   
@<TRIPOS>SUBSTRUCTURE
     1 COQ         1 TEMP              0 ****  ****    0 ROOT
