@<TRIPOS>MOLECULE
COQ
   45    40     1     0     0
SMALL
bcc


@<TRIPOS>ATOM
      1 C2B        -4.3520   -0.7600   -4.3330 c1        1 COQ      0.190000
      2 C4B        -4.4870   -1.1930   -2.0190 c1        1 COQ      0.207000
      3 C4A        -3.1060   -1.0580   -1.9200 c1        1 COQ     -0.234000
      4 C5B        -2.4720   -1.2110   -0.6850 c1        1 COQ     -0.064000
      5 C6B        -1.1120   -1.0770   -0.5930 c1        1 COQ     -0.054000
      6 C7'        -0.3650   -0.7890   -1.7280 c1        1 COQ     -0.038000
      7 C8A        -2.3710   -0.7760   -3.0310 c1        1 COQ      0.111000
      8 C9'         0.0890   -0.8420    1.5890 c3        1 COQ     -0.017000
      9 C1'         1.3350    0.0500    1.7240 c2        1 COQ     -0.057000
     10 C2'         2.4770   -0.4410    2.3520 c1        1 COQ     -0.186000
     11 C3'         3.6270    0.3420    2.4170 c1        1 COQ      0.111000
     12 C4'         3.6340    1.6150    1.8530 c1        1 COQ     -0.272000
     13 C5'         2.4930    2.1060    1.2250 c1        1 COQ      0.114000
     14 C6'         1.3430    1.3230    1.1610 c2        1 COQ     -0.175000
     15 C31         5.2000    0.3300    4.2010 c3        1 COQ     -0.076000
     16 C51         2.1560    4.4570    1.3560 c3        1 COQ     -0.077000
     17 CN'         1.0340   -2.2940   -0.2110 c3        1 COQ     -0.115000
     18 N1'        -2.9910   -0.6270   -4.2390 n1        1 COQ     -0.175500
     19 N2'        -5.0350   -0.4050   -5.5370 n3        1 COQ     -0.324000
     20 N3'        -5.0950   -1.0450   -3.2130 n1        1 COQ     -0.296000
     21 N4'        -5.7980   -1.5100   -1.5380 n3        1 COQ     -0.340000
     22 N8'        -0.9860   -0.6400   -2.9360 n1        1 COQ     -0.175500
     23 N9'         0.0230   -1.3780    0.2470 n3        1 COQ     -0.226000
     24 O3'         4.8260   -0.2060    2.9420 os        1 COQ     -0.210000
     25 O5'         2.5380    3.3530    0.5510 os        1 COQ     -0.206000
     26 H5'        -3.0010   -1.4150    0.1170 ha        1 COQ      0.135000
     27 H7'         0.6070   -0.6930   -1.6620 ha        1 COQ      0.165000
     28 H9'1       -0.7170   -0.3080    1.7690 h1        1 COQ      0.101500
     29 H9'2        0.1430   -1.5810    2.2350 h1        1 COQ      0.101500
     30 H2'         2.4710   -1.3390    2.7490 ha        1 COQ      0.149000
     31 H4'         4.4450    2.1670    1.8990 ha        1 COQ      0.144000
     32 H6'         0.5380    1.6690    0.7180 ha        1 COQ      0.154000
     33 H311        5.4680    1.2680    4.0910 h1        1 COQ      0.084000
     34 H312        5.9530   -0.1860    4.5660 h1        1 COQ      0.084000
     35 H313        4.4380    0.2770    4.8190 h1        1 COQ      0.084000
     36 H511        2.9100    4.7230    1.9260 h1        1 COQ      0.084333
     37 H512        1.8990    5.2100    0.7790 h1        1 COQ      0.084333
     38 H513        1.3930    4.2020    1.9200 h1        1 COQ      0.084333
     39 HCN1        0.6500   -2.8950   -0.8880 h1        1 COQ      0.081333
     40 HCN2        1.3640   -2.8250    0.5480 h1        1 COQ      0.081333
     41 HCN3        1.7800   -1.7890   -0.6070 h1        1 COQ      0.081333
     42 HN21       -5.9510   -0.3720   -5.5510 hn        1 COQ      0.223500
     43 HN22       -4.5570   -0.2030   -6.2930 hn        1 COQ      0.223500
     44 HN41       -5.9070   -1.8550   -0.6960 hn        1 COQ      0.218500
     45 HN42       -6.5290   -1.3760   -2.0770 hn        1 COQ      0.218500
@<TRIPOS>BOND
     1    1   19 1   
     2    1   20 1   
     3    2    3 1   
     4    2   21 1   
     5    3    4 1   
     6    4   26 1   
     7    5    6 1   
     8    5   23 1   
     9    6   27 1   
    10    7   18 1   
    11    7   22 1   
    12    8    9 1   
    13    8   23 1   
    14    8   28 1   
    15    8   29 1   
    16    9   10 1   
    17    9   14 1   
    18   10   30 1   
    19   11   12 1   
    20   11   24 1   
    21   12   31 1   
    22   13   14 1   
    23   13   25 1   
    24   14   32 1   
    25   15   24 1   
    26   15   33 1   
    27   15   34 1   
    28   15   35 1   
    29   16   25 1   
    30   16   36 1   
    31   16   37 1   
    32   16   38 1   
    33   17   23 1   
    34   17   39 1   
    35   17   40 1   
    36   17   41 1   
    37   19   42 1   
    38   19   43 1   
    39   21   44 1   
    40   21   45 1   
@<TRIPOS>SUBSTRUCTURE
     1 COQ         1 TEMP              0 ****  ****    0 ROOT
