@<TRIPOS>MOLECULE
COQ
   45    47     1     0     0
SMALL
bcc


@<TRIPOS>ATOM
      1 C2B         0.1360   -0.2090    0.1370 ca        1 COQ      0.909900
      2 C4B         0.3620   -0.8830    2.3720 ca        1 COQ      0.731200
      3 C4A         1.6410   -0.1890    2.4400 ca        1 COQ     -0.362600
      4 C5B         2.4820   -0.1810    3.5760 ca        1 COQ     -0.089000
      5 C6B         3.6700    0.5380    3.5580 ca        1 COQ     -0.035700
      6 C7'         3.9850    1.2410    2.3310 ca        1 COQ      0.449200
      7 C8A         2.0510    0.5170    1.2540 ca        1 COQ      0.703300
      8 C9'         5.8910    0.1950    4.4810 c3        1 COQ      0.226100
      9 C1'         6.0880   -1.2960    4.5240 ca        1 COQ     -0.064300
     10 C2'         6.2380   -2.0110    3.3360 ca        1 COQ     -0.180000
     11 C3'         6.4520   -3.4000    3.3910 ca        1 COQ      0.157100
     12 C4'         6.5130   -4.0800    4.6120 ca        1 COQ     -0.273000
     13 C5'         6.3580   -3.3380    5.7900 ca        1 COQ      0.157100
     14 C6'         6.1480   -1.9500    5.7560 ca        1 COQ     -0.180000
     15 C31         6.7740   -5.4180    2.1650 c3        1 COQ      0.113200
     16 C51         6.6390   -5.2830    7.1380 c3        1 COQ      0.113200
     17 CN'         3.9610    0.3890    5.9590 c3        1 COQ      0.162100
     18 N1'         1.2970    0.5120    0.1010 nb        1 COQ     -0.760000
     19 N2'        -0.5850   -0.3360   -1.0560 nv        1 COQ     -0.927500
     20 N3'        -0.3910   -0.8750    1.2520 nb        1 COQ     -0.825000
     21 N4'        -0.0910   -1.6130    3.4630 nv        1 COQ     -0.946500
     22 N8'         3.2460    1.2400    1.2440 nb        1 COQ     -0.646000
     23 N9'         4.5380    0.6940    4.6710 nh        1 COQ     -0.619000
     24 O3'         6.5970   -4.0070    2.1590 os        1 COQ     -0.324900
     25 O5'         6.3930   -3.8840    7.0590 os        1 COQ     -0.324900
     26 H5'         2.2030   -0.7520    4.4740 ha        1 COQ      0.133000
     27 H7'         4.9130    1.8440    2.2680 h4        1 COQ      0.031100
     28 H9'1        6.5190    0.6590    5.2980 h1        1 COQ      0.064700
     29 H9'2        6.2660    0.5850    3.4920 h1        1 COQ      0.064700
     30 H2'         6.1930   -1.5110    2.3570 ha        1 COQ      0.152500
     31 H4'         6.6790   -5.1640    4.6460 ha        1 COQ      0.144000
     32 H6'         6.0390   -1.3940    6.6980 ha        1 COQ      0.152500
     33 H311        6.8440   -5.6750    1.0770 h1        1 COQ      0.045033
     34 H312        5.8960   -5.9260    2.6340 h1        1 COQ      0.045033
     35 H313        7.7170   -5.6950    2.6960 h1        1 COQ      0.045033
     36 H511        7.6310   -5.5370    6.6920 h1        1 COQ      0.045033
     37 H512        5.8230   -5.8560    6.6340 h1        1 COQ      0.045033
     38 H513        6.6390   -5.4840    8.2400 h1        1 COQ      0.045033
     39 HCN1        2.9780    0.9190    6.0550 h1        1 COQ      0.040033
     40 HCN2        3.8010   -0.7120    6.1290 h1        1 COQ      0.040033
     41 HCN3        4.6590    0.7700    6.7520 h1        1 COQ      0.040033
     42 HN21       -1.5360   -0.6130   -0.9770 hn        1 COQ      0.428300
     43 HN22       -0.3690    0.3120   -1.7770 hn        1 COQ      0.428300
     44 HN41       -1.0160   -1.9740    3.4320 hn        1 COQ      0.424800
     45 HN42        0.2430   -1.3360    4.3540 hn        1 COQ      0.424800
@<TRIPOS>BOND
     1    1   18 ar  
     2    1   19 1   
     3    1   20 ar  
     4    2    3 ar  
     5    2   20 ar  
     6    2   21 1   
     7    3    4 ar  
     8    3    7 ar  
     9    4    5 ar  
    10    4   26 1   
    11    5    6 ar  
    12    5   23 1   
    13    6   22 ar  
    14    6   27 1   
    15    7   18 ar  
    16    7   22 ar  
    17    8    9 1   
    18    8   23 1   
    19    8   28 1   
    20    8   29 1   
    21    9   10 ar  
    22    9   14 ar  
    23   10   11 ar  
    24   10   30 1   
    25   11   12 ar  
    26   11   24 1   
    27   12   13 ar  
    28   12   31 1   
    29   13   14 ar  
    30   13   25 1   
    31   14   32 1   
    32   15   24 1   
    33   15   33 1   
    34   15   34 1   
    35   15   35 1   
    36   16   25 1   
    37   16   36 1   
    38   16   37 1   
    39   16   38 1   
    40   17   23 1   
    41   17   39 1   
    42   17   40 1   
    43   17   41 1   
    44   19   42 1   
    45   19   43 1   
    46   21   44 1   
    47   21   45 1   
@<TRIPOS>SUBSTRUCTURE
     1 COQ         1 TEMP              0 ****  ****    0 ROOT
