@<TRIPOS>MOLECULE
COR
   44    45     1     0     0
SMALL
bcc


@<TRIPOS>ATOM
      1 C1          0.6660   -0.4100   -0.1450 c3        1 COR     -0.047100
      2 C2          1.6040    0.3240    0.8310 c3        1 COR      0.094000
      3 N2          0.8620    0.6570    2.0930 n4        1 COR     -0.833600
      4 C3          2.2320    1.5730    0.1400 c3        1 COR      0.120100
      5 O3          2.3430    2.5770    1.1290 oh        1 COR     -0.603800
      6 C4          3.6590    1.2750   -0.4040 c3        1 COR      0.094000
      7 N4          3.6480    0.4190   -1.6350 n4        1 COR     -0.833600
      8 C5          4.4010    2.5990   -0.6870 c3        1 COR     -0.047100
      9 C1A        -0.1080   -1.4890    0.5250 ca        1 COR     -0.196300
     10 C2A        -1.4980   -1.5480    0.3640 ca        1 COR     -0.132500
     11 C3A        -2.2250   -2.5930    0.9360 ca        1 COR     -0.104500
     12 C4A        -1.5710   -3.5830    1.6690 ca        1 COR     -0.077000
     13 C5A        -0.1830   -3.5290    1.8300 ca        1 COR     -0.104500
     14 C6A         0.5460   -2.4900    1.2590 ca        1 COR     -0.132500
     15 C1B         5.6970    2.3680   -1.3770 ca        1 COR     -0.196300
     16 C2B         5.7690    2.4410   -2.7770 ca        1 COR     -0.132500
     17 C3B         6.9930    2.2860   -3.4230 ca        1 COR     -0.104500
     18 C4B         8.1540    2.0580   -2.6790 ca        1 COR     -0.077000
     19 C5B         8.0870    1.9890   -1.2870 ca        1 COR     -0.104500
     20 C6B         6.8630    2.1450   -0.6360 ca        1 COR     -0.132500
     21 H11        -0.0340    0.3250   -0.6290 hc        1 COR      0.083950
     22 H12         1.2960   -0.8630   -0.9570 hc        1 COR      0.083950
     23 H2          2.4360   -0.3760    1.1500 hx        1 COR      0.116700
     24 HN21        1.4960    1.1090    2.7630 hn        1 COR      0.475633
     25 HN22        0.4750   -0.2150    2.4880 hn        1 COR      0.475633
     26 H3          1.5600    1.9190   -0.6970 h1        1 COR      0.085700
     27 HO3         2.4130    3.4420    0.6920 ho        1 COR      0.472000
     28 H4          4.2490    0.7080    0.3800 hx        1 COR      0.116700
     29 HN41        3.0190    0.8110   -2.3420 hn        1 COR      0.475633
     30 HN42        3.3620   -0.5380   -1.4170 hn        1 COR      0.475633
     31 H51         4.5860    3.0940    0.3080 hc        1 COR      0.083950
     32 H52         3.7460    3.2770   -1.2970 hc        1 COR      0.083950
     33 H2A        -2.0240   -0.7840   -0.2310 ha        1 COR      0.134250
     34 H3A        -3.3190   -2.6390    0.7960 ha        1 COR      0.170250
     35 H4A        -2.1460   -4.4140    2.1140 ha        1 COR      0.176000
     36 H5A         0.3350   -4.3190    2.3980 ha        1 COR      0.170250
     37 H6A         1.6410   -2.4810    1.3580 ha        1 COR      0.134250
     38 H2B         4.8710    2.6800   -3.3680 ha        1 COR      0.134250
     39 H3B         7.0510    2.3640   -4.5220 ha        1 COR      0.170250
     40 H4B         9.1250    1.9500   -3.1920 ha        1 COR      0.176000
     41 H5B         9.0050    1.8280   -0.6980 ha        1 COR      0.170250
     42 H6B         6.8240    2.1190    0.4640 ha        1 COR      0.134250
     43 H23         0.0930    1.3040    1.8870 hn        1 COR      0.475633
     44 H43         4.6090    0.4100   -2.0310 hn        1 COR      0.475633
@<TRIPOS>BOND
     1    1    2 1   
     2    1    9 1   
     3    1   21 1   
     4    1   22 1   
     5    2    3 1   
     6    2    4 1   
     7    2   23 1   
     8    3   24 1   
     9    3   25 1   
    10    3   43 1   
    11    4    5 1   
    12    4    6 1   
    13    4   26 1   
    14    5   27 1   
    15    6    7 1   
    16    6    8 1   
    17    6   28 1   
    18    7   29 1   
    19    7   30 1   
    20    7   44 1   
    21    8   15 1   
    22    8   31 1   
    23    8   32 1   
    24    9   10 ar  
    25    9   14 ar  
    26   10   11 ar  
    27   10   33 1   
    28   11   12 ar  
    29   11   34 1   
    30   12   13 ar  
    31   12   35 1   
    32   13   14 ar  
    33   13   36 1   
    34   14   37 1   
    35   15   16 ar  
    36   15   20 ar  
    37   16   17 ar  
    38   16   38 1   
    39   17   18 ar  
    40   17   39 1   
    41   18   19 ar  
    42   18   40 1   
    43   19   20 ar  
    44   19   41 1   
    45   20   42 1   
@<TRIPOS>SUBSTRUCTURE
     1 COR         1 TEMP              0 ****  ****    0 ROOT
