@<TRIPOS>MOLECULE
COR
   42    39     1     0     0
SMALL
bcc


@<TRIPOS>ATOM
      1 C1         -2.6540   -0.7720   -0.1000 c3        1 COR     -0.143500
      2 C2         -1.2610   -0.4630    0.3250 c3        1 COR     -0.039000
      3 N2         -1.2410   -0.2210    1.6880 n3        1 COR     -0.334500
      4 C3         -0.7450    0.8260   -0.4540 c3        1 COR     -0.010000
      5 O3         -1.1510    2.0150    0.2620 oh        1 COR     -0.335000
      6 C4          0.7890    0.7900   -0.5580 c3        1 COR     -0.039000
      7 N4          1.1750   -0.2150   -1.4630 n3        1 COR     -0.334500
      8 C5          1.3020    2.1600   -1.0570 c3        1 COR     -0.143500
      9 C1A        -3.0170   -2.1550    0.3450 c2        1 COR     -0.073000
     10 C2A        -3.6800   -2.3420    1.5460 c1        1 COR     -0.113500
     11 C3A        -4.1150   -3.6140    1.9120 c1        1 COR     -0.130250
     12 C4A        -3.8860   -4.6850    1.0800 c1        1 COR     -0.130250
     13 C5A        -3.2240   -4.4990   -0.1210 c1        1 COR     -0.130000
     14 C6A        -2.7890   -3.2280   -0.4880 c2        1 COR     -0.135500
     15 C1B         2.7840    2.3390   -0.6480 c2        1 COR     -0.073000
     16 C2B         3.7910    2.1700   -1.5970 c2        1 COR     -0.135500
     17 C3B         5.1060    2.4410   -1.2660 c1        1 COR     -0.130000
     18 C4B         5.4240    2.8820    0.0090 c1        1 COR     -0.130250
     19 C5B         4.4210    3.0520    0.9570 c1        1 COR     -0.130250
     20 C6B         3.1020    2.7800    0.6260 c1        1 COR     -0.113500
     21 H11        -2.7170   -0.7160   -1.0710 hc        1 COR      0.092250
     22 H12        -3.2700   -0.1240    0.3060 hc        1 COR      0.092250
     23 H2         -0.6740   -1.2320    0.1180 h1        1 COR      0.117500
     24 HN21       -0.4790   -0.6270    2.0700 hn        1 COR      0.150750
     25 HN22       -1.2130    0.6670    1.8350 hn        1 COR      0.150750
     26 H3         -1.1330    0.8400   -1.3570 h1        1 COR      0.074000
     27 HO3        -1.8490    2.3960   -0.1630 ho        1 COR      0.206000
     28 H4          1.1700    0.6010    0.3210 h1        1 COR      0.117500
     29 HN41        1.2560    0.1480   -2.3140 hn        1 COR      0.150750
     30 HN42        1.9940   -0.5730   -1.2000 hn        1 COR      0.150750
     31 H51         1.2260    2.2020   -2.0360 hc        1 COR      0.092250
     32 H52         0.7640    2.8750   -0.6580 hc        1 COR      0.092250
     33 H2A        -3.8420   -1.5850    2.1340 ha        1 COR      0.142000
     34 H3A        -4.5740   -3.7440    2.7450 ha        1 COR      0.131000
     35 H4A        -4.1870   -5.5640    1.3330 ha        1 COR      0.131000
     36 H5A        -3.0640   -5.2480   -0.7030 ha        1 COR      0.130000
     37 H6A        -2.3260   -3.0980   -1.3270 ha        1 COR      0.126000
     38 H2B         3.5670    1.8590   -2.4980 ha        1 COR      0.126000
     39 H3B         5.8180    2.3210   -1.9380 ha        1 COR      0.130000
     40 H4B         6.3740    3.0780    0.2470 ha        1 COR      0.131000
     41 H5B         4.6450    3.3610    1.8520 ha        1 COR      0.131000
     42 H6B         2.3840    2.9020    1.3040 ha        1 COR      0.142000
@<TRIPOS>BOND
     1    1    2 1   
     2    1    9 1   
     3    1   21 1   
     4    1   22 1   
     5    2    3 1   
     6    2    4 1   
     7    2   23 1   
     8    3   24 1   
     9    3   25 1   
    10    4    5 1   
    11    4    6 1   
    12    4   26 1   
    13    5   27 1   
    14    6    7 1   
    15    6    8 1   
    16    6   28 1   
    17    7   29 1   
    18    7   30 1   
    19    8   15 1   
    20    8   31 1   
    21    8   32 1   
    22    9   10 1   
    23    9   14 1   
    24   10   33 1   
    25   11   12 1   
    26   11   34 1   
    27   12   35 1   
    28   13   14 1   
    29   13   36 1   
    30   14   37 1   
    31   15   16 1   
    32   15   20 1   
    33   16   17 1   
    34   16   38 1   
    35   17   39 1   
    36   18   19 1   
    37   18   40 1   
    38   19   41 1   
    39   20   42 1   
@<TRIPOS>SUBSTRUCTURE
     1 COR         1 TEMP              0 ****  ****    0 ROOT
