@<TRIPOS>MOLECULE
COR
   44    45     1     0     0
SMALL
bcc


@<TRIPOS>ATOM
      1 C1          0.6570   -0.3900   -0.1220 c3        1 COR     -0.047100
      2 C2          1.6210    0.3120    0.8520 c3        1 COR      0.094000
      3 N2          0.9080    0.6250    2.1350 nz        1 COR     -0.833600
      4 C3          2.2490    1.5700    0.1760 c3        1 COR      0.120100
      5 O3          2.3900    2.5500    1.1840 oh        1 COR     -0.603800
      6 C4          3.6620    1.2690   -0.4020 c3        1 COR      0.094000
      7 N4          3.6180    0.4400   -1.6510 nz        1 COR     -0.833600
      8 C5          4.4120    2.5910   -0.6710 c3        1 COR     -0.047100
      9 C1A        -0.1170   -1.4750    0.5400 ca        1 COR     -0.196300
     10 C2A        -1.5100   -1.5160    0.4050 ca        1 COR     -0.132500
     11 C3A        -2.2370   -2.5660    0.9680 ca        1 COR     -0.104500
     12 C4A        -1.5800   -3.5790    1.6660 ca        1 COR     -0.077000
     13 C5A        -0.1880   -3.5430    1.8010 ca        1 COR     -0.104500
     14 C6A         0.5410   -2.4990    1.2380 ca        1 COR     -0.132500
     15 C1B         5.6920    2.3620   -1.3920 ca        1 COR     -0.196300
     16 C2B         5.7370    2.4650   -2.7910 ca        1 COR     -0.132500
     17 C3B         6.9470    2.3120   -3.4640 ca        1 COR     -0.104500
     18 C4B         8.1200    2.0560   -2.7480 ca        1 COR     -0.077000
     19 C5B         8.0790    1.9570   -1.3570 ca        1 COR     -0.104500
     20 C6B         6.8700    2.1120   -0.6790 ca        1 COR     -0.132500
     21 H11         1.2650   -0.8310   -0.9560 hc        1 COR      0.083950
     22 H12        -0.0450    0.3630   -0.5760 hc        1 COR      0.083950
     23 H2          2.4510   -0.4040    1.1380 hx        1 COR      0.116700
     24 HN21        0.1420    1.2840    1.9590 hn        1 COR      0.475633
     25 HN22        0.5190   -0.2520    2.5180 hn        1 COR      0.475633
     26 H3          1.5640    1.9410   -0.6400 h1        1 COR      0.085700
     27 HO3         2.4620    3.4240    0.7660 ho        1 COR      0.472000
     28 H4          4.2610    0.6790    0.3570 hx        1 COR      0.116700
     29 HN41        4.5710    0.4310   -2.0670 hn        1 COR      0.475633
     30 HN42        2.9790    0.8550   -2.3370 hn        1 COR      0.475633
     31 H51         3.7530    3.2890   -1.2530 hc        1 COR      0.083950
     32 H52         4.6220    3.0620    0.3300 hc        1 COR      0.083950
     33 H2A        -2.0390   -0.7340   -0.1620 ha        1 COR      0.134250
     34 H3A        -3.3330   -2.5980    0.8500 ha        1 COR      0.170250
     35 H4A        -2.1540   -4.4130    2.1030 ha        1 COR      0.176000
     36 H5A         0.3320   -4.3520    2.3410 ha        1 COR      0.170250
     37 H6A         1.6380   -2.5050    1.3150 ha        1 COR      0.134250
     38 H2B         4.8310    2.7260   -3.3580 ha        1 COR      0.134250
     39 H3B         6.9840    2.4120   -4.5620 ha        1 COR      0.170250
     40 H4B         9.0790    1.9490   -3.2830 ha        1 COR      0.176000
     41 H5B         9.0070    1.7740   -0.7890 ha        1 COR      0.170250
     42 H6B         6.8520    2.0620    0.4210 ha        1 COR      0.134250
     43 H23         1.5600    1.0550    2.8030 hn        1 COR      0.475633
     44 H43         3.3260   -0.5190   -1.4490 hn        1 COR      0.475633
@<TRIPOS>BOND
     1    1    2 1   
     2    1    9 1   
     3    1   21 1   
     4    1   22 1   
     5    2    3 1   
     6    2    4 1   
     7    2   23 1   
     8    3   24 1   
     9    3   25 1   
    10    3   43 1   
    11    4    5 1   
    12    4    6 1   
    13    4   26 1   
    14    5   27 1   
    15    6    7 1   
    16    6    8 1   
    17    6   28 1   
    18    7   29 1   
    19    7   30 1   
    20    7   44 1   
    21    8   15 1   
    22    8   31 1   
    23    8   32 1   
    24    9   10 ar  
    25    9   14 ar  
    26   10   11 ar  
    27   10   33 1   
    28   11   12 ar  
    29   11   34 1   
    30   12   13 ar  
    31   12   35 1   
    32   13   14 ar  
    33   13   36 1   
    34   14   37 1   
    35   15   16 ar  
    36   15   20 ar  
    37   16   17 ar  
    38   16   38 1   
    39   17   18 ar  
    40   17   39 1   
    41   18   19 ar  
    42   18   40 1   
    43   19   20 ar  
    44   19   41 1   
    45   20   42 1   
@<TRIPOS>SUBSTRUCTURE
     1 COR         1 TEMP              0 ****  ****    0 ROOT
