@<TRIPOS>MOLECULE
COR
   44    45     1     0     0
SMALL
bcc


@<TRIPOS>ATOM
      1 C1          0.6600   -0.3910   -0.1250 c3        1 COR     -0.047100
      2 C2          1.6180    0.3230    0.8460 c3        1 COR      0.094000
      3 N2          0.8970    0.6500    2.1220 n4        1 COR     -0.833600
      4 C3          2.2490    1.5730    0.1600 c3        1 COR      0.120100
      5 O3          2.3820    2.5670    1.1570 oh        1 COR     -0.603800
      6 C4          3.6660    1.2670   -0.4060 c3        1 COR      0.094000
      7 N4          3.6320    0.4210   -1.6430 n4        1 COR     -0.833600
      8 C5          4.4160    2.5870   -0.6880 c3        1 COR     -0.047100
      9 C1A        -0.1160   -1.4690    0.5450 ca        1 COR     -0.196300
     10 C2A        -1.5080   -1.5130    0.4030 ca        1 COR     -0.132250
     11 C3A        -2.2370   -2.5570    0.9740 ca        1 COR     -0.104500
     12 C4A        -1.5830   -3.5610    1.6870 ca        1 COR     -0.077000
     13 C5A        -0.1930   -3.5230    1.8290 ca        1 COR     -0.104500
     14 C6A         0.5380   -2.4850    1.2580 ca        1 COR     -0.132250
     15 C1B         5.7000    2.3510   -1.3980 ca        1 COR     -0.196300
     16 C2B         5.7530    2.4340   -2.7980 ca        1 COR     -0.132250
     17 C3B         6.9670    2.2740   -3.4630 ca        1 COR     -0.104500
     18 C4B         8.1360    2.0330   -2.7360 ca        1 COR     -0.077000
     19 C5B         8.0880    1.9540   -1.3440 ca        1 COR     -0.104500
     20 C6B         6.8740    2.1150   -0.6750 ca        1 COR     -0.132250
     21 H11         1.2730   -0.8410   -0.9500 hc        1 COR      0.083950
     22 H12        -0.0400    0.3560   -0.5910 hc        1 COR      0.083950
     23 H2          2.4470   -0.3890    1.1460 hx        1 COR      0.116700
     24 HN21        1.5450    1.0880    2.7880 hn        1 COR      0.475633
     25 HN22        0.1320    1.3070    1.9330 hn        1 COR      0.475633
     26 H3          1.5700    1.9330   -0.6650 h1        1 COR      0.085700
     27 HO3         2.4550    3.4350    0.7280 ho        1 COR      0.472000
     28 H4          4.2620    0.6900    0.3660 hx        1 COR      0.116700
     29 HN41        2.9970    0.8250   -2.3390 hn        1 COR      0.475633
     30 HN42        4.5880    0.4070   -2.0520 hn        1 COR      0.475633
     31 H51         4.6180    3.0730    0.3080 hc        1 COR      0.083950
     32 H52         3.7580    3.2760   -1.2840 hc        1 COR      0.083950
     33 H2A        -2.0350   -0.7370   -0.1760 ha        1 COR      0.134250
     34 H3A        -3.3330   -2.5910    0.8500 ha        1 COR      0.170250
     35 H4A        -2.1600   -4.3910    2.1310 ha        1 COR      0.176000
     36 H5A         0.3260   -4.3250    2.3810 ha        1 COR      0.170250
     37 H6A         1.6350   -2.4880    1.3410 ha        1 COR      0.134250
     38 H2B         4.8490    2.6840   -3.3740 ha        1 COR      0.134250
     39 H3B         7.0100    2.3590   -4.5610 ha        1 COR      0.170250
     40 H4B         9.0990    1.9210   -3.2640 ha        1 COR      0.176000
     41 H5B         9.0130    1.7820   -0.7680 ha        1 COR      0.170250
     42 H6B         6.8500    2.0810    0.4260 ha        1 COR      0.134250
     43 H23         0.5070   -0.2220    2.5120 hn        1 COR      0.475633
     44 H43         3.3400   -0.5350   -1.4290 hn        1 COR      0.475633
@<TRIPOS>BOND
     1    1    2 1   
     2    1    9 1   
     3    1   21 1   
     4    1   22 1   
     5    2    3 1   
     6    2    4 1   
     7    2   23 1   
     8    3   24 1   
     9    3   25 1   
    10    3   43 1   
    11    4    5 1   
    12    4    6 1   
    13    4   26 1   
    14    5   27 1   
    15    6    7 1   
    16    6    8 1   
    17    6   28 1   
    18    7   29 1   
    19    7   30 1   
    20    7   44 1   
    21    8   15 1   
    22    8   31 1   
    23    8   32 1   
    24    9   10 ar  
    25    9   14 ar  
    26   10   11 ar  
    27   10   33 1   
    28   11   12 ar  
    29   11   34 1   
    30   12   13 ar  
    31   12   35 1   
    32   13   14 ar  
    33   13   36 1   
    34   14   37 1   
    35   15   16 ar  
    36   15   20 ar  
    37   16   17 ar  
    38   16   38 1   
    39   17   18 ar  
    40   17   39 1   
    41   18   19 ar  
    42   18   40 1   
    43   19   20 ar  
    44   19   41 1   
    45   20   42 1   
@<TRIPOS>SUBSTRUCTURE
     1 COR         1 TEMP              0 ****  ****    0 ROOT
