@<TRIPOS>MOLECULE
COR
   42    43     1     0     0
SMALL
bcc


@<TRIPOS>ATOM
      1 C1          0.4680   -0.9800   -2.4840 c3        1 COR     -0.079600
      2 C2          0.1610   -0.0660   -1.2780 c3        1 COR      0.137000
      3 N2          0.6730    1.2850   -1.3980 n3        1 COR     -0.900300
      4 C3          0.6880   -0.7820   -0.0070 c3        1 COR      0.154100
      5 O3          2.1010   -0.7240    0.0740 oh        1 COR     -0.601800
      6 C4          0.0290   -0.2140    1.2780 c3        1 COR      0.137000
      7 N4         -1.3960   -0.4820    1.3000 n3        1 COR     -0.900300
      8 C5          0.7940   -0.7580    2.5040 c3        1 COR     -0.079600
      9 C1A         0.0370   -0.3700   -3.7690 ca        1 COR     -0.083800
     10 C2A         0.9270    0.4160   -4.5130 ca        1 COR     -0.131250
     11 C3A         0.5250    0.9850   -5.7200 ca        1 COR     -0.126000
     12 C4A        -0.7680    0.7750   -6.1960 ca        1 COR     -0.131500
     13 C5A        -1.6600   -0.0070   -5.4610 ca        1 COR     -0.126000
     14 C6A        -1.2600   -0.5770   -4.2540 ca        1 COR     -0.131250
     15 C1B         0.2370   -0.2340    3.7790 ca        1 COR     -0.083800
     16 C2B        -0.7910   -0.9190    4.4370 ca        1 COR     -0.131250
     17 C3B        -1.3090   -0.4300    5.6350 ca        1 COR     -0.126000
     18 C4B        -0.8070    0.7480    6.1860 ca        1 COR     -0.131500
     19 C5B         0.2180    1.4360    5.5350 ca        1 COR     -0.126000
     20 C6B         0.7380    0.9480    4.3380 ca        1 COR     -0.131250
     21 H11         1.5690   -1.1960   -2.5050 hc        1 COR      0.058700
     22 H12        -0.0640   -1.9560   -2.3320 hc        1 COR      0.058700
     23 H2         -0.9630    0.0130   -1.1850 h1        1 COR      0.085200
     24 HN21        1.6430    1.2660   -1.6530 hn        1 COR      0.349300
     25 HN22        0.1680    1.7770   -2.1100 hn        1 COR      0.349300
     26 H3          0.4720   -1.8850   -0.0960 h1        1 COR      0.069700
     27 HO3         2.3490    0.1830    0.2930 ho        1 COR      0.406000
     28 H4          0.1540    0.9100    1.2630 h1        1 COR      0.085200
     29 HN41       -1.5660   -1.4660    1.3790 hn        1 COR      0.349300
     30 HN42       -1.8130   -0.0210    2.0870 hn        1 COR      0.349300
     31 H51         0.7550   -1.8800    2.4970 hc        1 COR      0.058700
     32 H52         1.8740   -0.4670    2.4120 hc        1 COR      0.058700
     33 H2A         1.9510    0.5780   -4.1430 ha        1 COR      0.131250
     34 H3A         1.2320    1.5980   -6.2980 ha        1 COR      0.131750
     35 H4A        -1.0850    1.2230   -7.1490 ha        1 COR      0.132000
     36 H5A        -2.6800   -0.1760   -5.8350 ha        1 COR      0.131750
     37 H6A        -1.9650   -1.1930   -3.6760 ha        1 COR      0.131250
     38 H2B        -1.1850   -1.8530    4.0100 ha        1 COR      0.131250
     39 H3B        -2.1150   -0.9770    6.1470 ha        1 COR      0.131750
     40 H4B        -1.2160    1.1340    7.1310 ha        1 COR      0.132000
     41 H5B         0.6170    2.3650    5.9670 ha        1 COR      0.131750
     42 H6B         1.5470    1.4930    3.8280 ha        1 COR      0.131250
@<TRIPOS>BOND
     1    1    2 1   
     2    1    9 1   
     3    1   21 1   
     4    1   22 1   
     5    2    3 1   
     6    2    4 1   
     7    2   23 1   
     8    3   24 1   
     9    3   25 1   
    10    4    5 1   
    11    4    6 1   
    12    4   26 1   
    13    5   27 1   
    14    6    7 1   
    15    6    8 1   
    16    6   28 1   
    17    7   29 1   
    18    7   30 1   
    19    8   15 1   
    20    8   31 1   
    21    8   32 1   
    22    9   10 ar  
    23    9   14 ar  
    24   10   11 ar  
    25   10   33 1   
    26   11   12 ar  
    27   11   34 1   
    28   12   13 ar  
    29   12   35 1   
    30   13   14 ar  
    31   13   36 1   
    32   14   37 1   
    33   15   16 ar  
    34   15   20 ar  
    35   16   17 ar  
    36   16   38 1   
    37   17   18 ar  
    38   17   39 1   
    39   18   19 ar  
    40   18   40 1   
    41   19   20 ar  
    42   19   41 1   
    43   20   42 1   
@<TRIPOS>SUBSTRUCTURE
     1 COR         1 TEMP              0 ****  ****    0 ROOT
