@<TRIPOS>MOLECULE
COU
   17    13     1     0     0
SMALL
bcc


@<TRIPOS>ATOM
      1 C1         -0.8250    0.0000   -2.4640 c1        1 COU      0.333000
      2 C2          0.5660    0.0000   -2.4640 c1        1 COU     -0.232000
      3 C3          1.2530    0.0000   -1.2740 c1        1 COU     -0.024000
      4 C4          0.5560    0.0000   -0.0680 c1        1 COU     -0.145000
      5 C5          1.2580    0.0000    1.1530 c1        1 COU     -0.115500
      6 C6          0.5610    0.0000    2.3550 c1        1 COU     -0.115500
      7 C7         -0.8300    0.0000    2.3530 c1        1 COU     -0.115500
      8 C8         -1.5240    0.0000    1.1490 c1        1 COU     -0.115500
      9 C9         -0.8180    0.0000   -0.0690 c1        1 COU      0.106000
     10 O1         -1.4320   -0.0000   -3.5160 o         1 COU     -0.288000
     11 O2         -1.5120    0.0000   -1.2760 o         1 COU     -0.188000
     12 H2          1.0540    0.0000   -3.3090 ha        1 COU      0.170000
     13 H3          2.2300    0.0000   -1.2740 ha        1 COU      0.148000
     14 H5          2.2340    0.0000    1.1550 ha        1 COU      0.145750
     15 H6          1.0480    0.0000    3.2010 ha        1 COU      0.145750
     16 H7         -1.3190    0.0000    3.1980 ha        1 COU      0.145750
     17 H8         -2.5000    0.0000    1.1490 ha        1 COU      0.145750
@<TRIPOS>BOND
     1    1    2 1   
     2    1   10 1   
     3    2   12 1   
     4    3    4 1   
     5    3   13 1   
     6    4    9 1   
     7    5    6 1   
     8    5   14 1   
     9    6   15 1   
    10    7    8 1   
    11    7   16 1   
    12    8   17 1   
    13    9   11 1   
@<TRIPOS>SUBSTRUCTURE
     1 COU         1 TEMP              0 ****  ****    0 ROOT
