@<TRIPOS>MOLECULE
COU
   17    18     1     0     0
SMALL
bcc


@<TRIPOS>ATOM
      1 C1         -2.0900    0.2270    0.0010 c         1 COU      0.717800
      2 C2         -1.8740   -1.2140    0.0000 cc        1 COU     -0.251200
      3 C3         -0.6260   -1.7240    0.0000 cd        1 COU     -0.012200
      4 C4          0.5100   -0.8350    0.0000 ca        1 COU     -0.155800
      5 C5          1.8380   -1.2940   -0.0000 ca        1 COU     -0.072000
      6 C6          2.8890   -0.3890   -0.0000 ca        1 COU     -0.159000
      7 C7          2.6380    0.9910    0.0000 ca        1 COU     -0.083000
      8 C8          1.3390    1.4760    0.0010 ca        1 COU     -0.148000
      9 C9          0.2740    0.5540    0.0000 ca        1 COU      0.151100
     10 O1         -3.1470    0.8560    0.0010 o         1 COU     -0.563500
     11 O2         -0.9950    1.0930    0.0010 os        1 COU     -0.323200
     12 H2         -2.7830   -1.8330    0.0000 ha        1 COU      0.170000
     13 H3         -0.4390   -2.8090   -0.0000 ha        1 COU      0.148000
     14 H5          2.0330   -2.3770   -0.0000 ha        1 COU      0.139000
     15 H6          3.9280   -0.7510   -0.0000 ha        1 COU      0.141000
     16 H7          3.4830    1.6970    0.0000 ha        1 COU      0.142000
     17 H8          1.1220    2.5540    0.0010 ha        1 COU      0.161000
@<TRIPOS>BOND
     1    1    2 1   
     2    1   10 2   
     3    1   11 1   
     4    2    3 2   
     5    2   12 1   
     6    3    4 1   
     7    3   13 1   
     8    4    5 ar  
     9    4    9 ar  
    10    5    6 ar  
    11    5   14 1   
    12    6    7 ar  
    13    6   15 1   
    14    7    8 ar  
    15    7   16 1   
    16    8    9 ar  
    17    8   17 1   
    18    9   11 1   
@<TRIPOS>SUBSTRUCTURE
     1 COU         1 TEMP              0 ****  ****    0 ROOT
