@<TRIPOS>MOLECULE
COV
   76    79     1     0     0
SMALL
bcc


@<TRIPOS>ATOM
      1 C1          0.6480   -0.6430   -0.4100 c3        1 COV      0.186300
      2 C20        -7.0730   -0.0170    5.5170 c3        1 COV      0.164800
      3 C2          2.1640   -0.7040   -0.2550 c3        1 COV     -0.146400
      4 C25       -10.4700    2.6210    3.1190 c3        1 COV      0.149800
      5 C26       -11.4690    2.4400    1.9780 c3        1 COV     -0.124100
      6 C27       -11.1660    3.2590    4.3140 c3        1 COV     -0.124100
      7 C3          2.5730   -0.4580    1.1930 c3        1 COV      0.146100
      8 C4          1.9340   -1.4920    2.1160 c3        1 COV     -0.035200
      9 C5          0.4490   -1.4950    1.9650 ce        1 COV     -0.076200
     10 C6         -0.3430   -1.4840    3.0570 cf        1 COV     -0.106000
     11 C7         -1.7870   -1.4520    3.0350 cf        1 COV     -0.150000
     12 C8         -2.5950   -1.8840    4.0180 c2        1 COV     -0.079400
     13 C9         -2.1360   -2.5670    5.2650 c3        1 COV     -0.043200
     14 C10        -0.0510   -1.5300    0.5910 ce        1 COV     -0.068200
     15 C11        -2.8130   -2.0570    6.5260 c3        1 COV     -0.072400
     16 C12        -4.3170   -1.8870    6.4020 c3        1 COV     -0.068400
     17 C13        -4.6670   -1.0640    5.1710 c3        1 COV     -0.033000
     18 C14        -4.0780   -1.8170    3.9430 c3        1 COV     -0.036500
     19 C15        -4.7760   -1.1730    2.7530 c3        1 COV     -0.072400
     20 C16        -6.1750   -0.8330    3.2710 c3        1 COV     -0.077400
     21 C17        -6.1670   -1.0260    4.8010 c3        1 COV     -0.054700
     22 C18        -4.0950    0.3380    5.2790 c3        1 COV     -0.080100
     23 C19        -1.0620   -2.3150    0.2020 c2        1 COV     -0.193000
     24 O3          3.9800   -0.5930    1.3520 oh        1 COV     -0.599800
     25 C21        -7.0010   -0.1660    7.0330 c3        1 COV     -0.102100
     26 C22        -8.5360   -0.1810    5.0480 c3        1 COV     -0.105400
     27 C23        -9.0350    1.2300    4.7370 c3        1 COV     -0.086700
     28 C24        -9.8470    1.2620    3.4590 c3        1 COV     -0.059400
     29 C28        -7.7660    2.0820    4.6680 c3        1 COV      0.130400
     30 O1          0.1540    0.6810   -0.2190 oh        1 COV     -0.587800
     31 O21        -6.6700    1.3290    5.1940 os        1 COV     -0.420600
     32 O25        -9.3940    3.4520    2.6790 oh        1 COV     -0.599800
     33 H1          0.3810   -0.9710   -1.4580 h1        1 COV      0.033700
     34 H2          2.5290   -1.7120   -0.5790 hc        1 COV      0.052200
     35 H2A         2.6420    0.0640   -0.9170 hc        1 COV      0.052200
     36 H26       -11.8700    3.4310    1.6560 hc        1 COV      0.043533
     37 H26A      -10.9680    1.9590    1.1050 hc        1 COV      0.043533
     38 H26B      -12.3190    1.8000    2.3100 hc        1 COV      0.043533
     39 H27       -11.8440    2.5210    4.8030 hc        1 COV      0.043533
     40 H27A      -11.7700    4.1390    3.9850 hc        1 COV      0.043533
     41 H27B      -10.4080    3.6100    5.0560 hc        1 COV      0.043533
     42 H3          2.2550    0.5790    1.5000 h1        1 COV      0.048700
     43 H4          2.3380   -2.5090    1.8630 hc        1 COV      0.061200
     44 H4A         2.2340   -1.2660    3.1730 hc        1 COV      0.061200
     45 H6          0.1310   -1.4640    4.0560 ha        1 COV      0.124000
     46 H7         -2.2310   -1.0150    2.1190 ha        1 COV      0.138000
     47 H9         -1.0260   -2.4660    5.3920 hc        1 COV      0.045700
     48 H9A        -2.3550   -3.6650    5.1500 hc        1 COV      0.045700
     49 H11        -2.3580   -1.0700    6.8110 hc        1 COV      0.040700
     50 H11A       -2.5960   -2.7740    7.3620 hc        1 COV      0.040700
     51 H12        -4.7050   -1.3870    7.3270 hc        1 COV      0.039200
     52 H12A       -4.8070   -2.8930    6.3320 hc        1 COV      0.039200
     53 H14        -4.4430   -2.8880    3.9970 hc        1 COV      0.048700
     54 H15        -4.8190   -1.8680    1.8810 hc        1 COV      0.046200
     55 H15A       -4.2440   -0.2440    2.4290 hc        1 COV      0.046200
     56 H16        -6.4380    0.2260    3.0200 hc        1 COV      0.045700
     57 H16A       -6.9390   -1.5000    2.8020 hc        1 COV      0.045700
     58 H17        -6.5960   -2.0400    5.0400 hc        1 COV      0.042700
     59 H18        -4.4570    0.9670    4.4290 hc        1 COV      0.043033
     60 H18A       -2.9790    0.3120    5.2540 hc        1 COV      0.043033
     61 H18B       -4.4270    0.8210    6.2300 hc        1 COV      0.043033
     62 H19        -1.4310   -2.3290   -0.8320 ha        1 COV      0.120000
     63 H19A       -1.5770   -2.9930    0.8960 ha        1 COV      0.120000
     64 HO3         4.3880    0.0720    0.7860 ho        1 COV      0.398000
     65 H21        -6.0400    0.2520    7.4160 hc        1 COV      0.042367
     66 H21A       -7.0770   -1.2420    7.3160 hc        1 COV      0.042367
     67 H21B       -7.8370    0.3990    7.5110 hc        1 COV      0.042367
     68 H22        -8.5900   -0.8310    4.1390 hc        1 COV      0.053200
     69 H22A       -9.1560   -0.6610    5.8430 hc        1 COV      0.053200
     70 H23        -9.6750    1.5880    5.5890 hc        1 COV      0.053700
     71 H24       -10.6810    0.5170    3.5450 hc        1 COV      0.053200
     72 H24A       -9.1940    0.9570    2.5980 hc        1 COV      0.053200
     73 H28        -7.8520    3.0080    5.2930 h1        1 COV      0.055200
     74 H28A       -7.5050    2.3640    3.6150 h1        1 COV      0.055200
     75 HO1         0.6550    1.2490   -0.8160 ho        1 COV      0.395000
     76 HO25       -9.7760    4.3090    2.4560 ho        1 COV      0.399000
@<TRIPOS>BOND
     1    1    3 1   
     2    1   14 1   
     3    1   30 1   
     4    1   33 1   
     5    2   21 1   
     6    2   25 1   
     7    2   26 1   
     8    2   31 1   
     9    3    7 1   
    10    3   34 1   
    11    3   35 1   
    12    4    5 1   
    13    4    6 1   
    14    4   28 1   
    15    4   32 1   
    16    5   36 1   
    17    5   37 1   
    18    5   38 1   
    19    6   39 1   
    20    6   40 1   
    21    6   41 1   
    22    7    8 1   
    23    7   24 1   
    24    7   42 1   
    25    8    9 1   
    26    8   43 1   
    27    8   44 1   
    28    9   10 2   
    29    9   14 1   
    30   10   11 1   
    31   10   45 1   
    32   11   12 2   
    33   11   46 1   
    34   12   13 1   
    35   12   18 1   
    36   13   15 1   
    37   13   47 1   
    38   13   48 1   
    39   14   23 2   
    40   15   16 1   
    41   15   49 1   
    42   15   50 1   
    43   16   17 1   
    44   16   51 1   
    45   16   52 1   
    46   17   18 1   
    47   17   21 1   
    48   17   22 1   
    49   18   19 1   
    50   18   53 1   
    51   19   20 1   
    52   19   54 1   
    53   19   55 1   
    54   20   21 1   
    55   20   56 1   
    56   20   57 1   
    57   21   58 1   
    58   22   59 1   
    59   22   60 1   
    60   22   61 1   
    61   23   62 1   
    62   23   63 1   
    63   24   64 1   
    64   25   65 1   
    65   25   66 1   
    66   25   67 1   
    67   26   27 1   
    68   26   68 1   
    69   26   69 1   
    70   27   28 1   
    71   27   29 1   
    72   27   70 1   
    73   28   71 1   
    74   28   72 1   
    75   29   31 1   
    76   29   73 1   
    77   29   74 1   
    78   30   75 1   
    79   32   76 1   
@<TRIPOS>SUBSTRUCTURE
     1 COV         1 TEMP              0 ****  ****    0 ROOT
