@<TRIPOS>MOLECULE
COV
   76    79     1     0     0
SMALL
bcc


@<TRIPOS>ATOM
      1 C1         -5.4070   -2.5760   -0.9290 c3        1 COV      0.183300
      2 C20         3.2520    1.4950    0.5360 c3        1 COV      0.164800
      3 C2         -6.8420   -2.4040   -0.4430 c3        1 COV     -0.070400
      4 C25         6.5200   -2.1320   -0.0840 c3        1 COV      0.149800
      5 C26         7.1850   -2.8950   -1.2280 c3        1 COV     -0.124100
      6 C27         7.5800   -1.6730    0.9100 c3        1 COV     -0.124100
      7 C3         -6.9130   -1.3550    0.6590 c3        1 COV      0.145100
      8 C4         -6.3570   -0.0150    0.1810 c3        1 COV     -0.074200
      9 C5         -4.9700   -0.1580   -0.3500 ce        1 COV     -0.072200
     10 C6         -4.0010    0.7010    0.0300 cf        1 COV     -0.113000
     11 C7         -2.6230    0.6390   -0.3980 cf        1 COV     -0.154000
     12 C8         -1.7420    1.6540   -0.3630 c2        1 COV     -0.072400
     13 C9         -2.0640    3.0550    0.0440 c3        1 COV     -0.044200
     14 C10        -4.7750   -1.2560   -1.2950 ce        1 COV     -0.120200
     15 C11        -1.0380    3.6710    0.9810 c3        1 COV     -0.072400
     16 C12         0.4040    3.4370    0.5660 c3        1 COV     -0.068400
     17 C13         0.6570    1.9600    0.3020 c3        1 COV     -0.032000
     18 C14        -0.3330    1.5260   -0.8170 c3        1 COV     -0.038500
     19 C15         0.2210    0.1910   -1.2950 c3        1 COV     -0.071400
     20 C16         1.7380    0.3390   -1.1630 c3        1 COV     -0.077400
     21 C17         2.0140    1.6250   -0.3590 c3        1 COV     -0.054700
     22 C18         0.4480    1.1430    1.5640 c3        1 COV     -0.080100
     23 C19        -4.1020   -1.1180   -2.4440 c2        1 COV     -0.194000
     24 O3         -8.2870   -1.2260    1.0060 oh        1 COV     -0.600800
     25 C21         3.4760    2.7440    1.3810 c3        1 COV     -0.102100
     26 C22         4.5070    1.2150   -0.3210 c3        1 COV     -0.105400
     27 C23         5.2210    0.0430    0.3530 c3        1 COV     -0.086700
     28 C24         5.7120   -0.9650   -0.6630 c3        1 COV     -0.060400
     29 C28         4.1900   -0.5320    1.3260 c3        1 COV      0.129400
     30 O1         -4.6950   -3.2420    0.1110 oh        1 COV     -0.597800
     31 O21         3.0950    0.3820    1.4390 os        1 COV     -0.421600
     32 O25         5.5750   -2.9840    0.5670 oh        1 COV     -0.600800
     33 H1         -5.4060   -3.2560   -1.8330 h1        1 COV      0.038700
     34 H2         -7.4880   -2.0950   -1.3040 hc        1 COV      0.066700
     35 H2A        -7.2210   -3.3800   -0.0470 hc        1 COV      0.066700
     36 H26         7.7050   -3.8010   -0.8360 hc        1 COV      0.043700
     37 H26A        6.4150   -3.2200   -1.9680 hc        1 COV      0.043700
     38 H26B        7.9330   -2.2450   -1.7400 hc        1 COV      0.043700
     39 H27         8.1770   -0.8380    0.4750 hc        1 COV      0.043700
     40 H27A        7.0940   -1.3240    1.8530 hc        1 COV      0.043700
     41 H27B        8.2670   -2.5170    1.1580 hc        1 COV      0.043700
     42 H3         -6.3280   -1.7130    1.5530 h1        1 COV      0.054700
     43 H4         -7.0220    0.3870   -0.6310 hc        1 COV      0.053200
     44 H4A        -6.3850    0.7190    1.0300 hc        1 COV      0.053200
     45 H6         -4.2550    1.5010    0.7490 ha        1 COV      0.124000
     46 H7         -2.2930   -0.3470   -0.7760 ha        1 COV      0.128000
     47 H9         -2.1230    3.6750   -0.8940 hc        1 COV      0.046700
     48 H9A        -3.0710    3.1110    0.5360 hc        1 COV      0.046700
     49 H11        -1.2240    4.7760    1.0370 hc        1 COV      0.041200
     50 H11A       -1.1910    3.2570    2.0130 hc        1 COV      0.041200
     51 H12         0.6330    4.0280   -0.3600 hc        1 COV      0.040700
     52 H12A        1.0820    3.8080    1.3770 hc        1 COV      0.040700
     53 H14        -0.2140    2.2560   -1.6750 hc        1 COV      0.051700
     54 H15        -0.1450   -0.6490   -0.6530 hc        1 COV      0.044200
     55 H15A       -0.0810   -0.0230   -2.3480 hc        1 COV      0.044200
     56 H16         2.1730   -0.5450   -0.6320 hc        1 COV      0.046700
     57 H16A        2.2130    0.4060   -2.1720 hc        1 COV      0.046700
     58 H17         2.2480    2.4590   -1.0800 hc        1 COV      0.043700
     59 H18        -0.6240    1.1640    1.8750 hc        1 COV      0.043033
     60 H18A        0.7480    0.0810    1.3890 hc        1 COV      0.043033
     61 H18B        1.0760    1.5450    2.3960 hc        1 COV      0.043033
     62 H19        -3.9730   -1.9470   -3.1520 ha        1 COV      0.120500
     63 H19A       -3.6500   -0.1640   -2.7470 ha        1 COV      0.120500
     64 HO3        -8.3290   -0.5970    1.7350 ho        1 COV      0.398000
     65 H21         2.7350    2.7840    2.2140 hc        1 COV      0.042367
     66 H21A        4.4980    2.7210    1.8300 hc        1 COV      0.042367
     67 H21B        3.3740    3.6570    0.7490 hc        1 COV      0.042367
     68 H22         4.2200    0.9540   -1.3700 hc        1 COV      0.053200
     69 H22A        5.1650    2.1160   -0.3640 hc        1 COV      0.053200
     70 H23         6.0990    0.4360    0.9360 hc        1 COV      0.054700
     71 H24         6.3640   -0.4360   -1.4080 hc        1 COV      0.053200
     72 H24A        4.8330   -1.3940   -1.2130 hc        1 COV      0.053200
     73 H28         3.7740   -1.5100    0.9680 h1        1 COV      0.055700
     74 H28A        4.6120   -0.6590    2.3550 h1        1 COV      0.055700
     75 HO1        -3.7550   -3.1040   -0.0530 ho        1 COV      0.405000
     76 HO25        6.0730   -3.7260    0.9310 ho        1 COV      0.399000
@<TRIPOS>BOND
     1    1    3 1   
     2    1   14 1   
     3    1   30 1   
     4    1   33 1   
     5    2   21 1   
     6    2   25 1   
     7    2   26 1   
     8    2   31 1   
     9    3    7 1   
    10    3   34 1   
    11    3   35 1   
    12    4    5 1   
    13    4    6 1   
    14    4   28 1   
    15    4   32 1   
    16    5   36 1   
    17    5   37 1   
    18    5   38 1   
    19    6   39 1   
    20    6   40 1   
    21    6   41 1   
    22    7    8 1   
    23    7   24 1   
    24    7   42 1   
    25    8    9 1   
    26    8   43 1   
    27    8   44 1   
    28    9   10 2   
    29    9   14 1   
    30   10   11 1   
    31   10   45 1   
    32   11   12 2   
    33   11   46 1   
    34   12   13 1   
    35   12   18 1   
    36   13   15 1   
    37   13   47 1   
    38   13   48 1   
    39   14   23 2   
    40   15   16 1   
    41   15   49 1   
    42   15   50 1   
    43   16   17 1   
    44   16   51 1   
    45   16   52 1   
    46   17   18 1   
    47   17   21 1   
    48   17   22 1   
    49   18   19 1   
    50   18   53 1   
    51   19   20 1   
    52   19   54 1   
    53   19   55 1   
    54   20   21 1   
    55   20   56 1   
    56   20   57 1   
    57   21   58 1   
    58   22   59 1   
    59   22   60 1   
    60   22   61 1   
    61   23   62 1   
    62   23   63 1   
    63   24   64 1   
    64   25   65 1   
    65   25   66 1   
    66   25   67 1   
    67   26   27 1   
    68   26   68 1   
    69   26   69 1   
    70   27   28 1   
    71   27   29 1   
    72   27   70 1   
    73   28   71 1   
    74   28   72 1   
    75   29   31 1   
    76   29   73 1   
    77   29   74 1   
    78   30   75 1   
    79   32   76 1   
@<TRIPOS>SUBSTRUCTURE
     1 COV         1 TEMP              0 ****  ****    0 ROOT
