@<TRIPOS>MOLECULE
COV
   76    79     1     0     0
SMALL
bcc


@<TRIPOS>ATOM
      1 C1          0.6280   -0.6710   -0.4270 c3        1 COV      0.186300
      2 C20        -7.0670    0.0000    5.5260 c3        1 COV      0.164800
      3 C2          2.1450   -0.7250   -0.2780 c3        1 COV     -0.146400
      4 C25       -10.4800    2.5930    3.1030 c3        1 COV      0.149800
      5 C26       -11.4830    2.3930    1.9680 c3        1 COV     -0.124100
      6 C27       -11.1750    3.2470    4.2910 c3        1 COV     -0.124100
      7 C3          2.5600   -0.4610    1.1640 c3        1 COV      0.146100
      8 C4          1.9290   -1.4860    2.1030 c3        1 COV     -0.035200
      9 C5          0.4430   -1.4960    1.9580 ce        1 COV     -0.076200
     10 C6         -0.3440   -1.4760    3.0540 cf        1 COV     -0.106000
     11 C7         -1.7880   -1.4490    3.0380 cf        1 COV     -0.150000
     12 C8         -2.5900   -1.8710    4.0300 c2        1 COV     -0.079400
     13 C9         -2.1230   -2.5360    5.2840 c3        1 COV     -0.043200
     14 C10        -0.0620   -1.5490    0.5870 ce        1 COV     -0.068200
     15 C11        -2.7960   -2.0120    6.5420 c3        1 COV     -0.072400
     16 C12        -4.3010   -1.8490    6.4220 c3        1 COV     -0.068400
     17 C13        -4.6600   -1.0430    5.1820 c3        1 COV     -0.033000
     18 C14        -4.0740   -1.8100    3.9610 c3        1 COV     -0.036500
     19 C15        -4.7790   -1.1840    2.7670 c3        1 COV     -0.072400
     20 C16        -6.1770   -0.8420    3.2860 c3        1 COV     -0.077400
     21 C17        -6.1620   -1.0150    4.8180 c3        1 COV     -0.054700
     22 C18        -4.0920    0.3620    5.2700 c3        1 COV     -0.080100
     23 C19        -1.0730   -2.3430    0.2110 c2        1 COV     -0.193000
     24 O3          3.9690   -0.5900    1.3190 oh        1 COV     -0.599800
     25 C21        -6.9890   -0.1290    7.0430 c3        1 COV     -0.102100
     26 C22        -8.5320   -0.1750    5.0650 c3        1 COV     -0.105400
     27 C23        -9.0370    1.2300    4.7360 c3        1 COV     -0.086700
     28 C24        -9.8520    1.2410    3.4600 c3        1 COV     -0.059400
     29 C28        -7.7710    2.0860    4.6520 c3        1 COV      0.130400
     30 O1          0.1310    0.6530   -0.2490 oh        1 COV     -0.587800
     31 O21        -6.6710    1.3430    5.1830 os        1 COV     -0.420600
     32 O25        -9.4080    3.4210    2.6470 oh        1 COV     -0.599800
     33 H1          0.3570   -1.0120   -1.4700 h1        1 COV      0.033700
     34 H2          2.6170    0.0370   -0.9520 hc        1 COV      0.052200
     35 H2A         2.5120   -1.7350   -0.5930 hc        1 COV      0.052200
     36 H26       -12.3300    1.7550    2.3120 hc        1 COV      0.043533
     37 H26A      -10.9830    1.9010    1.1000 hc        1 COV      0.043533
     38 H26B      -11.8880    3.3780    1.6330 hc        1 COV      0.043533
     39 H27       -11.7820    4.1200    3.9510 hc        1 COV      0.043533
     40 H27A      -10.4150    3.6100    5.0250 hc        1 COV      0.043533
     41 H27B      -11.8480    2.5140    4.7920 hc        1 COV      0.043533
     42 H3          2.2400    0.5780    1.4610 h1        1 COV      0.048700
     43 H4          2.3350   -2.5050    1.8590 hc        1 COV      0.061200
     44 H4A         2.2330   -1.2480    3.1550 hc        1 COV      0.061200
     45 H6          0.1350   -1.4420    4.0500 ha        1 COV      0.124000
     46 H7         -2.2370   -1.0250    2.1190 ha        1 COV      0.138000
     47 H9         -2.3380   -3.6360    5.1850 hc        1 COV      0.045700
     48 H9A        -1.0120   -2.4290    5.4040 hc        1 COV      0.045700
     49 H11        -2.5730   -2.7170    7.3850 hc        1 COV      0.040700
     50 H11A       -2.3440   -1.0200    6.8110 hc        1 COV      0.040700
     51 H12        -4.7880   -2.8580    6.3670 hc        1 COV      0.039200
     52 H12A       -4.6870   -1.3390    7.3420 hc        1 COV      0.039200
     53 H14        -4.4340   -2.8810    4.0310 hc        1 COV      0.048700
     54 H15        -4.2510   -0.2570    2.4280 hc        1 COV      0.046200
     55 H15A       -4.8230   -1.8900    1.9030 hc        1 COV      0.046200
     56 H16        -6.4450    0.2120    3.0230 hc        1 COV      0.045700
     57 H16A       -6.9400   -1.5180    2.8290 hc        1 COV      0.045700
     58 H17        -6.5860   -2.0270    5.0720 hc        1 COV      0.042700
     59 H18        -2.9760    0.3400    5.2400 hc        1 COV      0.043033
     60 H18A       -4.4210    0.8560    6.2150 hc        1 COV      0.043033
     61 H18B       -4.4590    0.9790    4.4130 hc        1 COV      0.043033
     62 H19        -1.4470   -2.3700   -0.8200 ha        1 COV      0.120000
     63 H19A       -1.5820   -3.0140    0.9160 ha        1 COV      0.120000
     64 HO3         4.3710    0.0700    0.7430 ho        1 COV      0.398000
     65 H21        -7.8240    0.4400    7.5170 hc        1 COV      0.042367
     66 H21A       -7.0600   -1.2010    7.3400 hc        1 COV      0.042367
     67 H21B       -6.0270    0.2960    7.4160 hc        1 COV      0.042367
     68 H22        -8.5880   -0.8380    4.1650 hc        1 COV      0.053200
     69 H22A       -9.1470   -0.6450    5.8700 hc        1 COV      0.053200
     70 H23        -9.6750    1.5970    5.5850 hc        1 COV      0.053700
     71 H24        -9.2010    0.9260    2.6020 hc        1 COV      0.053200
     72 H24A      -10.6840    0.4950    3.5590 hc        1 COV      0.053200
     73 H28        -7.5150    2.3540    3.5930 h1        1 COV      0.055200
     74 H28A       -7.8570    3.0190    5.2650 h1        1 COV      0.055200
     75 HO1         0.6260    1.2160   -0.8550 ho        1 COV      0.395000
     76 HO25       -9.7940    4.2730    2.4130 ho        1 COV      0.399000
@<TRIPOS>BOND
     1    1    3 1   
     2    1   14 1   
     3    1   30 1   
     4    1   33 1   
     5    2   21 1   
     6    2   25 1   
     7    2   26 1   
     8    2   31 1   
     9    3    7 1   
    10    3   34 1   
    11    3   35 1   
    12    4    5 1   
    13    4    6 1   
    14    4   28 1   
    15    4   32 1   
    16    5   36 1   
    17    5   37 1   
    18    5   38 1   
    19    6   39 1   
    20    6   40 1   
    21    6   41 1   
    22    7    8 1   
    23    7   24 1   
    24    7   42 1   
    25    8    9 1   
    26    8   43 1   
    27    8   44 1   
    28    9   10 2   
    29    9   14 1   
    30   10   11 1   
    31   10   45 1   
    32   11   12 2   
    33   11   46 1   
    34   12   13 1   
    35   12   18 1   
    36   13   15 1   
    37   13   47 1   
    38   13   48 1   
    39   14   23 2   
    40   15   16 1   
    41   15   49 1   
    42   15   50 1   
    43   16   17 1   
    44   16   51 1   
    45   16   52 1   
    46   17   18 1   
    47   17   21 1   
    48   17   22 1   
    49   18   19 1   
    50   18   53 1   
    51   19   20 1   
    52   19   54 1   
    53   19   55 1   
    54   20   21 1   
    55   20   56 1   
    56   20   57 1   
    57   21   58 1   
    58   22   59 1   
    59   22   60 1   
    60   22   61 1   
    61   23   62 1   
    62   23   63 1   
    63   24   64 1   
    64   25   65 1   
    65   25   66 1   
    66   25   67 1   
    67   26   27 1   
    68   26   68 1   
    69   26   69 1   
    70   27   28 1   
    71   27   29 1   
    72   27   70 1   
    73   28   71 1   
    74   28   72 1   
    75   29   31 1   
    76   29   73 1   
    77   29   74 1   
    78   30   75 1   
    79   32   76 1   
@<TRIPOS>SUBSTRUCTURE
     1 COV         1 TEMP              0 ****  ****    0 ROOT
