@<TRIPOS>MOLECULE
COV
   76    76     1     0     0
SMALL
bcc


@<TRIPOS>ATOM
      1 C1          6.3030   -3.9630   -1.8670 c3        1 COV      0.070000
      2 C20        -2.6880    0.2230    0.1470 c3        1 COV      0.090000
      3 C2          5.2750   -5.2390   -2.1190 c3        1 COV     -0.222000
      4 C25        -5.0160    3.7370    1.8370 c3        1 COV      0.075000
      5 C26        -4.6940    5.1270    1.2630 c3        1 COV     -0.242500
      6 C27        -5.1010    3.8240    3.3560 c3        1 COV     -0.242500
      7 C3          4.0730   -4.9290   -2.3510 c3        1 COV      0.038000
      8 C4          3.3320   -4.0010   -1.1680 c3        1 COV     -0.116000
      9 C5          4.1180   -2.8660   -0.8130 c2        1 COV     -0.065000
     10 C6          3.5260   -1.6610   -0.4240 c1        1 COV     -0.118000
     11 C7          1.9630   -1.5360   -0.3700 c1        1 COV     -0.148000
     12 C8          1.3770   -0.3060   -0.1870 c1        1 COV     -0.078000
     13 C9          2.3140    1.0360   -0.0260 c2        1 COV     -0.125000
     14 C10         5.7840   -3.0410   -0.8860 c2        1 COV     -0.084000
     15 C11         1.5160    2.2520   -0.4610 c3        1 COV     -0.151000
     16 C12         0.4520    2.3080    0.0740 c3        1 COV     -0.149000
     17 C13        -0.3600    1.0000   -0.0910 c3        1 COV     -0.034000
     18 C14         0.4350   -0.2330    0.2820 c3        1 COV     -0.072000
     19 C15         0.4810   -0.2780    1.2080 c3        1 COV     -0.152000
     20 C16        -0.8750    0.4680    1.7460 c3        1 COV     -0.155000
     21 C17        -1.3260    1.0520    0.7500 c3        1 COV     -0.092000
     22 C18        -0.9040    0.8760   -1.5410 c3        1 COV     -0.205000
     23 C19         6.6220   -2.3360   -0.0440 c1        1 COV     -0.185000
     24 O3          4.0290   -4.1600   -3.6450 oh        1 COV     -0.323000
     25 C21        -2.2470   -0.9280   -0.7780 c3        1 COV     -0.220000
     26 C22        -3.4510    1.0210   -0.4790 c3        1 COV     -0.177000
     27 C23        -4.5130    1.5540    0.5870 c3        1 COV     -0.131000
     28 C24        -3.8890    2.7300    1.4320 c3        1 COV     -0.136000
     29 C28        -4.7890    0.5360    1.3670 c3        1 COV     -0.020000
     30 O1          7.6400   -4.4110   -1.5260 oh        1 COV     -0.325000
     31 O21        -3.5550   -0.3370    1.3240 os        1 COV     -0.289000
     32 O25        -6.2480    3.2920    1.3230 oh        1 COV     -0.327000
     33 H1          6.4730   -3.4980   -2.7070 h1        1 COV      0.093000
     34 H2          5.2970   -5.8140   -1.3240 hc        1 COV      0.092000
     35 H2A         5.6100   -5.7570   -2.8820 hc        1 COV      0.092000
     36 H26        -3.7740    5.3880    1.5250 hc        1 COV      0.083000
     37 H26A       -4.7590    5.1000    0.2960 hc        1 COV      0.083000
     38 H26B       -5.3360    5.7850    1.6170 hc        1 COV      0.083000
     39 H27        -5.3970    2.9550    3.7200 hc        1 COV      0.083000
     40 H27A       -5.7400    4.5170    3.6070 hc        1 COV      0.083000
     41 H27B       -4.2250    4.0440    3.7180 hc        1 COV      0.083000
     42 H3          3.5590   -5.7510   -2.4630 h1        1 COV      0.071000
     43 H4          3.1040   -4.5180   -0.3650 hc        1 COV      0.103000
     44 H4A         2.4400   -3.7320   -1.4740 hc        1 COV      0.103000
     45 H6          4.0890   -0.8910   -0.1840 ha        1 COV      0.128000
     46 H7          1.4050   -2.3340   -0.4650 ha        1 COV      0.129000
     47 H9          3.1430    0.9240   -0.5300 ha        1 COV      0.088000
     48 H9A         2.6540    1.1500    0.8800 ha        1 COV      0.088000
     49 H11         2.0240    3.0600   -0.2430 hc        1 COV      0.081000
     50 H11A        1.3810    2.2130   -1.4360 hc        1 COV      0.081000
     51 H12         0.5860    2.4780    1.0220 hc        1 COV      0.080500
     52 H12A       -0.0590    3.0490   -0.3120 hc        1 COV      0.080500
     53 H14        -0.0900   -1.0100   -0.0160 hc        1 COV      0.094000
     54 H15         1.2780    0.1910    1.5330 hc        1 COV      0.081500
     55 H15A        0.4930   -1.2160    1.5020 hc        1 COV      0.081500
     56 H16        -0.6540    1.1100    2.4450 hc        1 COV      0.091500
     57 H16A       -1.5240   -0.1950    2.0790 hc        1 COV      0.091500
     58 H17        -1.5490    1.9770    0.9640 hc        1 COV      0.094000
     59 H18        -0.3710    0.1990   -2.0380 hc        1 COV      0.076667
     60 H18A       -0.8330    1.7470   -1.9950 hc        1 COV      0.076667
     61 H18B       -1.8320    0.6010   -1.5160 hc        1 COV      0.076667
     62 H19         7.5860   -2.4550   -0.1060 DU        1 COV      0.134000
     63 H19A        6.2440   -1.7120    0.6180 ha        1 COV      0.112000
     64 HO3         3.9050   -4.7250   -4.3220 ho        1 COV      0.195000
     65 H21        -2.4050   -1.7860   -0.3290 hc        1 COV      0.082333
     66 H21A       -1.3000   -0.8370   -0.9810 hc        1 COV      0.082333
     67 H21B       -2.7650   -0.8940   -1.6130 hc        1 COV      0.082333
     68 H22        -3.9170    0.5420   -1.2160 hc        1 COV      0.095500
     69 H22A       -2.9360    1.7640   -0.8360 hc        1 COV      0.095500
     70 H23        -5.3320    1.8610    0.1270 hc        1 COV      0.119000
     71 H24        -3.2240    3.1860    0.9050 hc        1 COV      0.091500
     72 H24A       -3.4710    2.3640    2.2420 hc        1 COV      0.091500
     73 H28        -4.9560    0.8440    2.2820 h1        1 COV      0.080500
     74 H28A       -5.5760    0.0380    1.0200 h1        1 COV      0.080500
     75 HO1         8.0810   -4.6120   -2.2660 ho        1 COV      0.198000
     76 HO25       -6.9090    3.8430    1.6020 ho        1 COV      0.198000
@<TRIPOS>BOND
     1    1    3 1   
     2    1   14 1   
     3    1   30 1   
     4    1   33 1   
     5    2   21 1   
     6    2   25 1   
     7    2   26 1   
     8    2   31 1   
     9    3    7 1   
    10    3   34 1   
    11    3   35 1   
    12    4    5 1   
    13    4    6 1   
    14    4   28 1   
    15    4   32 1   
    16    5   36 1   
    17    5   37 1   
    18    5   38 1   
    19    6   39 1   
    20    6   40 1   
    21    6   41 1   
    22    7    8 1   
    23    7   24 1   
    24    7   42 1   
    25    8    9 1   
    26    8   43 1   
    27    8   44 1   
    28    9   10 1   
    29    9   14 1   
    30   10   45 1   
    31   11   12 1   
    32   11   46 1   
    33   12   18 1   
    34   13   15 1   
    35   13   47 1   
    36   13   48 1   
    37   14   23 1   
    38   15   16 1   
    39   15   49 1   
    40   15   50 1   
    41   16   17 1   
    42   16   51 1   
    43   16   52 1   
    44   17   18 1   
    45   17   21 1   
    46   17   22 1   
    47   18   19 1   
    48   18   53 1   
    49   19   20 1   
    50   19   54 1   
    51   19   55 1   
    52   20   21 1   
    53   20   56 1   
    54   20   57 1   
    55   21   58 1   
    56   22   59 1   
    57   22   60 1   
    58   22   61 1   
    59   23   63 1   
    60   24   64 1   
    61   25   65 1   
    62   25   66 1   
    63   25   67 1   
    64   26   27 1   
    65   26   68 1   
    66   26   69 1   
    67   27   28 1   
    68   27   29 1   
    69   27   70 1   
    70   28   71 1   
    71   28   72 1   
    72   29   31 1   
    73   29   73 1   
    74   29   74 1   
    75   30   75 1   
    76   32   76 1   
@<TRIPOS>SUBSTRUCTURE
     1 COV         1 TEMP              0 ****  ****    0 ROOT
