@<TRIPOS>MOLECULE
COX
   36    38     1     0     0
SMALL
bcc


@<TRIPOS>ATOM
      1 S1         -4.1360   -0.4310    0.2280 sy        1 COX      1.527200
      2 O1         -4.7160    0.0570    1.4190 o         1 COX     -0.657800
      3 O2         -4.1580   -1.8250    0.0100 o         1 COX     -0.657800
      4 N1         -4.8100    0.3070   -1.0240 n3        1 COX     -1.026700
      5 C1         -2.5310    0.0930    0.1670 ca        1 COX     -0.386500
      6 C2         -1.5780   -0.6040   -0.5860 ca        1 COX     -0.017000
      7 C3         -0.2500   -0.1920   -0.6240 ca        1 COX     -0.151000
      8 C4          0.1600    0.9390    0.0990 ca        1 COX      0.060000
      9 C5         -0.7900    1.6370    0.8630 ca        1 COX     -0.151000
     10 C6         -2.1140    1.2130    0.8940 ca        1 COX     -0.017000
     11 C7          1.5260    1.3970    0.0470 cc        1 COX     -0.284600
     12 C8          1.9770    2.7120    0.0590 cd        1 COX      0.291000
     13 C9          1.3550    4.0320    0.1500 c3        1 COX     -0.146400
     14 O3          3.3840    2.6840   -0.0540 os        1 COX     -0.112100
     15 N2          3.8120    1.4410   -0.1220 nd        1 COX     -0.351300
     16 C10         2.7580    0.5970   -0.0680 cc        1 COX      0.395800
     17 C11         2.8710   -0.8540   -0.0950 ca        1 COX     -0.146500
     18 C12         3.7430   -1.4740   -1.0010 ca        1 COX     -0.099500
     19 C13         3.8640   -2.8630   -1.0110 ca        1 COX     -0.135500
     20 C14         3.1270   -3.6390   -0.1170 ca        1 COX     -0.114000
     21 C15         2.2640   -3.0240    0.7910 ca        1 COX     -0.135500
     22 C16         2.1340   -1.6370    0.8040 ca        1 COX     -0.099500
     23 HN11       -4.8610   -0.0870   -1.9290 hn        1 COX      0.447800
     24 HN12       -5.2450    1.1930   -0.9680 hn        1 COX      0.447800
     25 H2         -1.8850   -1.5070   -1.1430 ha        1 COX      0.154500
     26 H3          0.4880   -0.7570   -1.2150 ha        1 COX      0.148000
     27 H5         -0.4800    2.5180    1.4460 ha        1 COX      0.148000
     28 H6         -2.8480    1.7550    1.5180 ha        1 COX      0.154500
     29 H91         1.2670    4.3370    1.2250 hc        1 COX      0.071033
     30 H92         1.9730    4.7970   -0.3850 hc        1 COX      0.071033
     31 H93         0.3320    4.0020   -0.3010 hc        1 COX      0.071033
     32 H12         4.3350   -0.8650   -1.7010 ha        1 COX      0.145000
     33 H13         4.5480   -3.3450   -1.7250 ha        1 COX      0.138500
     34 H14         3.2270   -4.7340   -0.1250 ha        1 COX      0.136000
     35 H15         1.6840   -3.6330    1.5000 ha        1 COX      0.138500
     36 H16         1.4520   -1.1510    1.5190 ha        1 COX      0.145000
@<TRIPOS>BOND
     1    1    2 2   
     2    1    3 2   
     3    1    4 1   
     4    1    5 1   
     5    4   23 1   
     6    4   24 1   
     7    5    6 ar  
     8    5   10 ar  
     9    6    7 ar  
    10    6   25 1   
    11    7    8 ar  
    12    7   26 1   
    13    8    9 ar  
    14    8   11 1   
    15    9   10 ar  
    16    9   27 1   
    17   10   28 1   
    18   11   12 2   
    19   11   16 1   
    20   12   13 1   
    21   12   14 1   
    22   13   29 1   
    23   13   30 1   
    24   13   31 1   
    25   14   15 1   
    26   15   16 2   
    27   16   17 1   
    28   17   18 ar  
    29   17   22 ar  
    30   18   19 ar  
    31   18   32 1   
    32   19   20 ar  
    33   19   33 1   
    34   20   21 ar  
    35   20   34 1   
    36   21   22 ar  
    37   21   35 1   
    38   22   36 1   
@<TRIPOS>SUBSTRUCTURE
     1 COX         1 TEMP              0 ****  ****    0 ROOT
