@<TRIPOS>MOLECULE
COX
   37    39     1     0     0
SMALL
bcc


@<TRIPOS>ATOM
      1 S1          0.1850   -0.0840   -0.1190 sy        1 COX      1.505200
      2 O1          1.2230    0.6470   -0.6570 o         1 COX     -0.572800
      3 O2         -0.0100   -0.1660    1.2430 o         1 COX     -0.572800
      4 N1         -1.2870    1.1090   -0.5610 nz        1 COX     -0.782500
      5 C1         -0.2910   -1.3330   -0.9650 ca        1 COX     -0.601500
      6 C2         -1.1190   -2.3370   -0.3990 ca        1 COX      0.023500
      7 C3         -1.4720   -3.4680   -1.1040 ca        1 COX     -0.168000
      8 C4         -1.0140   -3.6720   -2.4260 ca        1 COX      0.183000
      9 C5         -0.1880   -2.6770   -3.0010 ca        1 COX     -0.168000
     10 C6          0.1620   -1.5490   -2.2900 ca        1 COX      0.023500
     11 C7         -1.3760   -4.8390   -3.1630 cc        1 COX     -0.357600
     12 C8         -1.4130   -5.0130   -4.5530 cd        1 COX      0.358000
     13 C9         -1.1290   -4.1930   -5.7300 c3        1 COX     -0.167400
     14 O3         -1.8650   -6.3150   -4.8030 os        1 COX     -0.089100
     15 N2         -2.0870   -6.9610   -3.6730 nd        1 COX     -0.313300
     16 C10        -1.8200   -6.1460   -2.6340 cc        1 COX      0.414800
     17 C11        -1.9330   -6.5430   -1.2340 ca        1 COX     -0.172500
     18 C12        -3.1980   -6.6780   -0.6480 ca        1 COX     -0.103500
     19 C13        -3.3050   -7.0850    0.6810 ca        1 COX     -0.129500
     20 C14        -2.1570   -7.3690    1.4230 ca        1 COX     -0.104000
     21 C15        -0.8980   -7.2460    0.8340 ca        1 COX     -0.129500
     22 C16        -0.7810   -6.8370   -0.4930 ca        1 COX     -0.103500
     23 HN11       -0.9340    1.9460   -1.0170 hn        1 COX      0.450800
     24 HN12       -1.9620    0.6730   -1.1790 hn        1 COX      0.450800
     25 H2         -1.4720   -2.2130    0.6420 ha        1 COX      0.165000
     26 H3         -2.1150   -4.2340   -0.6310 ha        1 COX      0.178000
     27 H5          0.2000   -2.8200   -4.0240 ha        1 COX      0.178000
     28 H6          0.8350   -0.8000   -2.7520 ha        1 COX      0.165000
     29 H91        -1.4940   -3.1470   -5.5730 hc        1 COX      0.085033
     30 H92        -1.6290   -4.6210   -6.6380 hc        1 COX      0.085033
     31 H93        -0.0240   -4.1710   -5.9190 hc        1 COX      0.085033
     32 H12        -4.1050   -6.4810   -1.2400 ha        1 COX      0.144000
     33 H13        -4.2990   -7.1990    1.1400 ha        1 COX      0.148500
     34 H14        -2.2460   -7.7020    2.4680 ha        1 COX      0.149000
     35 H15         0.0070   -7.4870    1.4130 ha        1 COX      0.148500
     36 H16         0.2120   -6.7630   -0.9620 ha        1 COX      0.144000
     37 H131       -1.7720    1.3950    0.2860 hn        1 COX      0.450800
@<TRIPOS>BOND
     1    1    2 2   
     2    1    3 2   
     3    1    4 1   
     4    1    5 1   
     5    4   23 1   
     6    4   24 1   
     7    4   37 1   
     8    5    6 ar  
     9    5   10 ar  
    10    6    7 ar  
    11    6   25 1   
    12    7    8 ar  
    13    7   26 1   
    14    8    9 ar  
    15    8   11 1   
    16    9   10 ar  
    17    9   27 1   
    18   10   28 1   
    19   11   12 2   
    20   11   16 1   
    21   12   13 1   
    22   12   14 1   
    23   13   29 1   
    24   13   30 1   
    25   13   31 1   
    26   14   15 1   
    27   15   16 2   
    28   16   17 1   
    29   17   18 ar  
    30   17   22 ar  
    31   18   19 ar  
    32   18   32 1   
    33   19   20 ar  
    34   19   33 1   
    35   20   21 ar  
    36   20   34 1   
    37   21   22 ar  
    38   21   35 1   
    39   22   36 1   
@<TRIPOS>SUBSTRUCTURE
     1 COX         1 TEMP              0 ****  ****    0 ROOT
