@<TRIPOS>MOLECULE
COX
   37    39     1     0     0
SMALL
bcc


@<TRIPOS>ATOM
      1 S1          0.2220   -0.0930   -0.1330 sy        1 COX      1.505200
      2 O1          1.2660    0.6260   -0.6740 o         1 COX     -0.572800
      3 O2          0.0260   -0.1680    1.2290 o         1 COX     -0.572800
      4 N1         -1.2390    1.1130   -0.5800 n4        1 COX     -0.782500
      5 C1         -0.2670   -1.3400   -0.9740 ca        1 COX     -0.601500
      6 C2         -1.1040   -2.3340   -0.4050 ca        1 COX      0.024000
      7 C3         -1.4690   -3.4640   -1.1050 ca        1 COX     -0.168000
      8 C4         -1.0120   -3.6770   -2.4260 ca        1 COX      0.183000
      9 C5         -0.1760   -2.6930   -3.0050 ca        1 COX     -0.168000
     10 C6          0.1850   -1.5660   -2.2980 ca        1 COX      0.024000
     11 C7         -1.3850   -4.8440   -3.1600 cc        1 COX     -0.357600
     12 C8         -1.4240   -5.0230   -4.5480 cd        1 COX      0.358000
     13 C9         -1.1320   -4.2100   -5.7290 c3        1 COX     -0.167400
     14 O3         -1.8880   -6.3210   -4.7940 os        1 COX     -0.089100
     15 N2         -2.1160   -6.9610   -3.6610 nd        1 COX     -0.313300
     16 C10        -1.8420   -6.1450   -2.6250 cc        1 COX      0.414800
     17 C11        -1.9590   -6.5350   -1.2240 ca        1 COX     -0.172500
     18 C12        -3.2260   -6.6540   -0.6370 ca        1 COX     -0.103500
     19 C13        -3.3370   -7.0550    0.6940 ca        1 COX     -0.129500
     20 C14        -2.1920   -7.3480    1.4360 ca        1 COX     -0.104000
     21 C15        -0.9320   -7.2410    0.8470 ca        1 COX     -0.129500
     22 C16        -0.8100   -6.8380   -0.4820 ca        1 COX     -0.103500
     23 HN11       -0.8780    1.9450   -1.0390 hn        1 COX      0.450800
     24 HN12       -1.9180    0.6810   -1.1960 hn        1 COX      0.450800
     25 H2         -1.4570   -2.2030    0.6360 ha        1 COX      0.165000
     26 H3         -2.1200   -4.2220   -0.6300 ha        1 COX      0.178000
     27 H5          0.2110   -2.8440   -4.0270 ha        1 COX      0.178000
     28 H6          0.8650   -0.8260   -2.7630 ha        1 COX      0.165000
     29 H91        -1.4870   -3.1600   -5.5760 hc        1 COX      0.085033
     30 H92        -1.6350   -4.6370   -6.6350 hc        1 COX      0.085033
     31 H93        -0.0260   -4.1990   -5.9180 hc        1 COX      0.085033
     32 H12        -4.1300   -6.4490   -1.2300 ha        1 COX      0.144000
     33 H13        -4.3320   -7.1560    1.1530 ha        1 COX      0.148500
     34 H14        -2.2840   -7.6760    2.4830 ha        1 COX      0.149000
     35 H15        -0.0290   -7.4890    1.4270 ha        1 COX      0.148500
     36 H16         0.1830   -6.7770   -0.9520 ha        1 COX      0.144000
     37 H131       -1.7210    1.4070    0.2660 hn        1 COX      0.450800
@<TRIPOS>BOND
     1    1    2 2   
     2    1    3 2   
     3    1    4 1   
     4    1    5 1   
     5    4   23 1   
     6    4   24 1   
     7    4   37 1   
     8    5    6 ar  
     9    5   10 ar  
    10    6    7 ar  
    11    6   25 1   
    12    7    8 ar  
    13    7   26 1   
    14    8    9 ar  
    15    8   11 1   
    16    9   10 ar  
    17    9   27 1   
    18   10   28 1   
    19   11   12 2   
    20   11   16 1   
    21   12   13 1   
    22   12   14 1   
    23   13   29 1   
    24   13   30 1   
    25   13   31 1   
    26   14   15 1   
    27   15   16 2   
    28   16   17 1   
    29   17   18 ar  
    30   17   22 ar  
    31   18   19 ar  
    32   18   32 1   
    33   19   20 ar  
    34   19   33 1   
    35   20   21 ar  
    36   20   34 1   
    37   21   22 ar  
    38   21   35 1   
    39   22   36 1   
@<TRIPOS>SUBSTRUCTURE
     1 COX         1 TEMP              0 ****  ****    0 ROOT
