@<TRIPOS>MOLECULE
COX
   36    29     1     0     0
SMALL
bcc


@<TRIPOS>ATOM
      1 S1          1.5980    3.8590    1.1760 ss        1 COX      2.866000
      2 O1          2.7680    3.5430    1.9470 o         1 COX     -0.937000
      3 O2          0.7010    4.3120    2.2030 o         1 COX     -0.937000
      4 N1          1.9060    5.0480    0.0870 n2        1 COX     -0.953000
      5 C1          0.9630    2.4240    0.3530 c1        1 COX     -0.831000
      6 C2         -0.4000    2.2940    0.1400 c1        1 COX     -0.017000
      7 C3         -0.9020    1.1500   -0.4610 c1        1 COX     -0.158000
      8 C4         -0.0410    0.1360   -0.8490 c1        1 COX      0.060000
      9 C5          1.3230    0.2660   -0.6370 c1        1 COX     -0.144000
     10 C6          1.8250    1.4100   -0.0350 c2        1 COX     -0.017000
     11 C7         -0.5430   -1.0100   -1.4450 c1        1 COX     -0.154000
     12 C8         -0.7260   -1.2060   -2.7930 c1        1 COX      0.002000
     13 C9         -0.5120   -0.1730   -3.8780 c2        1 COX     -0.170000
     14 O3         -1.1750   -2.4700   -2.9750 os        1 COX     -0.055000
     15 N2         -1.2750   -3.0740   -1.7260 n2        1 COX     -0.016000
     16 C10        -0.8880   -2.1770   -0.7950 c2        1 COX     -0.040000
     17 C11        -0.8360   -2.3940    0.5730 c1        1 COX     -0.039000
     18 C12        -1.9440   -2.1170    1.3590 c1        1 COX     -0.122000
     19 C13        -1.9330   -2.4340    2.7080 c1        1 COX     -0.122000
     20 C14        -0.8140   -3.0280    3.2720 c1        1 COX     -0.122000
     21 C15         0.2930   -3.3050    2.4860 c1        1 COX     -0.122000
     22 C16         0.2830   -2.9880    1.1360 c1        1 COX     -0.096000
     23 HN11        1.5090    5.8660    0.1800 hn        1 COX      0.243000
     24 HN12        2.4780    4.8940   -0.6080 hn        1 COX      0.243000
     25 H2         -1.0070    3.0080    0.4140 ha        1 COX      0.155000
     26 H3         -1.8620    1.0590   -0.6110 ha        1 COX      0.141000
     27 H5          1.9290   -0.4470   -0.9100 ha        1 COX      0.155000
     28 H6          2.7850    1.5010    0.1150 ha        1 COX      0.154000
     29 H91         0.4090    0.1590   -3.8360 ha        1 COX      0.110333
     30 H92        -1.1340    0.5730   -3.7470 ha        1 COX      0.110333
     31 H93        -0.6720   -0.5820   -4.7550 ha        1 COX      0.110333
     32 H12        -2.7310   -1.6980    0.9630 ha        1 COX      0.139250
     33 H13        -2.7130   -2.2390    3.2620 ha        1 COX      0.139250
     34 H14        -0.8070   -3.2520    4.2220 ha        1 COX      0.139250
     35 H15         1.0810   -3.7240    2.8830 ha        1 COX      0.139250
     36 H16         1.0630   -3.1830    0.5830 ha        1 COX      0.146000
@<TRIPOS>BOND
     1    1    2 1   
     2    1    3 1   
     3    4   23 1   
     4    4   24 1   
     5    5    6 1   
     6    5   10 1   
     7    6   25 1   
     8    7    8 1   
     9    7   26 1   
    10    9   10 1   
    11    9   27 1   
    12   10   28 1   
    13   11   12 1   
    14   11   16 1   
    15   12   14 1   
    16   13   29 1   
    17   13   30 1   
    18   13   31 1   
    19   14   15 1   
    20   15   16 1   
    21   16   17 1   
    22   17   22 1   
    23   18   19 1   
    24   18   32 1   
    25   19   33 1   
    26   20   21 1   
    27   20   34 1   
    28   21   35 1   
    29   22   36 1   
@<TRIPOS>SUBSTRUCTURE
     1 COX         1 TEMP              0 ****  ****    0 ROOT
