@<TRIPOS>MOLECULE
CP
   10     9     1     0     0
SMALL
bcc


@<TRIPOS>ATOM
      1 N          -2.0970   -0.0200    0.4820 n         1 CP      -0.656000
      2 C          -0.6780   -0.0200    0.4820 c         1 CP       0.773100
      3 O          -0.0700   -0.0200    1.5340 o         1 CP      -0.745000
      4 O4P         0.0250   -0.0210   -0.7340 os        1 CP      -0.509500
      5 P           1.6040    0.0210   -0.6920 p5        1 CP       1.336900
      6 O1P         2.1470   -0.0270   -2.1010 o         1 CP      -0.909833
      7 O2P         2.1180   -1.1670    0.0860 o         1 CP      -0.909833
      8 O3P         2.0560    1.2960   -0.0220 o         1 CP      -0.909833
      9 HN1        -2.5530   -0.0180   -0.3070 hn        1 CP       0.264500
     10 HN2        -2.5530   -0.0270    1.2720 hn        1 CP       0.264500
@<TRIPOS>BOND
     1    1    2 1   
     2    1    9 1   
     3    1   10 1   
     4    2    3 2   
     5    2    4 1   
     6    4    5 1   
     7    5    6 1   
     8    5    7 1   
     9    5    8 1   
@<TRIPOS>SUBSTRUCTURE
     1 CP          1 TEMP              0 ****  ****    0 ROOT
