@<TRIPOS>MOLECULE
CP
   10     9     1     0     0
SMALL
bcc


@<TRIPOS>ATOM
      1 N          -0.9580   -0.2330    2.3190 n         1 CP      -0.656000
      2 C           0.4040   -0.2260    1.8940 c         1 CP       0.773100
      3 O           1.3210   -0.1370    2.7600 o         1 CP      -0.745000
      4 O4P         0.7310   -0.4050    0.6450 os        1 CP      -0.509500
      5 P          -0.0570    0.1340   -0.9000 p5        1 CP       1.336900
      6 O1P        -0.2310   -1.1670   -1.6120 o         1 CP      -0.909833
      7 O2P        -1.2940    0.7390   -0.2950 o         1 CP      -0.909833
      8 O3P         0.9520    1.0920   -1.4430 o         1 CP      -0.909833
      9 HN1        -1.5690   -0.0360    1.5360 hn        1 CP       0.264500
     10 HN2        -1.1020    0.3980    3.0750 hn        1 CP       0.264500
@<TRIPOS>BOND
     1    1    2 1   
     2    1    9 1   
     3    1   10 1   
     4    2    3 2   
     5    2    4 1   
     6    4    5 1   
     7    5    6 1   
     8    5    7 1   
     9    5    8 1   
@<TRIPOS>SUBSTRUCTURE
     1 CP          1 TEMP              0 ****  ****    0 ROOT
