@<TRIPOS>MOLECULE
CP1
   36    35     1     0     0
SMALL
bcc


@<TRIPOS>ATOM
      1 C8'        -1.6080    0.1590   -0.0170 c3        1 CP1     -0.092000
      2 C7'        -0.1290    0.5920   -0.0950 c2        1 CP1      0.292000
      3 O7'         0.4290    0.9310    0.8640 o         1 CP1     -0.419000
      4 C5'         0.8190    1.7320   -2.0770 c3        1 CP1     -0.126000
      5 C'          1.2270    2.8380   -1.1060 c2        1 CP1      0.316000
      6 O1'         0.4580    3.8110   -0.9030 o         1 CP1     -0.564000
      7 OXT         2.3810    2.8350   -0.6040 o         1 CP1     -0.564000
      8 N4'         0.5720    0.5370   -1.3530 n         1 CP1     -0.283000
      9 C3'         0.8970   -0.7470   -1.9450 c3        1 CP1     -0.025000
     10 C2'         2.4150   -0.9460   -1.9420 c3        1 CP1     -0.128000
     11 N1'         2.7370   -2.2150   -2.6020 n3        1 CP1     -0.299000
     12 C1'         4.1150   -2.2230   -2.9820 c3        1 CP1     -0.120000
     13 N1         -2.0630    0.2190    1.3490 n         1 CP1     -0.231000
     14 C2         -2.4370    1.5150    1.9410 c2        1 CP1      0.349000
     15 N3         -3.0890    1.5620    3.2630 n2        1 CP1     -0.307000
     16 C4         -3.2510    0.3690    4.0260 c1        1 CP1      0.204000
     17 C5         -2.7880   -0.9340    3.4720 c1        1 CP1     -0.376000
     18 C6         -2.2280   -0.9930    2.1050 c2        1 CP1      0.109000
     19 O2         -2.3040    2.5390    1.2940 o         1 CP1     -0.363000
     20 N4         -3.7230    0.4400    5.3060 n3        1 CP1     -0.341000
     21 H8'1       -2.1460    0.7510   -0.5600 h1        1 CP1      0.174500
     22 H8'2       -1.6930   -0.7380   -0.3420 h1        1 CP1      0.174500
     23 H5'1        1.5520    1.5790   -2.7300 h1        1 CP1      0.082500
     24 H5'2        0.0120    1.9970   -2.5520 h1        1 CP1      0.082500
     25 H3'1        0.5640   -0.7740   -2.8770 h1        1 CP1      0.091000
     26 H3'2        0.4810   -1.4520   -1.4350 h1        1 CP1      0.091000
     27 H2'1        2.8340   -0.2240   -2.4140 h1        1 CP1      0.107000
     28 H2'2        2.7330   -0.9650   -1.0440 h1        1 CP1      0.107000
     29 H1'         2.5670   -2.9290   -2.0120 hn        1 CP1      0.135000
     30 H1'1        4.3310   -3.0610   -3.3740 h1        1 CP1      0.062000
     31 H1'2        4.6760   -2.0790   -2.1850 h1        1 CP1      0.062000
     32 H1'3        4.2820   -1.4920   -3.6460 h1        1 CP1      0.062000
     33 H5         -2.8990   -1.7430    3.9850 ha        1 CP1      0.147000
     34 H6         -1.9300   -1.8220    1.7470 h4        1 CP1      0.183000
     35 HN41       -3.8680   -0.3140    5.7750 hn        1 CP1      0.203500
     36 HN42       -3.9270    1.2460    5.6700 hn        1 CP1      0.203500
@<TRIPOS>BOND
     1    1    2 1   
     2    1   13 1   
     3    1   21 1   
     4    1   22 1   
     5    2    3 1   
     6    2    8 1   
     7    4    5 1   
     8    4    8 1   
     9    4   23 1   
    10    4   24 1   
    11    5    6 1   
    12    5    7 1   
    13    8    9 1   
    14    9   10 1   
    15    9   25 1   
    16    9   26 1   
    17   10   11 1   
    18   10   27 1   
    19   10   28 1   
    20   11   12 1   
    21   11   29 1   
    22   12   30 1   
    23   12   31 1   
    24   12   32 1   
    25   13   14 1   
    26   13   18 1   
    27   14   15 1   
    28   14   19 1   
    29   15   16 1   
    30   16   20 1   
    31   17   18 1   
    32   17   33 1   
    33   18   34 1   
    34   20   35 1   
    35   20   36 1   
@<TRIPOS>SUBSTRUCTURE
     1 CP1         1 TEMP              0 ****  ****    0 ROOT
