@<TRIPOS>MOLECULE
CP1
   36    36     1     0     0
SMALL
bcc


@<TRIPOS>ATOM
      1 C8'        -0.5470    0.5770    0.7420 c3        1 CP1     -0.008000
      2 C7'         0.4510    0.0100   -0.2780 c         1 CP1      0.648100
      3 O7'         1.4580   -0.6460    0.0810 o         1 CP1     -0.668100
      4 C5'        -1.0160    0.8580   -2.0780 c3        1 CP1     -0.072000
      5 C'         -2.1320   -0.2220   -2.2470 c         1 CP1      0.898600
      6 O1'        -2.7900   -0.5240   -1.2170 o         1 CP1     -0.821300
      7 OXT        -2.2810   -0.7090   -3.3990 o         1 CP1     -0.821300
      8 N4'         0.2450    0.3120   -1.6130 n         1 CP1     -0.416800
      9 C3'         0.9790   -0.4390   -2.6170 c3        1 CP1      0.063000
     10 C2'         1.8950    0.4700   -3.4700 c3        1 CP1      0.149800
     11 N1'         2.5370   -0.2550   -4.5520 n3        1 CP1     -0.826200
     12 C1'         3.0040    0.5980   -5.6110 c3        1 CP1      0.157100
     13 N1         -0.1840    0.4120    2.1340 n         1 CP1     -0.349000
     14 C2         -1.2310    0.2030    3.1170 c         1 CP1      0.822900
     15 N3         -0.8980   -0.0360    4.4610 nc        1 CP1     -0.727100
     16 C4          0.3900    0.0090    4.8310 cd        1 CP1      0.721500
     17 C5          1.4570    0.2660    3.8800 cd        1 CP1     -0.464600
     18 C6          1.1130    0.4470    2.5580 cc        1 CP1      0.095600
     19 O2         -2.4140    0.2580    2.7360 o         1 CP1     -0.595500
     20 N4          0.7320   -0.1350    6.1810 nh        1 CP1     -0.895800
     21 H8'1       -0.6750    1.6830    0.5580 h1        1 CP1      0.125700
     22 H8'2       -1.5540    0.0670    0.5460 h1        1 CP1      0.125700
     23 H5'1       -1.3730    1.6490   -1.3660 h1        1 CP1      0.038700
     24 H5'2       -0.8280    1.3400   -3.0760 h1        1 CP1      0.038700
     25 H3'1        0.2280   -0.9540   -3.2880 h1        1 CP1      0.080200
     26 H3'2        1.6150   -1.2250   -2.1190 h1        1 CP1      0.080200
     27 H2'1        2.7140    0.8900   -2.8210 h1        1 CP1      0.031200
     28 H2'2        1.2900    1.3430   -3.8560 h1        1 CP1      0.031200
     29 H1'         1.9190   -0.9580   -4.9160 hn        1 CP1      0.361800
     30 H1'1        3.5030   -0.0370   -6.3890 h1        1 CP1      0.020033
     31 H1'2        2.1930    1.1980   -6.1110 h1        1 CP1      0.020033
     32 H1'3        3.7580    1.3180   -5.1960 h1        1 CP1      0.020033
     33 H5          2.5020    0.3140    4.1960 ha        1 CP1      0.145000
     34 H6          1.8960    0.6170    1.7900 h4        1 CP1      0.183000
     35 HN41        0.0260   -0.4980    6.7810 hn        1 CP1      0.403800
     36 HN42        1.6380   -0.5130    6.3310 hn        1 CP1      0.403800
@<TRIPOS>BOND
     1    1    2 1   
     2    1   13 1   
     3    1   21 1   
     4    1   22 1   
     5    2    3 2   
     6    2    8 1   
     7    4    5 1   
     8    4    8 1   
     9    4   23 1   
    10    4   24 1   
    11    5    6 1   
    12    5    7 1   
    13    8    9 1   
    14    9   10 1   
    15    9   25 1   
    16    9   26 1   
    17   10   11 1   
    18   10   27 1   
    19   10   28 1   
    20   11   12 1   
    21   11   29 1   
    22   12   30 1   
    23   12   31 1   
    24   12   32 1   
    25   13   14 1   
    26   13   18 1   
    27   14   15 1   
    28   14   19 2   
    29   15   16 2   
    30   16   17 1   
    31   16   20 1   
    32   17   18 2   
    33   17   33 1   
    34   18   34 1   
    35   20   35 1   
    36   20   36 1   
@<TRIPOS>SUBSTRUCTURE
     1 CP1         1 TEMP              0 ****  ****    0 ROOT
