@<TRIPOS>MOLECULE
CP2
   11    10     1     0     0
SMALL
bcc


@<TRIPOS>ATOM
      1 Cl1         0.0640    0.1870   -0.0710 cl        1 CP2     -0.173400
      2 C2          1.7960   -0.0530    0.0130 c3        1 CP2      0.022000
      3 C3          2.3140   -0.0360    1.4360 c3        1 CP2      0.043700
      4 C4          3.8240    0.0330    1.4430 c3        1 CP2     -0.106100
      5 Cl5         1.7680   -1.4710    2.3140 cl        1 CP2     -0.183400
      6 HC21        2.0150   -1.0270   -0.4880 h1        1 CP2      0.076700
      7 HC22        2.2610    0.7820   -0.5680 h1        1 CP2      0.076700
      8 HC31        1.8820    0.8310    2.0020 h1        1 CP2      0.086700
      9 HC41        4.2110    0.0160    2.4910 hc        1 CP2      0.052033
     10 HC42        4.1590    0.9820    0.9570 hc        1 CP2      0.052033
     11 HC43        4.2670   -0.8280    0.8870 hc        1 CP2      0.052033
@<TRIPOS>BOND
     1    1    2 1   
     2    2    3 1   
     3    2    6 1   
     4    2    7 1   
     5    3    4 1   
     6    3    5 1   
     7    3    8 1   
     8    4    9 1   
     9    4   10 1   
    10    4   11 1   
@<TRIPOS>SUBSTRUCTURE
     1 CP2         1 TEMP              0 ****  ****    0 ROOT
