@<TRIPOS>MOLECULE
CP2
   11    10     1     0     0
SMALL
bcc


@<TRIPOS>ATOM
      1 CL1         0.0590    0.1950   -0.0580 cl        1 CP2     -0.173400
      2 C2          1.7920   -0.0440    0.0160 c3        1 CP2      0.022000
      3 C3          2.3170   -0.0420    1.4380 c3        1 CP2      0.043700
      4 C4          3.8260    0.0290    1.4390 c3        1 CP2     -0.106100
      5 CL5         1.7760   -1.4860    2.3030 cl        1 CP2     -0.183400
      6 HC21        2.0090   -1.0120   -0.4950 h1        1 CP2      0.076700
      7 HC22        2.2530    0.7970   -0.5580 h1        1 CP2      0.076700
      8 HC31        1.8860    0.8190    2.0150 h1        1 CP2      0.086700
      9 HC41        4.2180    0.0010    2.4840 hc        1 CP2      0.052033
     10 HC42        4.1580    0.9840    0.9610 hc        1 CP2      0.052033
     11 HC43        4.2670   -0.8260    0.8720 hc        1 CP2      0.052033
@<TRIPOS>BOND
     1    1    2 1   
     2    2    3 1   
     3    2    6 1   
     4    2    7 1   
     5    3    4 1   
     6    3    5 1   
     7    3    8 1   
     8    4    9 1   
     9    4   10 1   
    10    4   11 1   
@<TRIPOS>SUBSTRUCTURE
     1 CP2         1 TEMP              0 ****  ****    0 ROOT
