@<TRIPOS>MOLECULE
CP2
   11    10     1     0     0
SMALL
bcc


@<TRIPOS>ATOM
      1 CL1        -2.4880    0.4070   -0.8740 cl        1 CP2     -0.173400
      2 C2         -0.7540    0.2330   -0.9360 c3        1 CP2      0.022000
      3 C3         -0.1950    0.2470    0.4700 c3        1 CP2      0.043700
      4 C4          1.2030   -0.3320    0.4630 c3        1 CP2     -0.106100
      5 CL5        -1.2150   -0.7100    1.5110 cl        1 CP2     -0.183400
      6 HC21       -0.5270   -0.6150   -1.3680 h1        1 CP2      0.076700
      7 HC22       -0.3700    0.9730   -1.4470 h1        1 CP2      0.076700
      8 HC31       -0.1650    1.1660    0.7990 h1        1 CP2      0.086700
      9 HC41        1.5730   -0.3030    1.3700 hc        1 CP2      0.052033
     10 HC42        1.7700    0.1930   -0.1390 hc        1 CP2      0.052033
     11 HC43        1.1700   -1.2610    0.1530 hc        1 CP2      0.052033
@<TRIPOS>BOND
     1    1    2 1   
     2    2    3 1   
     3    2    6 1   
     4    2    7 1   
     5    3    4 1   
     6    3    5 1   
     7    3    8 1   
     8    4    9 1   
     9    4   10 1   
    10    4   11 1   
@<TRIPOS>SUBSTRUCTURE
     1 CP2         1 TEMP              0 ****  ****    0 ROOT
