@<TRIPOS>MOLECULE
CP2
   11    10     1     0     0
SMALL
bcc


@<TRIPOS>ATOM
      1 CL1        -0.0970   -0.1650   -1.9720 cl        1 CP2     -0.173400
      2 C2         -0.9450    0.3910   -0.5450 c3        1 CP2      0.022000
      3 C3         -0.5180   -0.3490    0.7070 c3        1 CP2      0.043700
      4 C4         -1.4600   -0.0370    1.8470 c3        1 CP2     -0.106100
      5 CL5         1.1380    0.0840    1.1510 cl        1 CP2     -0.183400
      6 HC21       -2.0330    0.2170   -0.7330 h1        1 CP2      0.076700
      7 HC22       -0.7490    1.4870   -0.4550 h1        1 CP2      0.076700
      8 HC31       -0.4870   -1.4550    0.5190 h1        1 CP2      0.086700
      9 HC41       -1.1310   -0.5580    2.7790 hc        1 CP2      0.052033
     10 HC42       -1.4950    1.0610    2.0470 hc        1 CP2      0.052033
     11 HC43       -2.4900   -0.3870    1.5900 hc        1 CP2      0.052033
@<TRIPOS>BOND
     1    1    2 1   
     2    2    3 1   
     3    2    6 1   
     4    2    7 1   
     5    3    4 1   
     6    3    5 1   
     7    3    8 1   
     8    4    9 1   
     9    4   10 1   
    10    4   11 1   
@<TRIPOS>SUBSTRUCTURE
     1 CP2         1 TEMP              0 ****  ****    0 ROOT
