@<TRIPOS>MOLECULE
CP3
   88    92     1     0     0
SMALL
bcc


@<TRIPOS>ATOM
      1 O2R         7.3830    1.4440    1.7280 o         1 CP3     -0.868300
      2 C63         7.4810    1.1770    0.4920 c         1 CP3      0.903600
      3 O1R         8.5860    1.2160   -0.1280 o         1 CP3     -0.868300
      4 C62         6.2110    0.7490   -0.2550 c3        1 CP3     -0.180400
      5 C61         6.1090    1.3700   -1.6340 c3        1 CP3     -0.002100
      6 C18         5.1010    0.7190   -2.4920 cc        1 CP3     -0.115300
      7 C19         3.8690    1.2530   -2.9250 cd        1 CP3     -0.135600
      8 N24         3.2330    0.3050   -3.7290 na        1 CP3     -0.168600
      9 C20         3.2770    2.5710   -2.5980 c3        1 CP3      0.062200
     10 C1          2.2370    3.0430   -3.5420 cc        1 CP3     -0.145600
     11 C17         5.2040   -0.6010   -3.0590 cc        1 CP3     -0.142300
     12 C86         6.3220   -1.5300   -2.8840 c3        1 CP3     -0.020800
     13 C16         4.0310   -0.8350   -3.8070 cd        1 CP3     -0.142600
     14 C15         3.6360   -2.0830   -4.4980 c3        1 CP3      0.064200
     15 C14         3.2480   -1.9530   -5.9210 cc        1 CP3     -0.137600
     16 N23         3.3200   -0.7710   -6.6630 na        1 CP3     -0.162100
     17 C13         2.7500   -2.9800   -6.7530 cd        1 CP3     -0.115300
     18 C51         2.5840   -4.4010   -6.4000 c3        1 CP3     -0.003100
     19 C52         1.1620   -4.9150   -6.4930 c3        1 CP3     -0.181400
     20 C53         1.1090   -6.4430   -6.6260 c         1 CP3      0.902600
     21 O2M         0.2430   -7.0740   -5.9470 o         1 CP3     -0.868800
     22 O1M         1.9010   -7.0250   -7.4280 o         1 CP3     -0.868800
     23 C12         2.5290   -2.3930   -8.0480 cd        1 CP3     -0.147300
     24 C81         2.0140   -3.0810   -9.2320 c3        1 CP3     -0.019800
     25 C11         2.9060   -1.0350   -7.9680 cc        1 CP3     -0.138600
     26 C10         2.9380   -0.0760   -9.0920 c3        1 CP3      0.068200
     27 C6          2.7340    1.3570   -8.7960 cc        1 CP3     -0.146600
     28 N22         2.0390    1.8850   -7.7110 na        1 CP3     -0.168600
     29 C7          3.1470    2.4250   -9.6200 cd        1 CP3     -0.136300
     30 C7A         3.9130    2.3190  -10.8630 c3        1 CP3     -0.040800
     31 C8          2.6610    3.6430   -9.0240 cd        1 CP3     -0.110300
     32 C41         2.8080    4.9850   -9.6170 c3        1 CP3     -0.001100
     33 C42         4.2470    5.4310   -9.7980 c3        1 CP3     -0.185400
     34 C43         4.4900    6.0860  -11.1650 c         1 CP3      0.903600
     35 O28         5.0840    7.2050  -11.2020 o         1 CP3     -0.867800
     36 O18         4.1200    5.4750  -12.2140 o         1 CP3     -0.867800
     37 C9          1.9700    3.2770   -7.8500 cc        1 CP3     -0.144600
     38 C5          1.2210    4.1490   -6.9140 c3        1 CP3      0.059200
     39 C4          1.3000    3.7590   -5.4860 cc        1 CP3     -0.138600
     40 N21         2.4520    3.2200   -4.9080 na        1 CP3     -0.170100
     41 C3          0.3200    3.9000   -4.4810 cd        1 CP3     -0.112300
     42 C2          0.9160    3.4400   -3.2520 cd        1 CP3     -0.143300
     43 C2A         0.2650    3.4010   -1.9410 c3        1 CP3     -0.021800
     44 C31        -1.0630    4.3930   -4.6290 c3        1 CP3     -0.003100
     45 C32        -1.3040    5.7250   -3.9470 c3        1 CP3     -0.180400
     46 C33        -2.7960    6.0430   -3.7790 c         1 CP3      0.903600
     47 O13        -3.6070    5.1100   -3.5000 o         1 CP3     -0.867800
     48 O23        -3.1610    7.2530   -3.8920 o         1 CP3     -0.867800
     49 H621        5.3150    1.0190    0.3570 hc        1 CP3      0.025700
     50 H622        6.2380   -0.3680   -0.3500 hc        1 CP3      0.025700
     51 H611        5.8700    2.4620   -1.5290 hc        1 CP3      0.046700
     52 H612        7.1200    1.2980   -2.1250 hc        1 CP3      0.046700
     53 HN4         2.3250    0.4000   -4.1060 hn        1 CP3      0.299200
     54 H201        4.1100    3.3280   -2.5460 hc        1 CP3      0.064700
     55 H202        2.8140    2.5150   -1.5720 hc        1 CP3      0.064700
     56 H861        6.6320   -1.9720   -3.8640 hc        1 CP3      0.035033
     57 H862        7.2000   -1.0020   -2.4320 hc        1 CP3      0.035033
     58 H863        6.0310   -2.3690   -2.2020 hc        1 CP3      0.035033
     59 H151        2.7750   -2.5580   -3.9450 hc        1 CP3      0.063200
     60 H152        4.5040   -2.8000   -4.4340 hc        1 CP3      0.063200
     61 HN3         3.7680    0.0580   -6.3690 hn        1 CP3      0.300700
     62 H511        2.9690   -4.5740   -5.3580 hc        1 CP3      0.045700
     63 H512        3.2200   -5.0190   -7.0970 hc        1 CP3      0.045700
     64 H521        0.5770   -4.6010   -5.5930 hc        1 CP3      0.027700
     65 H522        0.6600   -4.4800   -7.3950 hc        1 CP3      0.027700
     66 H811        0.9230   -2.8660   -9.3670 hc        1 CP3      0.034367
     67 H812        2.5500   -2.7440  -10.1550 hc        1 CP3      0.034367
     68 H813        2.1410   -4.1890   -9.1230 hc        1 CP3      0.034367
     69 H101        2.1480   -0.3980   -9.8320 hc        1 CP3      0.055700
     70 H102        3.9340   -0.1720   -9.6150 hc        1 CP3      0.055700
     71 HN2         1.5520    1.3630   -7.0310 hn        1 CP3      0.299200
     72 H7A1        4.9730    2.0300  -10.6460 hc        1 CP3      0.045367
     73 H7A2        3.9200    3.3050  -11.4080 hc        1 CP3      0.045367
     74 H7A3        3.4740    1.5360  -11.5320 hc        1 CP3      0.045367
     75 H411        2.2580    5.7390   -8.9940 hc        1 CP3      0.043700
     76 H412        2.3150    4.9660  -10.6320 hc        1 CP3      0.043700
     77 H421        4.9370    4.5510   -9.7260 hc        1 CP3      0.029700
     78 H422        4.5290    6.1520   -8.9900 hc        1 CP3      0.029700
     79 H51         1.6120    5.2000   -7.0240 hc        1 CP3      0.068700
     80 H52         0.1360    4.1640   -7.2160 hc        1 CP3      0.068700
     81 HN1         3.3100    3.0860   -5.3750 hn        1 CP3      0.298700
     82 H2A1        0.4980    2.4480   -1.4040 hc        1 CP3      0.036033
     83 H2A2       -0.8460    3.4900   -2.0550 hc        1 CP3      0.036033
     84 H2A3        0.6170    4.2530   -1.3040 hc        1 CP3      0.036033
     85 H311       -1.7750    3.6410   -4.1850 hc        1 CP3      0.047700
     86 H312       -1.3220    4.4870   -5.7170 hc        1 CP3      0.047700
     87 H321       -0.8480    5.7100   -2.9230 hc        1 CP3      0.026700
     88 H322       -0.8160    6.5490   -4.5250 hc        1 CP3      0.026700
@<TRIPOS>BOND
     1    1    2 1   
     2    2    3 1   
     3    2    4 1   
     4    4    5 1   
     5    4   49 1   
     6    4   50 1   
     7    5    6 1   
     8    5   51 1   
     9    5   52 1   
    10    6    7 2   
    11    6   11 1   
    12    7    8 1   
    13    7    9 1   
    14    8   13 1   
    15    8   53 1   
    16    9   10 1   
    17    9   54 1   
    18    9   55 1   
    19   10   40 1   
    20   10   42 2   
    21   11   12 1   
    22   11   13 2   
    23   12   56 1   
    24   12   57 1   
    25   12   58 1   
    26   13   14 1   
    27   14   15 1   
    28   14   59 1   
    29   14   60 1   
    30   15   16 1   
    31   15   17 2   
    32   16   25 1   
    33   16   61 1   
    34   17   18 1   
    35   17   23 1   
    36   18   19 1   
    37   18   62 1   
    38   18   63 1   
    39   19   20 1   
    40   19   64 1   
    41   19   65 1   
    42   20   21 1   
    43   20   22 1   
    44   23   24 1   
    45   23   25 2   
    46   24   66 1   
    47   24   67 1   
    48   24   68 1   
    49   25   26 1   
    50   26   27 1   
    51   26   69 1   
    52   26   70 1   
    53   27   28 1   
    54   27   29 2   
    55   28   37 1   
    56   28   71 1   
    57   29   30 1   
    58   29   31 1   
    59   30   72 1   
    60   30   73 1   
    61   30   74 1   
    62   31   32 1   
    63   31   37 2   
    64   32   33 1   
    65   32   75 1   
    66   32   76 1   
    67   33   34 1   
    68   33   77 1   
    69   33   78 1   
    70   34   35 1   
    71   34   36 1   
    72   37   38 1   
    73   38   39 1   
    74   38   79 1   
    75   38   80 1   
    76   39   40 1   
    77   39   41 2   
    78   40   81 1   
    79   41   42 1   
    80   41   44 1   
    81   42   43 1   
    82   43   82 1   
    83   43   83 1   
    84   43   84 1   
    85   44   45 1   
    86   44   85 1   
    87   44   86 1   
    88   45   46 1   
    89   45   87 1   
    90   45   88 1   
    91   46   47 1   
    92   46   48 1   
@<TRIPOS>SUBSTRUCTURE
     1 CP3         1 TEMP              0 ****  ****    0 ROOT
