@<TRIPOS>MOLECULE
CP3
   88    92     1     0     0
SMALL
bcc


@<TRIPOS>ATOM
      1 O2R        -5.9270   -5.3990   -1.9290 o         1 CP3     -0.868300
      2 C63        -5.7690   -4.2090   -2.3380 c         1 CP3      0.902600
      3 O1R        -6.6570   -3.5940   -3.0020 o         1 CP3     -0.868300
      4 C62        -4.4300   -3.5160   -2.0430 c3        1 CP3     -0.181400
      5 C61        -4.6050   -2.0500   -1.7090 c3        1 CP3     -0.003100
      6 C18        -3.3770   -1.2430   -1.8240 cc        1 CP3     -0.117300
      7 C19        -2.7440   -0.5190   -0.7900 cd        1 CP3     -0.136600
      8 N24        -1.6570    0.1710   -1.3310 na        1 CP3     -0.165600
      9 C20        -3.1360   -0.4610    0.6370 c3        1 CP3      0.063200
     10 C1         -2.1940    0.2600    1.5250 cc        1 CP3     -0.146600
     11 C17        -2.6440   -0.9660   -3.0320 cc        1 CP3     -0.142300
     12 C86        -2.9400   -1.5030   -4.3620 c3        1 CP3     -0.020800
     13 C16        -1.5960   -0.0810   -2.7010 cd        1 CP3     -0.144600
     14 C15        -0.6320    0.5500   -3.6300 c3        1 CP3      0.063200
     15 C14         0.7590    0.6880   -3.1440 cc        1 CP3     -0.134600
     16 N23         1.3070   -0.0640   -2.1020 na        1 CP3     -0.168100
     17 C13         1.7560    1.5540   -3.6440 cd        1 CP3     -0.115300
     18 C51         1.6290    2.5280   -4.7440 c3        1 CP3     -0.002100
     19 C52         2.3880    2.1170   -5.9900 c3        1 CP3     -0.180400
     20 C53         2.5500    3.2670   -6.9930 c         1 CP3      0.903600
     21 O2M         2.4260    3.0020   -8.2270 o         1 CP3     -0.867300
     22 O1M         2.8370    4.4270   -6.5710 o         1 CP3     -0.867300
     23 C12         2.9460    1.3080   -2.8710 cd        1 CP3     -0.143300
     24 C81         4.2330    1.9870   -3.0290 c3        1 CP3     -0.019800
     25 C11         2.6440    0.2930   -1.9390 cc        1 CP3     -0.141600
     26 C10         3.5780   -0.3650   -1.0010 c3        1 CP3      0.068200
     27 C6          3.1560   -0.4600    0.4130 cc        1 CP3     -0.144600
     28 N22         2.0580    0.1760    0.9870 na        1 CP3     -0.165600
     29 C7          3.8210   -1.1920    1.4190 cd        1 CP3     -0.139300
     30 C7A         5.0200   -2.0140    1.2470 c3        1 CP3     -0.039800
     31 C8          3.1120   -0.9700    2.6530 cd        1 CP3     -0.109300
     32 C41         3.5250   -1.4990    3.9660 c3        1 CP3     -0.001100
     33 C42         3.5550   -3.0140    4.0430 c3        1 CP3     -0.185400
     34 C43         4.8110   -3.5420    4.7510 c         1 CP3      0.903600
     35 O28         4.6690   -4.3960    5.6760 o         1 CP3     -0.867800
     36 O18         5.9500   -3.1330    4.3690 o         1 CP3     -0.867800
     37 C9          2.0330   -0.1100    2.3570 cc        1 CP3     -0.145600
     38 C5          1.0420    0.4720    3.2930 c3        1 CP3      0.060200
     39 C4         -0.3130    0.6880    2.7310 cc        1 CP3     -0.136600
     40 N21        -0.8970   -0.1750    1.7990 na        1 CP3     -0.173100
     41 C3         -1.2390    1.7080    3.0370 cd        1 CP3     -0.112300
     42 C2         -2.4270    1.4370    2.2660 cd        1 CP3     -0.140300
     43 C2A        -3.6530    2.2370    2.2610 c3        1 CP3     -0.021800
     44 C31        -1.0560    2.8560    3.9450 c3        1 CP3     -0.004100
     45 C32        -1.9230    2.7850    5.1860 c3        1 CP3     -0.180400
     46 C33        -2.0420    4.1350    5.9050 c         1 CP3      0.903600
     47 O13        -2.1240    5.2020    5.2260 o         1 CP3     -0.867800
     48 O23        -2.0930    4.1300    7.1730 o         1 CP3     -0.867800
     49 H621       -3.7880   -3.6240   -2.9550 hc        1 CP3      0.026700
     50 H622       -3.9190   -4.0480   -1.2020 hc        1 CP3      0.026700
     51 H611       -5.0140   -1.9580   -0.6660 hc        1 CP3      0.046200
     52 H612       -5.3820   -1.6270   -2.4090 hc        1 CP3      0.046200
     53 HN4        -1.1140    0.8380   -0.8460 hn        1 CP3      0.299700
     54 H201       -3.2750   -1.5170    1.0060 hc        1 CP3      0.063200
     55 H202       -4.1370    0.0510    0.7100 hc        1 CP3      0.063200
     56 H861       -2.2790   -2.3790   -4.5860 hc        1 CP3      0.035033
     57 H862       -4.0040   -1.8470   -4.4120 hc        1 CP3      0.035033
     58 H863       -2.7720   -0.7300   -5.1530 hc        1 CP3      0.035033
     59 H151       -0.6200   -0.0580   -4.5800 hc        1 CP3      0.064200
     60 H152       -1.0080    1.5790   -3.9010 hc        1 CP3      0.064200
     61 HN3         0.8580   -0.8120   -1.6410 hn        1 CP3      0.299700
     62 H511        0.5460    2.6710   -5.0030 hc        1 CP3      0.047200
     63 H512        2.0250    3.5280   -4.4080 hc        1 CP3      0.047200
     64 H521        3.4160    1.7740   -5.7050 hc        1 CP3      0.024700
     65 H522        1.8690    1.2620   -6.4930 hc        1 CP3      0.024700
     66 H811        4.9920    1.2930   -3.4710 hc        1 CP3      0.034700
     67 H812        4.1270    2.8690   -3.7120 hc        1 CP3      0.034700
     68 H813        4.6220    2.3420   -2.0410 hc        1 CP3      0.034700
     69 H101        3.7900   -1.4120   -1.3640 hc        1 CP3      0.054700
     70 H102        4.5540    0.1990   -1.0380 hc        1 CP3      0.054700
     71 HN2         1.4900    0.8470    0.5400 hn        1 CP3      0.299700
     72 H7A1        4.7760   -2.9440    0.6730 hc        1 CP3      0.044700
     73 H7A2        5.8020   -1.4540    0.6750 hc        1 CP3      0.044700
     74 H7A3        5.4390   -2.3150    2.2480 hc        1 CP3      0.044700
     75 H411        4.5650   -1.1140    4.1780 hc        1 CP3      0.043700
     76 H412        2.8500   -1.0970    4.7680 hc        1 CP3      0.043700
     77 H421        2.6470   -3.3890    4.5780 hc        1 CP3      0.029700
     78 H422        3.5490   -3.4540    3.0120 hc        1 CP3      0.029700
     79 H51         0.9590   -0.2110    4.1860 hc        1 CP3      0.068700
     80 H52         1.4300    1.4620    3.6660 hc        1 CP3      0.068700
     81 HN1        -0.4960   -1.0170    1.4800 hn        1 CP3      0.298700
     82 H2A1       -4.4500    1.7340    2.8670 hc        1 CP3      0.036367
     83 H2A2       -3.4610    3.2460    2.7090 hc        1 CP3      0.036367
     84 H2A3       -4.0400    2.3710    1.2200 hc        1 CP3      0.036367
     85 H311        0.0210    2.9330    4.2530 hc        1 CP3      0.048200
     86 H312       -1.3100    3.8070    3.3970 hc        1 CP3      0.048200
     87 H321       -2.9590    2.4660    4.9010 hc        1 CP3      0.026200
     88 H322       -1.5160    2.0250    5.8980 hc        1 CP3      0.026200
@<TRIPOS>BOND
     1    1    2 1   
     2    2    3 1   
     3    2    4 1   
     4    4    5 1   
     5    4   49 1   
     6    4   50 1   
     7    5    6 1   
     8    5   51 1   
     9    5   52 1   
    10    6    7 2   
    11    6   11 1   
    12    7    8 1   
    13    7    9 1   
    14    8   13 1   
    15    8   53 1   
    16    9   10 1   
    17    9   54 1   
    18    9   55 1   
    19   10   40 1   
    20   10   42 2   
    21   11   12 1   
    22   11   13 2   
    23   12   56 1   
    24   12   57 1   
    25   12   58 1   
    26   13   14 1   
    27   14   15 1   
    28   14   59 1   
    29   14   60 1   
    30   15   16 1   
    31   15   17 2   
    32   16   25 1   
    33   16   61 1   
    34   17   18 1   
    35   17   23 1   
    36   18   19 1   
    37   18   62 1   
    38   18   63 1   
    39   19   20 1   
    40   19   64 1   
    41   19   65 1   
    42   20   21 1   
    43   20   22 1   
    44   23   24 1   
    45   23   25 2   
    46   24   66 1   
    47   24   67 1   
    48   24   68 1   
    49   25   26 1   
    50   26   27 1   
    51   26   69 1   
    52   26   70 1   
    53   27   28 1   
    54   27   29 2   
    55   28   37 1   
    56   28   71 1   
    57   29   30 1   
    58   29   31 1   
    59   30   72 1   
    60   30   73 1   
    61   30   74 1   
    62   31   32 1   
    63   31   37 2   
    64   32   33 1   
    65   32   75 1   
    66   32   76 1   
    67   33   34 1   
    68   33   77 1   
    69   33   78 1   
    70   34   35 1   
    71   34   36 1   
    72   37   38 1   
    73   38   39 1   
    74   38   79 1   
    75   38   80 1   
    76   39   40 1   
    77   39   41 2   
    78   40   81 1   
    79   41   42 1   
    80   41   44 1   
    81   42   43 1   
    82   43   82 1   
    83   43   83 1   
    84   43   84 1   
    85   44   45 1   
    86   44   85 1   
    87   44   86 1   
    88   45   46 1   
    89   45   87 1   
    90   45   88 1   
    91   46   47 1   
    92   46   48 1   
@<TRIPOS>SUBSTRUCTURE
     1 CP3         1 TEMP              0 ****  ****    0 ROOT
