@<TRIPOS>MOLECULE
CP3
   88    92     1     0     0
SMALL
bcc


@<TRIPOS>ATOM
      1 O2R         7.3260    1.4170    1.7650 o         1 CP3     -0.868300
      2 C63         7.4320    1.1480    0.5300 c         1 CP3      0.903600
      3 O1R         8.5420    1.1750   -0.0810 o         1 CP3     -0.868300
      4 C62         6.1640    0.7300   -0.2270 c3        1 CP3     -0.180400
      5 C61         6.0780    1.3480   -1.6080 c3        1 CP3     -0.002100
      6 C18         5.0710    0.7050   -2.4720 cc        1 CP3     -0.116300
      7 C19         3.8470    1.2500   -2.9160 cd        1 CP3     -0.135600
      8 N24         3.2090    0.3060   -3.7240 na        1 CP3     -0.168600
      9 C20         3.2660    2.5740   -2.5970 c3        1 CP3      0.062200
     10 C1          2.2370    3.0530   -3.5500 cc        1 CP3     -0.145600
     11 C17         5.1660   -0.6180   -3.0350 cc        1 CP3     -0.142300
     12 C86         6.2730   -1.5570   -2.8480 c3        1 CP3     -0.020800
     13 C16         3.9970   -0.8420   -3.7920 cd        1 CP3     -0.142600
     14 C15         3.5960   -2.0880   -4.4830 c3        1 CP3      0.064200
     15 C14         3.2210   -1.9580   -5.9100 cc        1 CP3     -0.137600
     16 N23         3.3100   -0.7780   -6.6540 na        1 CP3     -0.162100
     17 C13         2.7210   -2.9820   -6.7440 cd        1 CP3     -0.115300
     18 C51         2.5390   -4.4010   -6.3890 c3        1 CP3     -0.003100
     19 C52         1.1130   -4.9010   -6.4940 c3        1 CP3     -0.181400
     20 C53         1.0470   -6.4300   -6.6240 c         1 CP3      0.902600
     21 O2M         0.1700   -7.0510   -5.9520 o         1 CP3     -0.868800
     22 O1M         1.8410   -7.0200   -7.4170 o         1 CP3     -0.868800
     23 C12         2.5170   -2.3960   -8.0420 cd        1 CP3     -0.147300
     24 C81         2.0060   -3.0820   -9.2290 c3        1 CP3     -0.019800
     25 C11         2.9060   -1.0410   -7.9610 cc        1 CP3     -0.138600
     26 C10         2.9560   -0.0850   -9.0870 c3        1 CP3      0.068200
     27 C6          2.7620    1.3510   -8.7960 cc        1 CP3     -0.146600
     28 N22         2.0620    1.8870   -7.7180 na        1 CP3     -0.168600
     29 C7          3.1900    2.4130   -9.6200 cd        1 CP3     -0.136300
     30 C7A         3.9650    2.2980  -10.8570 c3        1 CP3     -0.040800
     31 C8          2.7100    3.6360   -9.0300 cd        1 CP3     -0.110300
     32 C41         2.8720    4.9750   -9.6250 c3        1 CP3     -0.001100
     33 C42         4.3170    5.4090   -9.7960 c3        1 CP3     -0.185400
     34 C43         4.5760    6.0590  -11.1630 c         1 CP3      0.903600
     35 O28         5.1800    7.1720  -11.1980 o         1 CP3     -0.867800
     36 O18         4.2090    5.4490  -12.2130 o         1 CP3     -0.867800
     37 C9          2.0060    3.2790   -7.8610 cc        1 CP3     -0.144600
     38 C5          1.2570    4.1590   -6.9330 c3        1 CP3      0.059200
     39 C4          1.3210    3.7720   -5.5040 cc        1 CP3     -0.138600
     40 N21         2.4650    3.2240   -4.9150 na        1 CP3     -0.170100
     41 C3          0.3350    3.9240   -4.5060 cd        1 CP3     -0.112300
     42 C2          0.9170    3.4620   -3.2710 cd        1 CP3     -0.143300
     43 C2A         0.2560    3.4330   -1.9650 c3        1 CP3     -0.021800
     44 C31        -1.0420    4.4290   -4.6660 c3        1 CP3     -0.003100
     45 C32        -1.2760    5.7650   -3.9900 c3        1 CP3     -0.180400
     46 C33        -2.7670    6.0970   -3.8340 c         1 CP3      0.903600
     47 O13        -3.5890    5.1720   -3.5590 o         1 CP3     -0.867800
     48 O23        -3.1200    7.3090   -3.9520 o         1 CP3     -0.867800
     49 H621        5.2650    1.0090    0.3780 hc        1 CP3      0.025700
     50 H622        6.1810   -0.3880   -0.3190 hc        1 CP3      0.025700
     51 H611        5.8480    2.4430   -1.5060 hc        1 CP3      0.046700
     52 H612        7.0930    1.2660   -2.0900 hc        1 CP3      0.046700
     53 HN4         2.3060    0.4080   -4.1070 hn        1 CP3      0.299200
     54 H201        4.1060    3.3230   -2.5410 hc        1 CP3      0.064700
     55 H202        2.7940    2.5260   -1.5750 hc        1 CP3      0.064700
     56 H861        6.5870   -2.0050   -3.8250 hc        1 CP3      0.035033
     57 H862        7.1530   -1.0360   -2.3920 hc        1 CP3      0.035033
     58 H863        5.9690   -2.3910   -2.1660 hc        1 CP3      0.035033
     59 H151        2.7250   -2.5530   -3.9370 hc        1 CP3      0.063200
     60 H152        4.4560   -2.8130   -4.4100 hc        1 CP3      0.063200
     61 HN3         3.7630    0.0470   -6.3580 hn        1 CP3      0.300700
     62 H511        2.9130   -4.5750   -5.3440 hc        1 CP3      0.045700
     63 H512        3.1750   -5.0260   -7.0790 hc        1 CP3      0.045700
     64 H521        0.5230   -4.5800   -5.6000 hc        1 CP3      0.027700
     65 H522        0.6230   -4.4640   -7.4010 hc        1 CP3      0.027700
     66 H811        0.9180   -2.8570   -9.3740 hc        1 CP3      0.034367
     67 H812        2.5530   -2.7520  -10.1480 hc        1 CP3      0.034367
     68 H813        2.1220   -4.1910   -9.1170 hc        1 CP3      0.034367
     69 H101        2.1710   -0.4010   -9.8340 hc        1 CP3      0.055700
     70 H102        3.9560   -0.1910   -9.6010 hc        1 CP3      0.055700
     71 HN2         1.5650    1.3700   -7.0410 hn        1 CP3      0.299200
     72 H7A1        5.0210    2.0000  -10.6300 hc        1 CP3      0.045367
     73 H7A2        3.9840    3.2820  -11.4030 hc        1 CP3      0.045367
     74 H7A3        3.5240    1.5170  -11.5260 hc        1 CP3      0.045367
     75 H411        2.3240    5.7360   -9.0080 hc        1 CP3      0.043700
     76 H412        2.3870    4.9580  -10.6440 hc        1 CP3      0.043700
     77 H421        4.9990    4.5240   -9.7160 hc        1 CP3      0.029700
     78 H422        4.5980    6.1300   -8.9880 hc        1 CP3      0.029700
     79 H51         1.6580    5.2070   -7.0430 hc        1 CP3      0.068700
     80 H52         0.1740    4.1820   -7.2440 hc        1 CP3      0.068700
     81 HN1         3.3250    3.0810   -5.3760 hn        1 CP3      0.298700
     82 H2A1        0.4770    2.4790   -1.4240 hc        1 CP3      0.036033
     83 H2A2       -0.8530    3.5300   -2.0890 hc        1 CP3      0.036033
     84 H2A3        0.6110    4.2830   -1.3280 hc        1 CP3      0.036033
     85 H311       -1.7640    3.6850   -4.2260 hc        1 CP3      0.047700
     86 H312       -1.2920    4.5230   -5.7570 hc        1 CP3      0.047700
     87 H321       -0.8280    5.7480   -2.9620 hc        1 CP3      0.026700
     88 H322       -0.7770    6.5830   -4.5660 hc        1 CP3      0.026700
@<TRIPOS>BOND
     1    1    2 1   
     2    2    3 1   
     3    2    4 1   
     4    4    5 1   
     5    4   49 1   
     6    4   50 1   
     7    5    6 1   
     8    5   51 1   
     9    5   52 1   
    10    6    7 2   
    11    6   11 1   
    12    7    8 1   
    13    7    9 1   
    14    8   13 1   
    15    8   53 1   
    16    9   10 1   
    17    9   54 1   
    18    9   55 1   
    19   10   40 1   
    20   10   42 2   
    21   11   12 1   
    22   11   13 2   
    23   12   56 1   
    24   12   57 1   
    25   12   58 1   
    26   13   14 1   
    27   14   15 1   
    28   14   59 1   
    29   14   60 1   
    30   15   16 1   
    31   15   17 2   
    32   16   25 1   
    33   16   61 1   
    34   17   18 1   
    35   17   23 1   
    36   18   19 1   
    37   18   62 1   
    38   18   63 1   
    39   19   20 1   
    40   19   64 1   
    41   19   65 1   
    42   20   21 1   
    43   20   22 1   
    44   23   24 1   
    45   23   25 2   
    46   24   66 1   
    47   24   67 1   
    48   24   68 1   
    49   25   26 1   
    50   26   27 1   
    51   26   69 1   
    52   26   70 1   
    53   27   28 1   
    54   27   29 2   
    55   28   37 1   
    56   28   71 1   
    57   29   30 1   
    58   29   31 1   
    59   30   72 1   
    60   30   73 1   
    61   30   74 1   
    62   31   32 1   
    63   31   37 2   
    64   32   33 1   
    65   32   75 1   
    66   32   76 1   
    67   33   34 1   
    68   33   77 1   
    69   33   78 1   
    70   34   35 1   
    71   34   36 1   
    72   37   38 1   
    73   38   39 1   
    74   38   79 1   
    75   38   80 1   
    76   39   40 1   
    77   39   41 2   
    78   40   81 1   
    79   41   42 1   
    80   41   44 1   
    81   42   43 1   
    82   43   82 1   
    83   43   83 1   
    84   43   84 1   
    85   44   45 1   
    86   44   85 1   
    87   44   86 1   
    88   45   46 1   
    89   45   87 1   
    90   45   88 1   
    91   46   47 1   
    92   46   48 1   
@<TRIPOS>SUBSTRUCTURE
     1 CP3         1 TEMP              0 ****  ****    0 ROOT
