@<TRIPOS>MOLECULE
CP3
   88    77     1     0     0
SMALL
bcc


@<TRIPOS>ATOM
      1 O2R        -4.9690   -4.0720    5.6370 o         1 CP3     -0.603000
      2 C63        -3.7140   -4.1140    5.6830 c2        1 CP3      0.323000
      3 O1R        -3.1220   -4.1950    6.8040 o         1 CP3     -0.603000
      4 C62        -2.9030   -4.1550    4.3840 c3        1 CP3     -0.209000
      5 C61        -2.9870   -2.8060    3.6920 c3        1 CP3     -0.088000
      6 C18        -2.1610   -2.8420    2.3930 c2        1 CP3     -0.109000
      7 C19        -0.9730   -2.1680    2.1840 c1        1 CP3     -0.104000
      8 N24        -0.6660   -2.2560    0.8420 n2        1 CP3     -0.167000
      9 C20        -0.1850   -1.3370    3.2570 c2        1 CP3     -0.032500
     10 C1          0.9780   -0.5400    2.5620 c2        1 CP3     -0.110500
     11 C17        -2.6120   -3.3040    1.1800 c1        1 CP3     -0.135000
     12 C86        -3.8670   -4.1110    0.9490 c2        1 CP3     -0.151000
     13 C16        -1.6930   -2.9310    0.2130 c1        1 CP3     -0.111000
     14 C15        -1.7360   -3.3370   -1.2960 c2        1 CP3     -0.027000
     15 C14        -1.5800   -2.0440   -2.1980 c2        1 CP3     -0.110500
     16 N23        -1.5080   -0.7550   -1.7480 n2        1 CP3     -0.164500
     17 C13        -1.5100   -2.0170   -3.6180 c1        1 CP3     -0.118500
     18 C51        -1.8340   -3.2050   -4.5490 c2        1 CP3     -0.088333
     19 C52        -0.5380   -3.7650   -5.1290 c3        1 CP3     -0.211000
     20 C53        -0.8650   -4.8670   -6.1330 c2        1 CP3      0.322667
     21 O2M        -0.9430   -4.5960   -7.3640 o         1 CP3     -0.602833
     22 O1M        -1.0300   -6.0510   -5.7360 o         1 CP3     -0.602833
     23 C12        -1.3980   -0.7130   -4.0130 c1        1 CP3     -0.121500
     24 C81        -1.3940   -0.2190   -5.4380 c2        1 CP3     -0.151000
     25 C11        -1.4290    0.0900   -2.8630 c1        1 CP3     -0.110000
     26 C10        -1.5350    1.6760   -2.8400 c2        1 CP3     -0.027000
     27 C6         -0.3400    2.2830   -1.9690 c2        1 CP3     -0.110500
     28 N22        -0.0640    1.9770   -0.6560 n2        1 CP3     -0.164500
     29 C7          0.4930    3.3670   -2.3450 c1        1 CP3     -0.118500
     30 C7A         0.3990    4.1340   -3.6460 c2        1 CP3     -0.151000
     31 C8          1.1970    3.7650   -1.2440 c1        1 CP3     -0.121500
     32 C41         2.1650    4.9730   -1.1680 c2        1 CP3     -0.088333
     33 C42         1.3760    6.2430   -1.1160 c3        1 CP3     -0.211000
     34 C43         2.3330    7.4380   -1.0940 c2        1 CP3      0.322667
     35 O28         2.9680    7.7600   -2.1420 o         1 CP3     -0.602833
     36 O18         2.4570    8.1310   -0.0410 o         1 CP3     -0.602833
     37 C9          0.8880    2.8860   -0.1920 c1        1 CP3     -0.110000
     38 C5          1.4360    2.9810    1.2880 c2        1 CP3     -0.032500
     39 C4          1.5640    1.5590    1.8860 c2        1 CP3     -0.110500
     40 N21         0.4800    0.5450    1.9670 n2        1 CP3     -0.169000
     41 C3          2.6970    1.0360    2.5400 c1        1 CP3     -0.120500
     42 C2          2.3990   -0.2570    2.9440 c1        1 CP3     -0.120500
     43 C2A         3.3750   -1.2510    3.5560 c2        1 CP3     -0.151000
     44 C31         4.0130    1.7720    2.7840 c2        1 CP3     -0.088333
     45 C32         4.1290    2.1280    4.2520 c3        1 CP3     -0.211000
     46 C33         5.3990    2.9630    4.4770 c2        1 CP3      0.322667
     47 O13         5.3060    4.2050    4.6980 o         1 CP3     -0.602833
     48 O23         6.5270    2.3960    4.5240 o         1 CP3     -0.602833
     49 H621       -1.9650   -4.3590    4.5900 hc        1 CP3      0.065000
     50 H622       -3.2610   -4.8400    3.8000 hc        1 CP3      0.065000
     51 H611       -3.9150   -2.6090    3.4810 hc        1 CP3      0.086000
     52 H612       -2.6330   -2.1120    4.2850 hc        1 CP3      0.086000
     53 HN4         0.1100   -1.9900    0.4560 DU        1 CP3      0.249750
     54 H201        0.1920   -1.9460    3.9290 ha        1 CP3      0.106000
     55 H202       -0.7940   -0.7090    3.6930 ha        1 CP3      0.106000
     56 H861       -4.3030   -3.8070    0.1250 ha        1 CP3      0.077000
     57 H862       -4.4740   -3.9900    1.7020 ha        1 CP3      0.077000
     58 H863       -3.6340   -5.0600    0.8650 ha        1 CP3      0.077000
     59 H151       -1.0020   -3.9600   -1.4880 ha        1 CP3      0.098750
     60 H152       -2.5950   -3.7730   -1.4940 ha        1 CP3      0.098750
     61 HN3        -1.5230   -0.4910   -0.8770 DU        1 CP3      0.249750
     62 H511       -2.2890   -3.9000   -4.0420 ha        1 CP3      0.085000
     63 H512       -2.4120   -2.9000   -5.2780 ha        1 CP3      0.085000
     64 H521        0.0050   -4.1310   -4.4120 hc        1 CP3      0.067333
     65 H522       -0.0440   -3.0480   -5.5800 hc        1 CP3      0.067333
     66 H811       -0.5300    0.1880   -5.6370 ha        1 CP3      0.077000
     67 H812       -2.1010    0.4440   -5.5540 ha        1 CP3      0.077000
     68 H813       -1.5490   -0.9760   -6.0490 ha        1 CP3      0.077000
     69 H101       -1.4790    2.0180   -3.7500 ha        1 CP3      0.098750
     70 H102       -2.3980    1.9410   -2.4420 ha        1 CP3      0.098750
     71 HN2        -0.4780    1.3330   -0.1580 DU        1 CP3      0.249750
     72 H7A1       -0.3700    4.7420   -3.6120 ha        1 CP3      0.077000
     73 H7A2        0.2870    3.5070   -4.3860 ha        1 CP3      0.077000
     74 H7A3        1.2240    4.6550   -3.7790 ha        1 CP3      0.077000
     75 H411        2.7150    4.8980   -0.3650 ha        1 CP3      0.085000
     76 H412        2.7390    4.9800   -1.9550 ha        1 CP3      0.085000
     77 H421        0.8040    6.3010   -1.8970 hc        1 CP3      0.067333
     78 H422        0.8280    6.2520   -0.3130 hc        1 CP3      0.067333
     79 H51         0.8160    3.5100    1.8330 ha        1 CP3      0.106000
     80 H52         2.3200    3.4150    1.2830 ha        1 CP3      0.106000
     81 HN1        -0.3890    0.6710    1.7270 DU        1 CP3      0.249750
     82 H2A1        3.8290   -0.8350    4.3260 ha        1 CP3      0.077000
     83 H2A2        4.0450   -1.5110    2.8810 ha        1 CP3      0.077000
     84 H2A3        2.8870   -2.0470    3.8560 ha        1 CP3      0.077000
     85 H311        4.0320    2.5880    2.2480 ha        1 CP3      0.085000
     86 H312        4.7590    1.1970    2.5280 ha        1 CP3      0.085000
     87 H321        4.1800    1.3080    4.7830 hc        1 CP3      0.067333
     88 H322        3.3440    2.6460    4.5250 hc        1 CP3      0.067333
@<TRIPOS>BOND
     1    1    2 1   
     2    2    3 1   
     3    2    4 1   
     4    4    5 1   
     5    4   49 1   
     6    4   50 1   
     7    5    6 1   
     8    5   51 1   
     9    5   52 1   
    10    6    7 1   
    11    6   11 1   
    12    7    8 1   
    13    8   13 1   
    14    9   10 1   
    15    9   54 1   
    16    9   55 1   
    17   10   40 1   
    18   10   42 1   
    19   11   13 1   
    20   12   56 1   
    21   12   57 1   
    22   12   58 1   
    23   14   15 1   
    24   14   59 1   
    25   14   60 1   
    26   15   16 1   
    27   15   17 1   
    28   16   25 1   
    29   17   23 1   
    30   18   19 1   
    31   18   62 1   
    32   18   63 1   
    33   19   20 1   
    34   19   64 1   
    35   19   65 1   
    36   20   21 1   
    37   20   22 1   
    38   23   25 1   
    39   24   66 1   
    40   24   67 1   
    41   24   68 1   
    42   26   27 1   
    43   26   69 1   
    44   26   70 1   
    45   27   28 1   
    46   27   29 1   
    47   28   37 1   
    48   29   31 1   
    49   30   72 1   
    50   30   73 1   
    51   30   74 1   
    52   31   37 1   
    53   32   33 1   
    54   32   75 1   
    55   32   76 1   
    56   33   34 1   
    57   33   77 1   
    58   33   78 1   
    59   34   35 1   
    60   34   36 1   
    61   38   39 1   
    62   38   79 1   
    63   38   80 1   
    64   39   40 1   
    65   39   41 1   
    66   41   42 1   
    67   43   82 1   
    68   43   83 1   
    69   43   84 1   
    70   44   45 1   
    71   44   85 1   
    72   44   86 1   
    73   45   46 1   
    74   45   87 1   
    75   45   88 1   
    76   46   47 1   
    77   46   48 1   
@<TRIPOS>SUBSTRUCTURE
     1 CP3         1 TEMP              0 ****  ****    0 ROOT
