@<TRIPOS>MOLECULE
CP4
   60    63     1     0     0
SMALL
bcc


@<TRIPOS>ATOM
      1 C0          0.6460   -0.9390   -1.0010 ca        1 CP4     -0.143800
      2 C1          1.9360   -1.3060   -0.4670 ca        1 CP4     -0.018200
      3 C2         -0.1760   -0.5640    0.1180 cc        1 CP4      0.072800
      4 C3          0.4090   -0.9930   -2.3770 ca        1 CP4     -0.039000
      5 N4          1.9530   -1.0950    0.9380 na        1 CP4     -0.160400
      6 C5          2.9630   -1.7390   -1.3140 ca        1 CP4     -0.137000
      7 C6          0.6120   -0.7030    1.2730 cd        1 CP4     -0.290300
      8 C7          1.4450   -1.4210   -3.2040 ca        1 CP4     -0.002600
      9 C8          2.7030   -1.7900   -2.6770 ca        1 CP4     -0.045000
     10 C9          0.1680   -0.3280    2.5870 c         1 CP4      0.592300
     11 Cl10        1.2000   -1.5060   -4.8750 cl        1 CP4     -0.026400
     12 N11         1.2790   -0.0860    3.6100 ny        1 CP4     -0.671800
     13 O12        -0.9740   -0.1450    2.9870 o         1 CP4     -0.433100
     14 C13         0.7610    0.4030    4.9180 c3        1 CP4      0.101800
     15 C14         1.8730    0.6910    5.9280 c3        1 CP4      0.105400
     16 O15         2.6900    1.7130    5.3650 os        1 CP4     -0.456600
     17 C16         3.5610    2.3100    6.3330 c3        1 CP4      0.130400
     18 C17         4.2730    3.4510    5.6100 c3        1 CP4      0.130400
     19 O18         4.4280    4.4940    6.5790 os        1 CP4     -0.456600
     20 C19         4.9870    5.6780    6.0160 c3        1 CP4      0.105400
     21 C20         4.7620    6.8010    7.0280 c3        1 CP4      0.101800
     22 N21         5.4310    6.5480    8.3340 ny        1 CP4     -0.671800
     23 C22         5.1650    7.6520    9.3590 c         1 CP4      0.592300
     24 C23         5.6990    7.4150   10.6720 cc        1 CP4     -0.290300
     25 O24         4.5010    8.6000    8.9620 o         1 CP4     -0.433100
     26 N25         6.6400    6.3800   11.0040 na        1 CP4     -0.160400
     27 C26         5.2320    8.0610   11.8280 cd        1 CP4      0.072800
     28 C27         6.8250    6.4860   12.4080 ca        1 CP4     -0.018200
     29 C28         5.9310    7.4840   12.9450 ca        1 CP4     -0.143800
     30 C29         7.6650    5.7500   13.2530 ca        1 CP4     -0.137000
     31 C30         5.8800    7.7200   14.3220 ca        1 CP4     -0.039000
     32 C31         7.6010    6.0060   14.6160 ca        1 CP4     -0.045000
     33 C32         6.7200    6.9750   15.1460 ca        1 CP4     -0.002600
     34 Cl33        6.6930    7.2300   16.8170 cl        1 CP4     -0.026400
     35 H2         -1.2100   -0.2120    0.0780 ha        1 CP4      0.195000
     36 H3         -0.5710   -0.7030   -2.7890 ha        1 CP4      0.176000
     37 HN4         2.3570   -1.8310    1.4790 hn        1 CP4      0.264700
     38 H5          3.9490   -2.0290   -0.9200 ha        1 CP4      0.162000
     39 H8          3.4960   -2.1300   -3.3670 ha        1 CP4      0.176000
     40 H11         1.7980   -0.9560    3.7530 hn        1 CP4      0.460300
     41 H131        0.0630   -0.3760    5.3420 hx        1 CP4      0.126700
     42 H132        0.1690    1.3440    4.7210 hx        1 CP4      0.126700
     43 H141        2.5020   -0.2160    6.1350 h1        1 CP4      0.075700
     44 H142        1.3930    1.0390    6.8830 h1        1 CP4      0.075700
     45 H161        4.2910    1.5400    6.6940 h1        1 CP4      0.061700
     46 H162        2.9610    2.7000    7.1980 h1        1 CP4      0.061700
     47 H171        5.2840    3.1320    5.2470 h1        1 CP4      0.061700
     48 H172        3.6570    3.8200    4.7470 h1        1 CP4      0.061700
     49 H191        4.4620    5.9580    5.0630 h1        1 CP4      0.075700
     50 H192        6.0780    5.5100    5.8060 h1        1 CP4      0.075700
     51 H201        3.6570    6.9210    7.2290 hx        1 CP4      0.126700
     52 H202        5.1540    7.7710    6.6050 hx        1 CP4      0.126700
     53 H21         6.4410    6.4620    8.1890 hn        1 CP4      0.460300
     54 H25         7.4760    6.3390   10.4600 hn        1 CP4      0.264700
     55 H26         4.4650    8.8380   11.8720 ha        1 CP4      0.195000
     56 H29         8.3560    4.9920   12.8570 ha        1 CP4      0.162000
     57 H30         5.1910    8.4740   14.7360 ha        1 CP4      0.176000
     58 H31         8.2550    5.4400   15.3040 ha        1 CP4      0.176000
     59 H112        1.9290    0.6130    3.2270 hn        1 CP4      0.460300
     60 H212        5.0890    5.6570    8.7170 hn        1 CP4      0.460300
@<TRIPOS>BOND
     1    1    2 ar  
     2    1    3 1   
     3    1    4 ar  
     4    2    5 1   
     5    2    6 ar  
     6    3    7 2   
     7    3   35 1   
     8    4    8 ar  
     9    4   36 1   
    10    5    7 1   
    11    5   37 1   
    12    6    9 ar  
    13    6   38 1   
    14    7   10 1   
    15    8    9 ar  
    16    8   11 1   
    17    9   39 1   
    18   10   12 1   
    19   10   13 2   
    20   12   14 1   
    21   12   40 1   
    22   12   59 1   
    23   14   15 1   
    24   14   41 1   
    25   14   42 1   
    26   15   16 1   
    27   15   43 1   
    28   15   44 1   
    29   16   17 1   
    30   17   18 1   
    31   17   45 1   
    32   17   46 1   
    33   18   19 1   
    34   18   47 1   
    35   18   48 1   
    36   19   20 1   
    37   20   21 1   
    38   20   49 1   
    39   20   50 1   
    40   21   22 1   
    41   21   51 1   
    42   21   52 1   
    43   22   23 1   
    44   22   53 1   
    45   22   60 1   
    46   23   24 1   
    47   23   25 2   
    48   24   26 1   
    49   24   27 2   
    50   26   28 1   
    51   26   54 1   
    52   27   29 1   
    53   27   55 1   
    54   28   29 ar  
    55   28   30 ar  
    56   29   31 ar  
    57   30   32 ar  
    58   30   56 1   
    59   31   33 ar  
    60   31   57 1   
    61   32   33 ar  
    62   32   58 1   
    63   33   34 1   
@<TRIPOS>SUBSTRUCTURE
     1 CP4         1 TEMP              0 ****  ****    0 ROOT
