@<TRIPOS>MOLECULE
CP4
   58    61     1     0     0
SMALL
bcc


@<TRIPOS>ATOM
      1 C0          0.8550    0.8120   -8.4860 ca        1 CP4     -0.108800
      2 C1         -0.0480    1.3910   -7.5160 ca        1 CP4     -0.033200
      3 C2          1.8190    0.0400   -7.7390 cc        1 CP4     -0.091200
      4 C3          0.6710    1.0680   -9.8450 ca        1 CP4     -0.063000
      5 N4          0.3180    0.9400   -6.2450 na        1 CP4     -0.178400
      6 C5         -1.1080    2.2200   -7.9210 ca        1 CP4     -0.141000
      7 C6          1.4850    0.1590   -6.3900 cd        1 CP4     -0.140300
      8 C7         -0.3840    1.8890  -10.2230 ca        1 CP4     -0.013600
      9 C8         -1.2620    2.4600   -9.2760 ca        1 CP4     -0.095000
     10 C9          2.2220   -0.4690   -5.2680 c         1 CP4      0.690300
     11 CL10       -0.6360    2.2250  -11.8730 cl        1 CP4     -0.097400
     12 N11         1.5190   -0.7840   -4.1230 n         1 CP4     -0.567900
     13 O12         3.4370   -0.7330   -5.3800 o         1 CP4     -0.596100
     14 C13         2.1490   -1.3350   -2.9590 c3        1 CP4      0.091000
     15 C14         2.1850   -0.3870   -1.7510 c3        1 CP4      0.102400
     16 O15         0.8320   -0.1470   -1.3700 os        1 CP4     -0.436600
     17 C16         0.7350    0.6690   -0.2040 c3        1 CP4      0.127400
     18 C17        -0.7350    0.6710    0.2040 c3        1 CP4      0.127400
     19 O18        -0.8340   -0.1430    1.3700 os        1 CP4     -0.436600
     20 C19        -2.1870   -0.3800    1.7520 c3        1 CP4      0.102400
     21 C20        -2.1550   -1.3270    2.9600 c3        1 CP4      0.091000
     22 N21        -1.5230   -0.7770    4.1240 n         1 CP4     -0.567900
     23 C22        -2.2250   -0.4590    5.2690 c         1 CP4      0.690300
     24 C23        -1.4860    0.1670    6.3900 cc        1 CP4     -0.140300
     25 O24        -3.4400   -0.7200    5.3810 o         1 CP4     -0.596100
     26 N25        -0.3170    0.9440    6.2450 na        1 CP4     -0.178400
     27 C26        -1.8210    0.0500    7.7390 cd        1 CP4     -0.091200
     28 C27         0.0510    1.3950    7.5150 ca        1 CP4     -0.033200
     29 C28        -0.8540    0.8200    8.4860 ca        1 CP4     -0.108800
     30 C29         1.1130    2.2220    7.9210 ca        1 CP4     -0.141000
     31 C30        -0.6690    1.0750    9.8450 ca        1 CP4     -0.063000
     32 C31         1.2680    2.4620    9.2750 ca        1 CP4     -0.095000
     33 C32         0.3880    1.8940   10.2220 ca        1 CP4     -0.013600
     34 CL33        0.6410    2.2300   11.8720 cl        1 CP4     -0.097400
     35 H2          2.6530   -0.5290   -8.1450 ha        1 CP4      0.177000
     36 H3          1.3490    0.6250  -10.5900 ha        1 CP4      0.154000
     37 HN4         0.0430    1.3760   -5.4040 hn        1 CP4      0.295700
     38 H5         -1.7950    2.6630   -7.1880 ha        1 CP4      0.140000
     39 H8         -2.0830    3.1070   -9.6240 ha        1 CP4      0.148000
     40 H11         0.5570   -0.5600   -4.0400 hn        1 CP4      0.319500
     41 H131        1.5850   -2.2650   -2.6590 h1        1 CP4      0.074700
     42 H132        3.2130   -1.6160   -3.2060 h1        1 CP4      0.074700
     43 H141        2.7360   -0.8870   -0.9110 h1        1 CP4      0.040200
     44 H142        2.6850    0.5850   -1.9980 h1        1 CP4      0.040200
     45 H161        1.3750    0.2510    0.6180 h1        1 CP4      0.043700
     46 H162        1.0740    1.7090   -0.4540 h1        1 CP4      0.043700
     47 H171       -1.0710    1.7120    0.4540 h1        1 CP4      0.043700
     48 H172       -1.3760    0.2550   -0.6180 h1        1 CP4      0.043700
     49 H191       -2.6850    0.5940    1.9980 h1        1 CP4      0.040200
     50 H192       -2.7400   -0.8790    0.9120 h1        1 CP4      0.040200
     51 H201       -3.2200   -1.6050    3.2070 h1        1 CP4      0.074700
     52 H202       -1.5930   -2.2580    2.6600 h1        1 CP4      0.074700
     53 H21        -0.5610   -0.5550    4.0410 hn        1 CP4      0.319500
     54 H25        -0.0410    1.3800    5.4040 hn        1 CP4      0.295700
     55 H26        -2.6560   -0.5160    8.1460 ha        1 CP4      0.177000
     56 H29         1.8010    2.6620    7.1870 ha        1 CP4      0.140000
     57 H30        -1.3490    0.6360   10.5900 ha        1 CP4      0.154000
     58 H31         2.0910    3.1060    9.6220 ha        1 CP4      0.148000
@<TRIPOS>BOND
     1    1    2 ar  
     2    1    3 1   
     3    1    4 ar  
     4    2    5 1   
     5    2    6 ar  
     6    3    7 2   
     7    3   35 1   
     8    4    8 ar  
     9    4   36 1   
    10    5    7 1   
    11    5   37 1   
    12    6    9 ar  
    13    6   38 1   
    14    7   10 1   
    15    8    9 ar  
    16    8   11 1   
    17    9   39 1   
    18   10   12 1   
    19   10   13 2   
    20   12   14 1   
    21   12   40 1   
    22   14   15 1   
    23   14   41 1   
    24   14   42 1   
    25   15   16 1   
    26   15   43 1   
    27   15   44 1   
    28   16   17 1   
    29   17   18 1   
    30   17   45 1   
    31   17   46 1   
    32   18   19 1   
    33   18   47 1   
    34   18   48 1   
    35   19   20 1   
    36   20   21 1   
    37   20   49 1   
    38   20   50 1   
    39   21   22 1   
    40   21   51 1   
    41   21   52 1   
    42   22   23 1   
    43   22   53 1   
    44   23   24 1   
    45   23   25 2   
    46   24   26 1   
    47   24   27 2   
    48   26   28 1   
    49   26   54 1   
    50   27   29 1   
    51   27   55 1   
    52   28   29 ar  
    53   28   30 ar  
    54   29   31 ar  
    55   30   32 ar  
    56   30   56 1   
    57   31   33 ar  
    58   31   57 1   
    59   32   33 ar  
    60   32   58 1   
    61   33   34 1   
@<TRIPOS>SUBSTRUCTURE
     1 CP4         1 TEMP              0 ****  ****    0 ROOT
