@<TRIPOS>MOLECULE
CP4
   60    63     1     0     0
SMALL
bcc


@<TRIPOS>ATOM
      1 C0          0.6190   -0.9380   -0.9820 ca        1 CP4     -0.143800
      2 C1          1.9090   -1.3130   -0.4550 ca        1 CP4     -0.018200
      3 C2         -0.1950   -0.5590    0.1420 cc        1 CP4      0.072800
      4 C3          0.3740   -0.9910   -2.3570 ca        1 CP4     -0.039000
      5 N4          1.9360   -1.1030    0.9490 na        1 CP4     -0.160400
      6 C5          2.9300   -1.7520   -1.3080 ca        1 CP4     -0.137000
      7 C6          0.5980   -0.7030    1.2920 cd        1 CP4     -0.290300
      8 C7          1.4020   -1.4250   -3.1900 ca        1 CP4     -0.002600
      9 C8          2.6610   -1.8020   -2.6700 ca        1 CP4     -0.045000
     10 C9          0.1640   -0.3250    2.6080 c         1 CP4      0.592300
     11 CL10        1.1480   -1.5080   -4.8590 cl        1 CP4     -0.026400
     12 N11         1.2810   -0.0900    3.6250 n4        1 CP4     -0.671800
     13 O12        -0.9750   -0.1360    3.0140 o         1 CP4     -0.433100
     14 C13         0.7740    0.4030    4.9360 c3        1 CP4      0.101800
     15 C14         1.8920    0.6850    5.9390 c3        1 CP4      0.105400
     16 O15         2.7120    1.7030    5.3720 os        1 CP4     -0.456600
     17 C16         3.5930    2.2930    6.3350 c3        1 CP4      0.130400
     18 C17         4.3080    3.4300    5.6070 c3        1 CP4      0.130400
     19 O18         4.4600    4.4790    6.5700 os        1 CP4     -0.456600
     20 C19         5.0250    5.6580    6.0030 c3        1 CP4      0.105400
     21 C20         4.7950    6.7880    7.0060 c3        1 CP4      0.101800
     22 N21         5.4550    6.5440    8.3180 n4        1 CP4     -0.671800
     23 C22         5.1840    7.6540    9.3340 c         1 CP4      0.592300
     24 C23         5.7090    7.4260   10.6520 cc        1 CP4     -0.290300
     25 O24         4.5240    8.6010    8.9260 o         1 CP4     -0.433100
     26 N25         6.6450    6.3910   10.9970 na        1 CP4     -0.160400
     27 C26         5.2360    8.0810   11.8000 cd        1 CP4      0.072800
     28 C27         6.8210    6.5060   12.4010 ca        1 CP4     -0.018200
     29 C28         5.9270    7.5110   12.9260 ca        1 CP4     -0.143800
     30 C29         7.6550    5.7750   13.2570 ca        1 CP4     -0.137000
     31 C30         5.8660    7.7560   14.3000 ca        1 CP4     -0.039000
     32 C31         7.5820    6.0400   14.6180 ca        1 CP4     -0.045000
     33 C32         6.6990    7.0150   15.1350 ca        1 CP4     -0.002600
     34 CL33        6.6620    7.2820   16.8040 cl        1 CP4     -0.026400
     35 H2         -1.2270   -0.2020    0.1060 ha        1 CP4      0.195000
     36 H3         -0.6070   -0.6960   -2.7640 ha        1 CP4      0.176000
     37 HN4         2.3380   -1.8400    1.4880 hn        1 CP4      0.264700
     38 H5          3.9150   -2.0470   -0.9200 ha        1 CP4      0.162000
     39 H8          3.4490   -2.1460   -3.3640 ha        1 CP4      0.176000
     40 H11         1.9340    0.6050    3.2380 hn        1 CP4      0.460300
     41 H131        0.0740   -0.3720    5.3640 hx        1 CP4      0.126700
     42 H132        0.1860    1.3470    4.7410 hx        1 CP4      0.126700
     43 H141        1.4200    1.0360    6.8970 h1        1 CP4      0.075700
     44 H142        2.5180   -0.2250    6.1430 h1        1 CP4      0.075700
     45 H161        4.3210    1.5180    6.6900 h1        1 CP4      0.061700
     46 H162        3.0010    2.6870    7.2030 h1        1 CP4      0.061700
     47 H171        5.3210    3.1090    5.2500 h1        1 CP4      0.061700
     48 H172        3.6960    3.7930    4.7390 h1        1 CP4      0.061700
     49 H191        6.1160    5.4860    5.8010 h1        1 CP4      0.075700
     50 H192        4.5060    5.9330    5.0450 h1        1 CP4      0.075700
     51 H201        3.6890    6.9120    7.1980 hx        1 CP4      0.126700
     52 H202        5.1920    7.7550    6.5790 hx        1 CP4      0.126700
     53 H21         5.1090    5.6550    8.7050 hn        1 CP4      0.460300
     54 H25         7.4850    6.3440   10.4590 hn        1 CP4      0.264700
     55 H26         4.4690    8.8590   11.8330 ha        1 CP4      0.195000
     56 H29         8.3460    5.0120   12.8700 ha        1 CP4      0.162000
     57 H30         5.1770    8.5140   14.7050 ha        1 CP4      0.176000
     58 H31         8.2300    5.4780   15.3140 ha        1 CP4      0.176000
     59 H112        1.7970   -0.9630    3.7650 hn        1 CP4      0.460300
     60 H212        6.4660    6.4550    8.1800 hn        1 CP4      0.460300
@<TRIPOS>BOND
     1    1    2 ar  
     2    1    3 1   
     3    1    4 ar  
     4    2    5 1   
     5    2    6 ar  
     6    3    7 2   
     7    3   35 1   
     8    4    8 ar  
     9    4   36 1   
    10    5    7 1   
    11    5   37 1   
    12    6    9 ar  
    13    6   38 1   
    14    7   10 1   
    15    8    9 ar  
    16    8   11 1   
    17    9   39 1   
    18   10   12 1   
    19   10   13 2   
    20   12   14 1   
    21   12   40 1   
    22   12   59 1   
    23   14   15 1   
    24   14   41 1   
    25   14   42 1   
    26   15   16 1   
    27   15   43 1   
    28   15   44 1   
    29   16   17 1   
    30   17   18 1   
    31   17   45 1   
    32   17   46 1   
    33   18   19 1   
    34   18   47 1   
    35   18   48 1   
    36   19   20 1   
    37   20   21 1   
    38   20   49 1   
    39   20   50 1   
    40   21   22 1   
    41   21   51 1   
    42   21   52 1   
    43   22   23 1   
    44   22   53 1   
    45   22   60 1   
    46   23   24 1   
    47   23   25 2   
    48   24   26 1   
    49   24   27 2   
    50   26   28 1   
    51   26   54 1   
    52   27   29 1   
    53   27   55 1   
    54   28   29 ar  
    55   28   30 ar  
    56   29   31 ar  
    57   30   32 ar  
    58   30   56 1   
    59   31   33 ar  
    60   31   57 1   
    61   32   33 ar  
    62   32   58 1   
    63   33   34 1   
@<TRIPOS>SUBSTRUCTURE
     1 CP4         1 TEMP              0 ****  ****    0 ROOT
