@<TRIPOS>MOLECULE
CP4
   60    63     1     0     0
SMALL
bcc


@<TRIPOS>ATOM
      1 C0          0.6500   -0.9490   -0.9970 ca        1 CP4     -0.143800
      2 C1          1.9360   -1.3200   -0.4570 ca        1 CP4     -0.018200
      3 C2         -0.1750   -0.5660    0.1170 cc        1 CP4      0.072800
      4 C3          0.4170   -1.0080   -2.3740 ca        1 CP4     -0.039000
      5 N4          1.9480   -1.1040    0.9470 na        1 CP4     -0.160400
      6 C5          2.9650   -1.7600   -1.2980 ca        1 CP4     -0.137000
      7 C6          0.6070   -0.7040    1.2750 cd        1 CP4     -0.290300
      8 C7          1.4540   -1.4440   -3.1950 ca        1 CP4     -0.002600
      9 C8          2.7090   -1.8160   -2.6620 ca        1 CP4     -0.045000
     10 C9          0.1600   -0.3220    2.5870 c         1 CP4      0.592300
     11 CL10        1.2160   -1.5340   -4.8670 cl        1 CP4     -0.026400
     12 N11         1.2680   -0.0810    3.6130 n4        1 CP4     -0.671800
     13 O12        -0.9830   -0.1340    2.9810 o         1 CP4     -0.433100
     14 C13         0.7470    0.4150    4.9170 c3        1 CP4      0.101800
     15 C14         1.8560    0.7030    5.9300 c3        1 CP4      0.105400
     16 O15         2.6800    1.7190    5.3660 os        1 CP4     -0.456600
     17 C16         3.5500    2.3150    6.3350 c3        1 CP4      0.130400
     18 C17         4.2680    3.4510    5.6100 c3        1 CP4      0.130400
     19 O18         4.4280    4.4960    6.5770 os        1 CP4     -0.456600
     20 C19         4.9920    5.6760    6.0130 c3        1 CP4      0.105400
     21 C20         4.7700    6.8020    7.0220 c3        1 CP4      0.101800
     22 N21         5.4380    6.5500    8.3290 n4        1 CP4     -0.671800
     23 C22         5.1750    7.6550    9.3520 c         1 CP4      0.592300
     24 C23         5.7080    7.4190   10.6660 cc        1 CP4     -0.290300
     25 O24         4.5130    8.6050    8.9540 o         1 CP4     -0.433100
     26 N25         6.6450    6.3820   11.0000 na        1 CP4     -0.160400
     27 C26         5.2420    8.0680   11.8210 cd        1 CP4      0.072800
     28 C27         6.8300    6.4900   12.4040 ca        1 CP4     -0.018200
     29 C28         5.9390    7.4910   12.9390 ca        1 CP4     -0.143800
     30 C29         7.6680    5.7530   13.2500 ca        1 CP4     -0.137000
     31 C30         5.8870    7.7290   14.3150 ca        1 CP4     -0.039000
     32 C31         7.6030    6.0110   14.6130 ca        1 CP4     -0.045000
     33 C32         6.7250    6.9830   15.1410 ca        1 CP4     -0.002600
     34 CL33        6.6980    7.2410   16.8120 cl        1 CP4     -0.026400
     35 H2         -1.2080   -0.2110    0.0710 ha        1 CP4      0.195000
     36 H3         -0.5600   -0.7160   -2.7910 ha        1 CP4      0.176000
     37 HN4         2.3470   -1.8390    1.4930 hn        1 CP4      0.264700
     38 H5          3.9470   -2.0530   -0.8990 ha        1 CP4      0.162000
     39 H8          3.5030   -2.1620   -3.3480 ha        1 CP4      0.176000
     40 H11         1.7830   -0.9530    3.7610 hn        1 CP4      0.460300
     41 H131        0.0440   -0.3590    5.3410 hx        1 CP4      0.126700
     42 H132        0.1600    1.3570    4.7140 hx        1 CP4      0.126700
     43 H141        2.4810   -0.2060    6.1430 h1        1 CP4      0.075700
     44 H142        1.3740    1.0560    6.8810 h1        1 CP4      0.075700
     45 H161        4.2770    1.5440    6.7000 h1        1 CP4      0.061700
     46 H162        2.9490    2.7100    7.1970 h1        1 CP4      0.061700
     47 H171        5.2790    3.1280    5.2490 h1        1 CP4      0.061700
     48 H172        3.6550    3.8220    4.7450 h1        1 CP4      0.061700
     49 H191        4.4680    5.9570    5.0590 h1        1 CP4      0.075700
     50 H192        6.0820    5.5030    5.8040 h1        1 CP4      0.075700
     51 H201        3.6660    6.9270    7.2220 hx        1 CP4      0.126700
     52 H202        5.1670    7.7700    6.5980 hx        1 CP4      0.126700
     53 H21         6.4470    6.4600    8.1850 hn        1 CP4      0.460300
     54 H25         7.4820    6.3380   10.4570 hn        1 CP4      0.264700
     55 H26         4.4760    8.8470   11.8630 ha        1 CP4      0.195000
     56 H29         8.3560    4.9920   12.8550 ha        1 CP4      0.162000
     57 H30         5.2010    8.4860   14.7290 ha        1 CP4      0.176000
     58 H31         8.2550    5.4440   15.3020 ha        1 CP4      0.176000
     59 H112        1.9230    0.6130    3.2290 hn        1 CP4      0.460300
     60 H212        5.0920    5.6600    8.7140 hn        1 CP4      0.460300
@<TRIPOS>BOND
     1    1    2 ar  
     2    1    3 1   
     3    1    4 ar  
     4    2    5 1   
     5    2    6 ar  
     6    3    7 2   
     7    3   35 1   
     8    4    8 ar  
     9    4   36 1   
    10    5    7 1   
    11    5   37 1   
    12    6    9 ar  
    13    6   38 1   
    14    7   10 1   
    15    8    9 ar  
    16    8   11 1   
    17    9   39 1   
    18   10   12 1   
    19   10   13 2   
    20   12   14 1   
    21   12   40 1   
    22   12   59 1   
    23   14   15 1   
    24   14   41 1   
    25   14   42 1   
    26   15   16 1   
    27   15   43 1   
    28   15   44 1   
    29   16   17 1   
    30   17   18 1   
    31   17   45 1   
    32   17   46 1   
    33   18   19 1   
    34   18   47 1   
    35   18   48 1   
    36   19   20 1   
    37   20   21 1   
    38   20   49 1   
    39   20   50 1   
    40   21   22 1   
    41   21   51 1   
    42   21   52 1   
    43   22   23 1   
    44   22   53 1   
    45   22   60 1   
    46   23   24 1   
    47   23   25 2   
    48   24   26 1   
    49   24   27 2   
    50   26   28 1   
    51   26   54 1   
    52   27   29 1   
    53   27   55 1   
    54   28   29 ar  
    55   28   30 ar  
    56   29   31 ar  
    57   30   32 ar  
    58   30   56 1   
    59   31   33 ar  
    60   31   57 1   
    61   32   33 ar  
    62   32   58 1   
    63   33   34 1   
@<TRIPOS>SUBSTRUCTURE
     1 CP4         1 TEMP              0 ****  ****    0 ROOT
