@<TRIPOS>MOLECULE
CP4
   58    48     1     0     0
SMALL
bcc


@<TRIPOS>ATOM
      1 C0         -6.5180   -5.4960    2.2290 c1        1 CP4     -0.043500
      2 C1         -5.2490   -5.9080    2.4690 c1        1 CP4     -0.043500
      3 C2         -6.5350   -4.8610    1.0190 c1        1 CP4     -0.103000
      4 C3         -7.5320   -5.7570    3.1680 c1        1 CP4     -0.102000
      5 N4         -4.4680   -5.5270    1.3970 n1        1 CP4     -0.200000
      6 C5         -4.9510   -6.5970    3.6590 c1        1 CP4     -0.102000
      7 C6         -5.2590   -4.8850    0.5100 c1        1 CP4     -0.098000
      8 C7         -7.2380   -6.4300    4.3290 c1        1 CP4     -0.091000
      9 C8         -5.9480   -6.8510    4.5780 c1        1 CP4     -0.095500
     10 C9         -4.6900   -4.3020   -0.7800 c1        1 CP4      0.366000
     11 CL10       -8.4810   -6.9110    5.4590 cl        1 CP4     -0.018000
     12 N11        -3.2580   -4.4730   -1.0950 n3        1 CP4     -0.385000
     13 O12        -5.4300   -3.7510   -1.5790 o         1 CP4     -0.346000
     14 C13        -2.5150   -3.3860   -1.6840 c3        1 CP4     -0.032000
     15 C14        -1.2170   -3.1880   -0.9200 c3        1 CP4     -0.038000
     16 O15        -0.4130   -2.1920   -1.5860 os        1 CP4     -0.282000
     17 C16         0.9400   -2.0020   -0.9770 c3        1 CP4     -0.022000
     18 C17         1.5500   -0.7550   -1.5020 c3        1 CP4     -0.023000
     19 O18         2.2650   -0.0910   -0.4480 os        1 CP4     -0.281000
     20 C19         2.7050    1.1900   -0.7860 c3        1 CP4     -0.050000
     21 C20         3.5660    1.7470    0.3470 c3        1 CP4     -0.041000
     22 N21         4.5710    2.7480   -0.2150 n         1 CP4     -0.365000
     23 C22         4.9280    3.9240    0.5520 c2        1 CP4      0.354000
     24 C23         4.9640    5.2890   -0.1220 c2        1 CP4     -0.100000
     25 O24         5.1550    3.8260    1.7770 o         1 CP4     -0.339000
     26 N25         5.9670    5.9120   -0.8630 n2        1 CP4     -0.197000
     27 C26         3.8270    6.0820   -0.1820 c1        1 CP4     -0.104000
     28 C27         5.4480    7.0880   -1.3800 c1        1 CP4      0.011000
     29 C28         4.1220    7.1950   -0.9600 c1        1 CP4     -0.097000
     30 C29         6.0270    8.1120   -2.1310 c1        1 CP4     -0.139000
     31 C30         3.3790    8.3170   -1.2850 c1        1 CP4     -0.064000
     32 C31         5.2840    9.2370   -2.4590 c1        1 CP4     -0.095500
     33 C32         3.9550    9.3440   -2.0360 c1        1 CP4     -0.091000
     34 CL33        3.1260   10.8390   -2.3480 cl        1 CP4     -0.018000
     35 H2         -7.3200   -4.4600    0.5890 DU        1 CP4      0.211000
     36 H3         -8.4130   -5.4700    3.0010 ha        1 CP4      0.147500
     37 HN4        -3.5810   -5.6800    1.3050 DU        1 CP4      0.211000
     38 H5         -4.0780   -6.8830    3.8260 ha        1 CP4      0.147500
     39 H8         -5.7450   -7.3200    5.3860 ha        1 CP4      0.148500
     40 H11        -2.8580   -5.2940   -0.9800 hn        1 CP4      0.227000
     41 H131       -2.3170   -3.5940   -2.6120 h1        1 CP4      0.114500
     42 H132       -3.0270   -2.5960   -1.6430 h1        1 CP4      0.114500
     43 H141       -0.7180   -4.0480   -0.8860 h1        1 CP4      0.071500
     44 H142       -1.4220   -2.8840    0.0100 h1        1 CP4      0.071500
     45 H161        1.5070   -2.7610   -1.2030 h1        1 CP4      0.085000
     46 H162        0.8540   -1.9390   -0.0060 h1        1 CP4      0.085000
     47 H171        2.1760   -0.9770   -2.2390 h1        1 CP4      0.086000
     48 H172        0.8470   -0.1630   -1.8380 h1        1 CP4      0.086000
     49 H191        3.2230    1.1470   -1.5910 h1        1 CP4      0.074000
     50 H192        1.9560    1.7580   -0.9220 h1        1 CP4      0.074000
     51 H201        2.9920    2.1950    1.0010 h1        1 CP4      0.117500
     52 H202        4.0440    1.0140    0.7830 h1        1 CP4      0.117500
     53 H21         4.9550    2.5990   -1.0000 hn        1 CP4      0.218000
     54 H25         6.7500    5.5510   -1.0790 DU        1 CP4      0.211000
     55 H26         2.9940    5.9430    0.3400 DU        1 CP4      0.211000
     56 H29         7.0090    8.0330   -2.4400 ha        1 CP4      0.141000
     57 H30         2.4060    8.3910   -0.9760 ha        1 CP4      0.154000
     58 H31         5.6880    9.9530   -2.9800 ha        1 CP4      0.148500
@<TRIPOS>BOND
     1    1    4 1   
     2    2    6 1   
     3    3    7 1   
     4    4   36 1   
     5    5    7 1   
     6    6   38 1   
     7    8    9 1   
     8    8   11 1   
     9    9   39 1   
    10   10   12 1   
    11   10   13 1   
    12   12   14 1   
    13   12   40 1   
    14   14   15 1   
    15   14   41 1   
    16   14   42 1   
    17   15   16 1   
    18   15   43 1   
    19   15   44 1   
    20   16   17 1   
    21   17   18 1   
    22   17   45 1   
    23   17   46 1   
    24   18   19 1   
    25   18   47 1   
    26   18   48 1   
    27   19   20 1   
    28   20   21 1   
    29   20   49 1   
    30   20   50 1   
    31   21   22 1   
    32   21   51 1   
    33   21   52 1   
    34   22   23 1   
    35   22   53 1   
    36   23   24 1   
    37   23   25 1   
    38   24   26 1   
    39   24   27 1   
    40   26   28 1   
    41   27   29 1   
    42   28   30 1   
    43   29   31 1   
    44   30   56 1   
    45   31   57 1   
    46   32   33 1   
    47   32   58 1   
    48   33   34 1   
@<TRIPOS>SUBSTRUCTURE
     1 CP4         1 TEMP              0 ****  ****    0 ROOT
