@<TRIPOS>MOLECULE
CP5
   21    21     1     0     0
SMALL
bcc


@<TRIPOS>ATOM
      1 C1         -0.0920   -0.2230    0.0860 ca        1 CP5     -0.148000
      2 C2          1.2290   -0.6690    0.1440 ca        1 CP5     -0.149500
      3 C3          1.9910   -0.4680    1.2910 ca        1 CP5     -0.116000
      4 C4          1.4380    0.1960    2.3990 ca        1 CP5     -0.024800
      5 C5          0.1060    0.6330    2.3370 ca        1 CP5     -0.116000
      6 C6         -0.6520    0.4230    1.1870 ca        1 CP5     -0.149500
      7 C7          2.2460    0.4170    3.5960 ce        1 CP5     -0.105400
      8 C8          2.1360    1.5870    4.2580 c2        1 CP5     -0.011900
      9 C9          3.1610   -0.7250    4.0460 c         1 CP5      0.923800
     10 O1          2.9270    1.9210    5.3410 os        1 CP5     -0.465500
     11 P1          2.3270    1.7970    6.8100 p4        1 CP5      1.651200
     12 O2          0.8820    1.8410    6.8910 o         1 CP5     -0.688000
     13 O3          3.3240    1.9600    7.8450 o         1 CP5     -0.736800
     14 O4          2.9300   -1.2340    5.1780 o         1 CP5     -0.822800
     15 O5          4.0790   -1.0910    3.2660 o         1 CP5     -0.822800
     16 H1         -0.6910   -0.3870   -0.8200 ha        1 CP5      0.110000
     17 H2          1.6700   -1.1880   -0.7190 ha        1 CP5      0.115000
     18 H3          3.0330   -0.8350    1.3630 ha        1 CP5      0.162000
     19 H5         -0.3440    1.1310    3.2090 ha        1 CP5      0.162000
     20 H6         -1.6960    0.7660    1.1510 ha        1 CP5      0.115000
     21 H8          1.5060    2.4300    3.9290 h4        1 CP5      0.118000
@<TRIPOS>BOND
     1    1    2 ar  
     2    1    6 ar  
     3    1   16 1   
     4    2    3 ar  
     5    2   17 1   
     6    3    4 ar  
     7    3   18 1   
     8    4    5 ar  
     9    4    7 1   
    10    5    6 ar  
    11    5   19 1   
    12    6   20 1   
    13    7    8 2   
    14    7    9 1   
    15    8   10 1   
    16    8   21 1   
    17    9   14 1   
    18    9   15 1   
    19   10   11 1   
    20   11   12 1   
    21   11   13 2   
@<TRIPOS>SUBSTRUCTURE
     1 CP5         1 TEMP              0 ****  ****    0 ROOT
