@<TRIPOS>MOLECULE
CP5
   21    21     1     0     0
SMALL
bcc


@<TRIPOS>ATOM
      1 C1         -4.2800   -1.4130   -0.0540 ca        1 CP5     -0.148000
      2 C2         -4.0920   -0.2180    0.6400 ca        1 CP5     -0.149500
      3 C3         -2.8200    0.3370    0.7580 ca        1 CP5     -0.116000
      4 C4         -1.7130   -0.3100    0.1850 ca        1 CP5     -0.024800
      5 C5         -1.9110   -1.5080   -0.5190 ca        1 CP5     -0.116000
      6 C6         -3.1880   -2.0530   -0.6370 ca        1 CP5     -0.149500
      7 C7         -0.3780    0.2670    0.3220 ce        1 CP5     -0.105400
      8 C8          0.6740   -0.5480    0.5370 c2        1 CP5     -0.011900
      9 C9         -0.2530    1.7870    0.1840 c         1 CP5      0.923800
     10 O1          1.9550   -0.0860    0.7730 os        1 CP5     -0.465500
     11 P1          3.0230   -0.1150   -0.4070 p4        1 CP5      1.651200
     12 O2          2.7490   -1.0680   -1.4620 o         1 CP5     -0.688000
     13 O3          4.2390    0.5990   -0.0880 o         1 CP5     -0.736800
     14 O4          0.4490    2.2200   -0.7730 o         1 CP5     -0.822800
     15 O5         -0.8570    2.5090    1.0190 o         1 CP5     -0.822800
     16 H1         -5.2860   -1.8450   -0.1460 ha        1 CP5      0.110000
     17 H2         -4.9520    0.2950    1.0940 ha        1 CP5      0.115000
     18 H3         -2.6560    1.2960    1.2850 ha        1 CP5      0.162000
     19 H5         -1.0540   -2.0090   -0.9930 ha        1 CP5      0.162000
     20 H6         -3.3330   -2.9890   -1.1950 ha        1 CP5      0.115000
     21 H8          0.5970   -1.6410    0.6710 h4        1 CP5      0.118000
@<TRIPOS>BOND
     1    1    2 ar  
     2    1    6 ar  
     3    1   16 1   
     4    2    3 ar  
     5    2   17 1   
     6    3    4 ar  
     7    3   18 1   
     8    4    5 ar  
     9    4    7 1   
    10    5    6 ar  
    11    5   19 1   
    12    6   20 1   
    13    7    8 2   
    14    7    9 1   
    15    8   10 1   
    16    8   21 1   
    17    9   14 1   
    18    9   15 1   
    19   10   11 1   
    20   11   12 1   
    21   11   13 2   
@<TRIPOS>SUBSTRUCTURE
     1 CP5         1 TEMP              0 ****  ****    0 ROOT
