@<TRIPOS>MOLECULE
CP6
   32    33     1     0     0
SMALL
bcc


@<TRIPOS>ATOM
      1 N1         -0.0820   -0.0860   -0.0270 nb        1 CP6     -0.669000
      2 C2          1.2630   -0.2420    0.0760 ca        1 CP6      0.739900
      3 C3         -0.7430    0.0010    1.1730 ca        1 CP6      0.482200
      4 C4         -0.0980   -0.0700    2.4290 cp        1 CP6     -0.109600
      5 C5          1.3420   -0.2340    2.3980 ca        1 CP6      0.537600
      6 N6          2.0100   -0.3180    1.2340 nb        1 CP6     -0.636000
      7 C7         -0.8440    0.0110    3.6710 cp        1 CP6     -0.193000
      8 C8         -1.8130   -0.9660    3.9750 ca        1 CP6     -0.098000
      9 C9         -2.5120   -0.9130    5.1730 ca        1 CP6     -0.113000
     10 C10        -2.2650    0.1270    6.0870 ca        1 CP6      0.070400
     11 C11        -1.3000    1.1020    5.7890 ca        1 CP6     -0.113000
     12 C12        -0.5880    1.0360    4.5960 ca        1 CP6     -0.098000
     13 N13        -2.2060    0.1900    1.1040 n4        1 CP6     -0.822300
     14 N14         2.0340   -0.3460   -1.1980 n4        1 CP6     -0.815300
     15 C15         2.0910   -0.3080    3.6980 c3        1 CP6     -0.152700
     16 C16         3.4110   -1.0320    3.6300 c3        1 CP6     -0.102100
     17 CL1        -3.1150    0.1940    7.5330 cl        1 CP6      0.028600
     18 H8         -1.9790   -1.8160    3.2940 ha        1 CP6      0.148000
     19 H9         -3.2540   -1.6950    5.4160 ha        1 CP6      0.190500
     20 H11        -1.0970    1.9180    6.5060 ha        1 CP6      0.190500
     21 H12         0.1750    1.8020    4.3790 ha        1 CP6      0.148000
     22 H131       -2.6510   -0.6350    0.6760 hn        1 CP6      0.492133
     23 H132       -2.5700    0.3170    2.0660 hn        1 CP6      0.492133
     24 H141        2.5290   -1.2520   -1.2180 hn        1 CP6      0.498467
     25 H142        2.7290    0.4170   -1.2340 hn        1 CP6      0.498467
     26 H151        1.4220   -0.8060    4.4550 hc        1 CP6      0.104200
     27 H152        2.2600    0.7530    4.0440 hc        1 CP6      0.104200
     28 H161        3.2840   -2.0670    3.2300 hc        1 CP6      0.068033
     29 H162        4.1470   -0.4870    2.9910 hc        1 CP6      0.068033
     30 H163        3.8370   -1.1060    4.6630 hc        1 CP6      0.068033
     31 H133       -2.4340    1.0210    0.5380 hn        1 CP6      0.492133
     32 H143        1.4080   -0.2790   -2.0140 hn        1 CP6      0.498467
@<TRIPOS>BOND
     1    1    2 ar  
     2    1    3 ar  
     3    2    6 ar  
     4    2   14 1   
     5    3    4 ar  
     6    3   13 1   
     7    4    5 ar  
     8    4    7 1   
     9    5    6 ar  
    10    5   15 1   
    11    7    8 ar  
    12    7   12 ar  
    13    8    9 ar  
    14    8   18 1   
    15    9   10 ar  
    16    9   19 1   
    17   10   11 ar  
    18   10   17 1   
    19   11   12 ar  
    20   11   20 1   
    21   12   21 1   
    22   13   22 1   
    23   13   23 1   
    24   13   31 1   
    25   14   24 1   
    26   14   25 1   
    27   14   32 1   
    28   15   16 1   
    29   15   26 1   
    30   15   27 1   
    31   16   28 1   
    32   16   29 1   
    33   16   30 1   
@<TRIPOS>SUBSTRUCTURE
     1 CP6         1 TEMP              0 ****  ****    0 ROOT
