@<TRIPOS>MOLECULE
CP6
   30    31     1     0     0
SMALL
bcc


@<TRIPOS>ATOM
      1 N1         -0.0440   -0.0230   -0.0270 nb        1 CP6     -0.822000
      2 C2          1.3370   -0.0210    0.0350 ca        1 CP6      0.905900
      3 C3         -0.7070   -0.0430    1.1690 ca        1 CP6      0.723200
      4 C4         -0.0020   -0.0330    2.4250 cp        1 CP6     -0.399600
      5 C5          1.4100   -0.0730    2.3660 ca        1 CP6      0.528600
      6 N6          2.0900   -0.0750    1.2000 nb        1 CP6     -0.788000
      7 C7         -0.7430    0.0090    3.6800 cp        1 CP6     -0.014000
      8 C8         -1.5280   -1.0830    4.0770 ca        1 CP6     -0.118000
      9 C9         -2.2500   -1.0430    5.2680 ca        1 CP6     -0.128000
     10 C10        -2.1920    0.0990    6.0720 ca        1 CP6      0.015400
     11 C11        -1.4160    1.1970    5.6880 ca        1 CP6     -0.128000
     12 C12        -0.6960    1.1480    4.4970 ca        1 CP6     -0.118000
     13 N13        -2.0920   -0.1330    1.1510 nh        1 CP6     -0.946500
     14 N14         2.0300    0.1080   -1.1750 nh        1 CP6     -0.927500
     15 C15         2.2240   -0.1270    3.6340 c3        1 CP6     -0.139700
     16 C16         2.9510   -1.4420    3.7750 c3        1 CP6     -0.086100
     17 CL1        -3.0730    0.1540    7.5250 cl        1 CP6     -0.094400
     18 H8         -1.5710   -1.9820    3.4420 ha        1 CP6      0.145500
     19 H9         -2.8590   -1.9080    5.5720 ha        1 CP6      0.148000
     20 H11        -1.3720    2.0960    6.3220 ha        1 CP6      0.148000
     21 H12        -0.0830    2.0100    4.1940 ha        1 CP6      0.145500
     22 H131       -2.5580    0.1290    1.9870 hn        1 CP6      0.426300
     23 H132       -2.5630    0.0590    0.2980 hn        1 CP6      0.426300
     24 H141        1.5270   -0.1140   -2.0020 hn        1 CP6      0.426300
     25 H142        2.9910   -0.1420   -1.1630 hn        1 CP6      0.426300
     26 H151        2.9680    0.7160    3.6280 hc        1 CP6      0.061200
     27 H152        1.5490    0.0270    4.5170 hc        1 CP6      0.061200
     28 H161        3.5000   -1.4640    4.7480 hc        1 CP6      0.040367
     29 H162        2.2330   -2.2960    3.7560 hc        1 CP6      0.040367
     30 H163        3.6890   -1.5810    2.9490 hc        1 CP6      0.040367
@<TRIPOS>BOND
     1    1    2 ar  
     2    1    3 ar  
     3    2    6 ar  
     4    2   14 1   
     5    3    4 ar  
     6    3   13 1   
     7    4    5 ar  
     8    4    7 1   
     9    5    6 ar  
    10    5   15 1   
    11    7    8 ar  
    12    7   12 ar  
    13    8    9 ar  
    14    8   18 1   
    15    9   10 ar  
    16    9   19 1   
    17   10   11 ar  
    18   10   17 1   
    19   11   12 ar  
    20   11   20 1   
    21   12   21 1   
    22   13   22 1   
    23   13   23 1   
    24   14   24 1   
    25   14   25 1   
    26   15   16 1   
    27   15   26 1   
    28   15   27 1   
    29   16   28 1   
    30   16   29 1   
    31   16   30 1   
@<TRIPOS>SUBSTRUCTURE
     1 CP6         1 TEMP              0 ****  ****    0 ROOT
