@<TRIPOS>MOLECULE
CP6
   30    31     1     0     0
SMALL
bcc


@<TRIPOS>ATOM
      1 N1         -0.0480   -0.0330   -0.0260 nb        1 CP6     -0.822000
      2 C2          1.3330   -0.0170    0.0350 ca        1 CP6      0.905900
      3 C3         -0.7100   -0.0570    1.1710 ca        1 CP6      0.723200
      4 C4         -0.0040   -0.0390    2.4260 cp        1 CP6     -0.399600
      5 C5          1.4070   -0.0650    2.3660 ca        1 CP6      0.528600
      6 N6          2.0870   -0.0620    1.2000 nb        1 CP6     -0.788000
      7 C7         -0.7450   -0.0020    3.6810 cp        1 CP6     -0.014000
      8 C8         -1.5210   -1.1010    4.0800 ca        1 CP6     -0.118000
      9 C9         -2.2420   -1.0650    5.2710 ca        1 CP6     -0.128000
     10 C10        -2.1950    0.0790    6.0730 ca        1 CP6      0.015400
     11 C11        -1.4290    1.1830    5.6880 ca        1 CP6     -0.128000
     12 C12        -0.7090    1.1390    4.4970 ca        1 CP6     -0.118000
     13 N13        -2.0940   -0.1620    1.1520 nv        1 CP6     -0.946500
     14 N14         2.0250    0.1170   -1.1750 nv        1 CP6     -0.927500
     15 C15         2.2230   -0.1080    3.6340 c3        1 CP6     -0.139700
     16 C16         2.9690   -1.4120    3.7750 c3        1 CP6     -0.086100
     17 Cl1        -3.0750    0.1280    7.5270 cl        1 CP6     -0.094400
     18 H8         -1.5550   -2.0000    3.4460 ha        1 CP6      0.145500
     19 H9         -2.8430   -1.9350    5.5770 ha        1 CP6      0.148000
     20 H11        -1.3930    2.0830    6.3210 ha        1 CP6      0.148000
     21 H12        -0.1040    2.0070    4.1920 ha        1 CP6      0.145500
     22 H131       -2.5670    0.0240    0.2990 hn        1 CP6      0.426300
     23 H132       -2.5620    0.0970    1.9890 hn        1 CP6      0.426300
     24 H141        2.9890   -0.1240   -1.1630 hn        1 CP6      0.426300
     25 H142        1.5240   -0.1120   -2.0020 hn        1 CP6      0.426300
     26 H151        1.5450    0.0360    4.5170 hc        1 CP6      0.061200
     27 H152        2.9540    0.7460    3.6290 hc        1 CP6      0.061200
     28 H161        3.5170   -1.4270    4.7480 hc        1 CP6      0.040367
     29 H162        3.7090   -1.5400    2.9490 hc        1 CP6      0.040367
     30 H163        2.2630   -2.2760    3.7540 hc        1 CP6      0.040367
@<TRIPOS>BOND
     1    1    2 ar  
     2    1    3 ar  
     3    2    6 ar  
     4    2   14 1   
     5    3    4 ar  
     6    3   13 1   
     7    4    5 ar  
     8    4    7 1   
     9    5    6 ar  
    10    5   15 1   
    11    7    8 ar  
    12    7   12 ar  
    13    8    9 ar  
    14    8   18 1   
    15    9   10 ar  
    16    9   19 1   
    17   10   11 ar  
    18   10   17 1   
    19   11   12 ar  
    20   11   20 1   
    21   12   21 1   
    22   13   22 1   
    23   13   23 1   
    24   14   24 1   
    25   14   25 1   
    26   15   16 1   
    27   15   26 1   
    28   15   27 1   
    29   16   28 1   
    30   16   29 1   
    31   16   30 1   
@<TRIPOS>SUBSTRUCTURE
     1 CP6         1 TEMP              0 ****  ****    0 ROOT
