@<TRIPOS>MOLECULE
CP6
   30    31     1     0     0
SMALL
bcc


@<TRIPOS>ATOM
      1 N1         -1.4580   -0.0460   -3.0570 nb        1 CP6     -0.822000
      2 C2         -0.2400    0.0770   -3.6990 ca        1 CP6      0.905900
      3 C3         -1.4260   -0.0720   -1.6900 ca        1 CP6      0.723200
      4 C4         -0.1890    0.0480   -0.9600 cp        1 CP6     -0.399600
      5 C5          0.9980    0.1260   -1.7230 ca        1 CP6      0.528600
      6 N6          0.9970    0.1340   -3.0730 nb        1 CP6     -0.788000
      7 C7         -0.2010    0.0780    0.4970 cp        1 CP6     -0.014000
      8 C8         -0.5740   -1.0590    1.2280 ca        1 CP6     -0.118000
      9 C9         -0.6000   -1.0320    2.6200 ca        1 CP6     -0.128000
     10 C10        -0.2550    0.1430    3.2950 ca        1 CP6      0.015400
     11 C11         0.1170    1.2870    2.5800 ca        1 CP6     -0.128000
     12 C12         0.1430    1.2500    1.1880 ca        1 CP6     -0.118000
     13 N13        -2.6170   -0.2820   -1.0090 nh        1 CP6     -0.946500
     14 N14        -0.2640    0.2140   -5.0920 nh        1 CP6     -0.927500
     15 C15         2.3390    0.1940   -1.0380 c3        1 CP6     -0.139700
     16 C16         3.1610   -1.0460   -1.2940 c3        1 CP6     -0.086100
     17 CL1        -0.2870    0.1830    4.9940 cl        1 CP6     -0.094400
     18 H8         -0.8450   -1.9830    0.6940 ha        1 CP6      0.145500
     19 H9         -0.8900   -1.9320    3.1840 ha        1 CP6      0.148000
     20 H11         0.3890    2.2110    3.1120 ha        1 CP6      0.148000
     21 H12         0.4360    2.1480    0.6240 ha        1 CP6      0.145500
     22 H131       -3.4690   -0.1650   -1.5070 hn        1 CP6      0.426300
     23 H132       -2.6230   -0.0270   -0.0500 hn        1 CP6      0.426300
     24 H141       -1.0910   -0.0830   -5.5550 hn        1 CP6      0.426300
     25 H142        0.5920    0.0480   -5.5680 hn        1 CP6      0.426300
     26 H151        2.1880    0.3240    0.0660 hc        1 CP6      0.061200
     27 H152        2.8950    1.0980   -1.4090 hc        1 CP6      0.061200
     28 H161        4.1230   -0.9810   -0.7300 hc        1 CP6      0.040367
     29 H162        2.6150   -1.9590   -0.9570 hc        1 CP6      0.040367
     30 H163        3.3940   -1.1530   -2.3810 hc        1 CP6      0.040367
@<TRIPOS>BOND
     1    1    2 ar  
     2    1    3 ar  
     3    2    6 ar  
     4    2   14 1   
     5    3    4 ar  
     6    3   13 1   
     7    4    5 ar  
     8    4    7 1   
     9    5    6 ar  
    10    5   15 1   
    11    7    8 ar  
    12    7   12 ar  
    13    8    9 ar  
    14    8   18 1   
    15    9   10 ar  
    16    9   19 1   
    17   10   11 ar  
    18   10   17 1   
    19   11   12 ar  
    20   11   20 1   
    21   12   21 1   
    22   13   22 1   
    23   13   23 1   
    24   14   24 1   
    25   14   25 1   
    26   15   16 1   
    27   15   26 1   
    28   15   27 1   
    29   16   28 1   
    30   16   29 1   
    31   16   30 1   
@<TRIPOS>SUBSTRUCTURE
     1 CP6         1 TEMP              0 ****  ****    0 ROOT
