@<TRIPOS>MOLECULE
CP6
   30    24     1     0     0
SMALL
bcc


@<TRIPOS>ATOM
      1 N1         -0.2770    0.0670   -2.8700 n1        1 CP6     -0.602800
      2 C2          1.0850    0.0820   -2.8790 c1        1 CP6      0.577100
      3 C3         -0.9400    0.0560   -1.7040 c1        1 CP6      0.577100
      4 C4         -0.2500    0.0600   -0.5270 c1        1 CP6     -0.275000
      5 C5          1.1150    0.0760   -0.5370 c1        1 CP6      0.131900
      6 N6          1.7760    0.0860   -1.7040 n1        1 CP6     -0.602800
      7 C7         -0.9340    0.0820    0.6780 c1        1 CP6     -0.013000
      8 C8         -1.2970    1.2930    1.2470 c1        1 CP6     -0.062500
      9 C9         -2.0050    1.3140    2.4380 c1        1 CP6     -0.069500
     10 C10        -2.3500    0.1240    3.0600 c1        1 CP6      0.025900
     11 C11        -1.9870   -1.0860    2.4910 c1        1 CP6     -0.065000
     12 C12        -1.2790   -1.1070    1.3000 c1        1 CP6     -0.065000
     13 N13        -2.3570   -0.0170   -1.6950 n3        1 CP6     -0.800400
     14 N14         1.7850    0.1190   -4.1120 n3        1 CP6     -0.800400
     15 C15         1.8820    0.0190    0.7660 c3        1 CP6     -0.070300
     16 C16         3.2850   -0.4800    0.5040 c3        1 CP6     -0.083100
     17 CL1        -3.1900    0.1520    4.5880 cl        1 CP6     -0.105900
     18 H8         -1.0540    2.1300    0.8090 ha        1 CP6      0.091500
     19 H9         -2.2600    2.1660    2.8390 ha        1 CP6      0.090500
     20 H11        -2.2310   -1.9240    2.9290 ha        1 CP6      0.087500
     21 H12        -1.0240   -1.9600    0.8990 ha        1 CP6      0.087500
     22 H131       -2.8170   -0.0660   -2.4830 hn        1 CP6      0.426050
     23 H132       -2.8090   -0.0330   -0.9010 hn        1 CP6      0.426050
     24 H141        1.3360   -0.0180   -4.8960 hn        1 CP6      0.426050
     25 H142        2.6800    0.3040   -4.1240 hn        1 CP6      0.426050
     26 H151        1.9220    0.9130    1.1600 hc        1 CP6      0.060200
     27 H152        1.4290   -0.5890    1.3840 hc        1 CP6      0.060200
     28 H161        3.7670    0.1730   -0.0460 hc        1 CP6      0.040367
     29 H162        3.7540   -0.5990    1.3560 hc        1 CP6      0.040367
     30 H163        3.2440   -1.3370    0.0310 hc        1 CP6      0.040367
@<TRIPOS>BOND
     1    1    3 3   
     2    2    6 3   
     3    2   14 1   
     4    3   13 1   
     5    4    5 3   
     6    5   15 1   
     7    7    8 3   
     8    8   18 1   
     9    9   10 3   
    10    9   19 1   
    11   10   17 1   
    12   11   12 3   
    13   11   20 1   
    14   12   21 1   
    15   13   22 1   
    16   13   23 1   
    17   14   24 1   
    18   14   25 1   
    19   15   16 1   
    20   15   26 1   
    21   15   27 1   
    22   16   28 1   
    23   16   29 1   
    24   16   30 1   
@<TRIPOS>SUBSTRUCTURE
     1 CP6         1 TEMP              0 ****  ****    0 ROOT
