@<TRIPOS>MOLECULE
CP7
   30    31     1     0     0
SMALL
bcc


@<TRIPOS>ATOM
      1 N1         -1.4250   -0.0500   -2.2920 nb        1 CP7     -0.821000
      2 C2         -0.1930    0.0690   -2.9090 ca        1 CP7      0.900900
      3 C3         -1.4200   -0.0700   -0.9240 ca        1 CP7      0.721200
      4 C4         -0.1990    0.0520   -0.1700 cp        1 CP7     -0.392600
      5 C5          1.0030    0.1250   -0.9080 ca        1 CP7      0.524600
      6 N6          1.0300    0.1260   -2.2590 nb        1 CP7     -0.788000
      7 C7         -0.2410    0.0920    1.2880 cp        1 CP7     -0.018000
      8 C8         -0.6270   -1.0420    2.0170 ca        1 CP7     -0.125000
      9 C9         -0.6800   -0.9980    3.4090 ca        1 CP7     -0.134000
     10 C10        -0.3540    0.1760    4.0880 ca        1 CP7     -0.130000
     11 C11         0.0280    1.3080    3.3690 ca        1 CP7     -0.134000
     12 C12         0.0840    1.2700    1.9770 ca        1 CP7     -0.125000
     13 N13        -2.6250   -0.2760   -0.2670 nh        1 CP7     -0.946500
     14 N14        -0.1890    0.2020   -4.3050 nh        1 CP7     -0.925500
     15 C15         2.3300    0.1950   -0.1960 c3        1 CP7     -0.139700
     16 C16         3.1560   -1.0460   -0.4290 c3        1 CP7     -0.086100
     17 H8         -0.8840   -1.9700    1.4840 ha        1 CP7      0.139500
     18 H9         -0.9790   -1.8940    3.9730 ha        1 CP7      0.132500
     19 H10        -0.3960    0.2080    5.1860 ha        1 CP7      0.132000
     20 H11         0.2850    2.2360    3.9010 ha        1 CP7      0.132500
     21 H12         0.3870    2.1640    1.4120 ha        1 CP7      0.139500
     22 H131       -3.4660   -0.1530   -0.7800 hn        1 CP7      0.425300
     23 H132       -2.6470   -0.0220    0.6930 hn        1 CP7      0.425300
     24 H141       -1.0040   -0.1060   -4.7810 hn        1 CP7      0.423800
     25 H142        0.6760    0.0220   -4.7590 hn        1 CP7      0.423800
     26 H151        2.1550    0.3310    0.9040 hc        1 CP7      0.061200
     27 H152        2.8940    1.0970   -0.5590 hc        1 CP7      0.061200
     28 H161        4.1060   -0.9790    0.1550 hc        1 CP7      0.040033
     29 H162        2.6030   -1.9580   -0.0990 hc        1 CP7      0.040033
     30 H163        3.4120   -1.1590   -1.5100 hc        1 CP7      0.040033
@<TRIPOS>BOND
     1    1    2 ar  
     2    1    3 ar  
     3    2    6 ar  
     4    2   14 1   
     5    3    4 ar  
     6    3   13 1   
     7    4    5 ar  
     8    4    7 1   
     9    5    6 ar  
    10    5   15 1   
    11    7    8 ar  
    12    7   12 ar  
    13    8    9 ar  
    14    8   17 1   
    15    9   10 ar  
    16    9   18 1   
    17   10   11 ar  
    18   10   19 1   
    19   11   12 ar  
    20   11   20 1   
    21   12   21 1   
    22   13   22 1   
    23   13   23 1   
    24   14   24 1   
    25   14   25 1   
    26   15   16 1   
    27   15   26 1   
    28   15   27 1   
    29   16   28 1   
    30   16   29 1   
    31   16   30 1   
@<TRIPOS>SUBSTRUCTURE
     1 CP7         1 TEMP              0 ****  ****    0 ROOT
