@<TRIPOS>MOLECULE
CP7
   30    31     1     0     0
SMALL
bcc


@<TRIPOS>ATOM
      1 N1         -0.0390   -0.0430   -0.0340 nb        1 CP7     -0.825000
      2 C2          1.3410   -0.1010    0.0310 ca        1 CP7      0.903900
      3 C3         -0.7040   -0.0510    1.1620 ca        1 CP7      0.725200
      4 C4         -0.0010   -0.0460    2.4200 cp        1 CP7     -0.395600
      5 C5          1.4090   -0.0830    2.3630 ca        1 CP7      0.525600
      6 N6          2.0920   -0.1020    1.1970 nb        1 CP7     -0.790000
      7 C7         -0.7470   -0.0020    3.6720 cp        1 CP7     -0.018000
      8 C8         -1.5240   -1.0990    4.0720 ca        1 CP7     -0.125000
      9 C9         -2.2480   -1.0520    5.2620 ca        1 CP7     -0.134000
     10 C10        -2.2100    0.0890    6.0630 ca        1 CP7     -0.130000
     11 C11        -1.4430    1.1850    5.6700 ca        1 CP7     -0.134000
     12 C12        -0.7160    1.1430    4.4820 ca        1 CP7     -0.125000
     13 N13        -2.0900   -0.1080    1.1430 nh        1 CP7     -0.950500
     14 N14         2.0320   -0.2210   -1.1810 nh        1 CP7     -0.928500
     15 C15         2.2230   -0.1020    3.6320 c3        1 CP7     -0.138700
     16 C16         2.9590   -1.4080    3.8030 c3        1 CP7     -0.086100
     17 H8         -1.5540   -2.0010    3.4420 ha        1 CP7      0.139500
     18 H9         -2.8500   -1.9200    5.5690 ha        1 CP7      0.132500
     19 H10        -2.7820    0.1230    7.0010 ha        1 CP7      0.132000
     20 H11        -1.4110    2.0870    6.2990 ha        1 CP7      0.132500
     21 H12        -0.1100    2.0090    4.1760 ha        1 CP7      0.139500
     22 H131       -2.5600    0.0770    0.2890 hn        1 CP7      0.427800
     23 H132       -2.5540    0.1480    1.9820 hn        1 CP7      0.427800
     24 H141        2.9990    0.0020   -1.1630 hn        1 CP7      0.425300
     25 H142        1.5360    0.0300   -2.0040 hn        1 CP7      0.425300
     26 H151        1.5450    0.0670    4.5110 hc        1 CP7      0.060200
     27 H152        2.9600    0.7460    3.6090 hc        1 CP7      0.060200
     28 H161        3.5100   -1.4040    4.7750 hc        1 CP7      0.040700
     29 H162        3.6960   -1.5620    2.9780 hc        1 CP7      0.040700
     30 H163        2.2460   -2.2670    3.8040 hc        1 CP7      0.040700
@<TRIPOS>BOND
     1    1    2 ar  
     2    1    3 ar  
     3    2    6 ar  
     4    2   14 1   
     5    3    4 ar  
     6    3   13 1   
     7    4    5 ar  
     8    4    7 1   
     9    5    6 ar  
    10    5   15 1   
    11    7    8 ar  
    12    7   12 ar  
    13    8    9 ar  
    14    8   17 1   
    15    9   10 ar  
    16    9   18 1   
    17   10   11 ar  
    18   10   19 1   
    19   11   12 ar  
    20   11   20 1   
    21   12   21 1   
    22   13   22 1   
    23   13   23 1   
    24   14   24 1   
    25   14   25 1   
    26   15   16 1   
    27   15   26 1   
    28   15   27 1   
    29   16   28 1   
    30   16   29 1   
    31   16   30 1   
@<TRIPOS>SUBSTRUCTURE
     1 CP7         1 TEMP              0 ****  ****    0 ROOT
