@<TRIPOS>MOLECULE
CP7
   32    33     1     0     0
SMALL
bcc


@<TRIPOS>ATOM
      1 N1         -0.0790   -0.1240   -0.0310 nb        1 CP7     -0.670000
      2 C2          1.2640   -0.2870    0.0770 ca        1 CP7      0.740900
      3 C3         -0.7430   -0.0260    1.1670 ca        1 CP7      0.484200
      4 C4         -0.1020   -0.0900    2.4240 cp        1 CP7     -0.112600
      5 C5          1.3360   -0.2660    2.4000 ca        1 CP7      0.538600
      6 N6          2.0070   -0.3620    1.2380 nb        1 CP7     -0.637000
      7 C7         -0.8510    0.0060    3.6660 cp        1 CP7     -0.184000
      8 C8         -1.7920   -0.9880    3.9950 ca        1 CP7     -0.113000
      9 C9         -2.4910   -0.9140    5.1950 ca        1 CP7     -0.105000
     10 C10        -2.2690    0.1510    6.0740 ca        1 CP7     -0.056000
     11 C11        -1.3400    1.1410    5.7500 ca        1 CP7     -0.105000
     12 C12        -0.6230    1.0680    4.5560 ca        1 CP7     -0.113000
     13 N13        -2.2060    0.1680    1.0950 n4        1 CP7     -0.823300
     14 N14         2.0390   -0.4020   -1.1940 n4        1 CP7     -0.815300
     15 C15         2.0720   -0.3430    3.7060 c3        1 CP7     -0.151700
     16 C16         3.4450   -0.9590    3.6350 c3        1 CP7     -0.102100
     17 H8         -1.9350   -1.8590    3.3360 ha        1 CP7      0.145000
     18 H9         -3.2120   -1.7060    5.4620 ha        1 CP7      0.180500
     19 H10        -2.8240    0.2040    7.0280 ha        1 CP7      0.185000
     20 H11        -1.1610    1.9810    6.4450 ha        1 CP7      0.180500
     21 H12         0.1150    1.8490    4.3150 ha        1 CP7      0.145000
     22 H131       -2.6470   -0.6170    0.5920 hn        1 CP7      0.492800
     23 H132       -2.5830    0.2130    2.0600 hn        1 CP7      0.492800
     24 H141        2.5290   -1.3100   -1.2070 hn        1 CP7      0.498467
     25 H142        2.7380    0.3570   -1.2310 hn        1 CP7      0.498467
     26 H151        2.1480    0.7110    4.1030 hc        1 CP7      0.104700
     27 H152        1.4290   -0.9250    4.4260 hc        1 CP7      0.104700
     28 H161        4.1430   -0.3380    3.0220 hc        1 CP7      0.068033
     29 H162        3.8640   -1.0300    4.6710 hc        1 CP7      0.068033
     30 H163        3.4050   -1.9880    3.2040 hc        1 CP7      0.068033
     31 H133       -2.4240    1.0450    0.5990 hn        1 CP7      0.492800
     32 H143        1.4150   -0.3350   -2.0110 hn        1 CP7      0.498467
@<TRIPOS>BOND
     1    1    2 ar  
     2    1    3 ar  
     3    2    6 ar  
     4    2   14 1   
     5    3    4 ar  
     6    3   13 1   
     7    4    5 ar  
     8    4    7 1   
     9    5    6 ar  
    10    5   15 1   
    11    7    8 ar  
    12    7   12 ar  
    13    8    9 ar  
    14    8   17 1   
    15    9   10 ar  
    16    9   18 1   
    17   10   11 ar  
    18   10   19 1   
    19   11   12 ar  
    20   11   20 1   
    21   12   21 1   
    22   13   22 1   
    23   13   23 1   
    24   13   31 1   
    25   14   24 1   
    26   14   25 1   
    27   14   32 1   
    28   15   16 1   
    29   15   26 1   
    30   15   27 1   
    31   16   28 1   
    32   16   29 1   
    33   16   30 1   
@<TRIPOS>SUBSTRUCTURE
     1 CP7         1 TEMP              0 ****  ****    0 ROOT
