@<TRIPOS>MOLECULE
CP7
   30    31     1     0     0
SMALL
bcc


@<TRIPOS>ATOM
      1 N1         -0.0400   -0.0190   -0.0290 nb        1 CP7     -0.821000
      2 C2          1.3400   -0.0150    0.0360 ca        1 CP7      0.900900
      3 C3         -0.7050   -0.0430    1.1670 ca        1 CP7      0.721200
      4 C4         -0.0020   -0.0370    2.4240 cp        1 CP7     -0.392600
      5 C5          1.4090   -0.0760    2.3660 ca        1 CP7      0.524600
      6 N6          2.0910   -0.0740    1.2000 nb        1 CP7     -0.788000
      7 C7         -0.7460    0.0030    3.6780 cp        1 CP7     -0.018000
      8 C8         -1.5280   -1.0920    4.0740 ca        1 CP7     -0.125000
      9 C9         -2.2500   -1.0470    5.2650 ca        1 CP7     -0.134000
     10 C10        -2.2030    0.0900    6.0720 ca        1 CP7     -0.130000
     11 C11        -1.4300    1.1840    5.6830 ca        1 CP7     -0.134000
     12 C12        -0.7050    1.1430    4.4940 ca        1 CP7     -0.125000
     13 N13        -2.0900   -0.1370    1.1460 nv        1 CP7     -0.946500
     14 N14         2.0360    0.1210   -1.1740 nv        1 CP7     -0.925500
     15 C15         2.2210   -0.1320    3.6350 c3        1 CP7     -0.139700
     16 C16         2.9490   -1.4460    3.7760 c3        1 CP7     -0.086100
     17 H8         -1.5660   -1.9900    3.4390 ha        1 CP7      0.139500
     18 H9         -2.8560   -1.9120    5.5700 ha        1 CP7      0.132500
     19 H10        -2.7720    0.1240    7.0120 ha        1 CP7      0.132000
     20 H11        -1.3910    2.0830    6.3160 ha        1 CP7      0.132500
     21 H12        -0.0950    2.0070    4.1900 ha        1 CP7      0.139500
     22 H131       -2.5560    0.1160    1.9860 hn        1 CP7      0.425300
     23 H132       -2.5610    0.0660    0.2950 hn        1 CP7      0.425300
     24 H141        1.5340   -0.1080   -2.0000 hn        1 CP7      0.423800
     25 H142        2.9950   -0.1380   -1.1590 hn        1 CP7      0.423800
     26 H151        2.9630    0.7120    3.6340 hc        1 CP7      0.061200
     27 H152        1.5430    0.0200    4.5170 hc        1 CP7      0.061200
     28 H161        3.4960   -1.4700    4.7490 hc        1 CP7      0.040033
     29 H162        2.2310   -2.3010    3.7530 hc        1 CP7      0.040033
     30 H163        3.6880   -1.5830    2.9500 hc        1 CP7      0.040033
@<TRIPOS>BOND
     1    1    2 ar  
     2    1    3 ar  
     3    2    6 ar  
     4    2   14 1   
     5    3    4 ar  
     6    3   13 1   
     7    4    5 ar  
     8    4    7 1   
     9    5    6 ar  
    10    5   15 1   
    11    7    8 ar  
    12    7   12 ar  
    13    8    9 ar  
    14    8   17 1   
    15    9   10 ar  
    16    9   18 1   
    17   10   11 ar  
    18   10   19 1   
    19   11   12 ar  
    20   11   20 1   
    21   12   21 1   
    22   13   22 1   
    23   13   23 1   
    24   14   24 1   
    25   14   25 1   
    26   15   16 1   
    27   15   26 1   
    28   15   27 1   
    29   16   28 1   
    30   16   29 1   
    31   16   30 1   
@<TRIPOS>SUBSTRUCTURE
     1 CP7         1 TEMP              0 ****  ****    0 ROOT
