@<TRIPOS>MOLECULE
CP7
   30    24     1     0     0
SMALL
bcc


@<TRIPOS>ATOM
      1 N1         -0.3020   -0.0220   -2.8490 n1        1 CP7     -0.602300
      2 C2          1.0600    0.0180   -2.8570 c1        1 CP7      0.573600
      3 C3         -0.9660   -0.0330   -1.6830 c1        1 CP7      0.573600
      4 C4         -0.2770   -0.0050   -0.5060 c1        1 CP7     -0.272000
      5 C5          1.0870    0.0340   -0.5160 c1        1 CP7      0.129900
      6 N6          1.7490    0.0460   -1.6820 n1        1 CP7     -0.602300
      7 C7         -0.9620    0.0200    0.6990 c1        1 CP7     -0.019000
      8 C8         -1.3460   -1.1680    1.3020 c1        1 CP7     -0.068500
      9 C9         -2.0380   -1.1420    2.5030 c1        1 CP7     -0.072750
     10 C10        -2.3470    0.0700    3.1000 c1        1 CP7     -0.072750
     11 C11        -1.9630    1.2570    2.4960 c1        1 CP7     -0.072750
     12 C12        -1.2710    1.2320    1.2950 c1        1 CP7     -0.072750
     13 N13        -2.3840   -0.0360   -1.6750 n3        1 CP7     -0.798900
     14 N14         1.7610    0.0080   -4.0900 n3        1 CP7     -0.798900
     15 C15         1.8530    0.0450    0.7880 c3        1 CP7     -0.069300
     16 C16         3.3270   -0.1500    0.5090 c3        1 CP7     -0.082100
     17 H8         -1.1290   -2.0210    0.8820 ha        1 CP7      0.084500
     18 H9         -2.3090   -1.9790    2.9280 ha        1 CP7      0.075750
     19 H10        -2.8350    0.0880    3.9450 ha        1 CP7      0.075750
     20 H11        -2.1810    2.1110    2.9160 ha        1 CP7      0.075750
     21 H12        -1.0010    2.0680    0.8700 ha        1 CP7      0.075750
     22 H131       -2.8460   -0.0660   -2.4630 hn        1 CP7      0.424800
     23 H132       -2.8370   -0.0150   -0.8810 hn        1 CP7      0.424800
     24 H141        2.6370   -0.2530   -4.1160 hn        1 CP7      0.424800
     25 H142        1.3330    0.2480   -4.8610 hn        1 CP7      0.424800
     26 H151        1.5310   -0.6790    1.3620 hc        1 CP7      0.060700
     27 H152        1.7180    0.9030    1.2390 hc        1 CP7      0.060700
     28 H161        3.4420   -0.8580   -0.1600 hc        1 CP7      0.039700
     29 H162        3.7090    0.6860    0.1690 hc        1 CP7      0.039700
     30 H163        3.7850   -0.4060    1.3370 hc        1 CP7      0.039700
@<TRIPOS>BOND
     1    1    3 3   
     2    2    6 3   
     3    2   14 1   
     4    3   13 1   
     5    4    5 3   
     6    5   15 1   
     7    7    8 3   
     8    8   17 1   
     9    9   10 3   
    10    9   18 1   
    11   10   19 1   
    12   11   12 3   
    13   11   20 1   
    14   12   21 1   
    15   13   22 1   
    16   13   23 1   
    17   14   24 1   
    18   14   25 1   
    19   15   16 1   
    20   15   26 1   
    21   15   27 1   
    22   16   28 1   
    23   16   29 1   
    24   16   30 1   
@<TRIPOS>SUBSTRUCTURE
     1 CP7         1 TEMP              0 ****  ****    0 ROOT
