@<TRIPOS>MOLECULE
CP8
   46    49     1     0     0
SMALL
bcc


@<TRIPOS>ATOM
      1 C1          0.3590   -0.6230    3.1920 ca        1 CP8      0.156600
      2 C2          0.0250    0.5070    2.3810 ca        1 CP8     -0.127300
      3 N3         -0.2630   -0.5900    4.4490 nh        1 CP8     -0.656900
      4 C4          1.2240   -1.6030    2.6970 ca        1 CP8     -0.155000
      5 C5          0.5490    0.6330    1.1080 ca        1 CP8     -0.038000
      6 C6         -0.8960    1.4450    3.0680 c3        1 CP8     -0.241300
      7 S7         -1.2160    0.7560    4.6400 s6        1 CP8      1.437900
      8 C8         -0.0470   -1.6260    5.4040 c3        1 CP8      0.226100
      9 C9          1.7470   -1.4560    1.4110 ca        1 CP8     -0.082000
     10 C10         1.4140   -0.3570    0.6160 ca        1 CP8     -0.120300
     11 O11        -2.5690    0.4200    4.7440 o         1 CP8     -0.639300
     12 O12        -0.7230    1.6010    5.6390 o         1 CP8     -0.639300
     13 C13         1.9840   -0.2470   -0.7630 c3        1 CP8      0.179400
     14 C14         0.9880   -0.8100   -1.7990 c3        1 CP8      0.061000
     15 O15         2.2200    1.1420   -1.0350 os        1 CP8     -0.403600
     16 N16         1.3750   -0.5320   -3.1640 n         1 CP8     -0.456800
     17 C17         2.8050    1.3410   -2.3100 c3        1 CP8      0.060400
     18 C18         0.6100   -1.1900   -4.2020 c3        1 CP8      0.131300
     19 C19         2.0900    0.6260   -3.4510 c         1 CP8      0.664500
     20 C20        -0.7960   -0.6920   -4.3880 ca        1 CP8     -0.125300
     21 O21         2.2320    1.0350   -4.6200 o         1 CP8     -0.635500
     22 C22        -1.0170    0.5510   -4.9920 ca        1 CP8     -0.116000
     23 C23        -1.8850   -1.4750   -3.9950 ca        1 CP8     -0.116000
     24 C24        -2.3180    1.0050   -5.1990 ca        1 CP8     -0.133000
     25 C25        -3.1860   -1.0190   -4.2070 ca        1 CP8     -0.133000
     26 C26        -3.4030    0.2200   -4.8080 ca        1 CP8     -0.123000
     27 H4          1.4930   -2.4760    3.3100 ha        1 CP8      0.146000
     28 H5          0.3040    1.5060    0.4820 ha        1 CP8      0.159000
     29 H6C1       -0.4310    2.4620    3.1470 h1        1 CP8      0.133200
     30 H6C2       -1.8380    1.5760    2.4740 h1        1 CP8      0.133200
     31 H8C1       -0.6320   -1.3890    6.3340 h1        1 CP8      0.048700
     32 H8C2       -0.3880   -2.6180    5.0010 h1        1 CP8      0.048700
     33 H8C3        1.0420   -1.7040    5.6690 h1        1 CP8      0.048700
     34 H9          2.4350   -2.2240    1.0250 ha        1 CP8      0.137000
     35 H13         2.9650   -0.8000   -0.8280 h1        1 CP8      0.057700
     36 H141        0.9290   -1.9270   -1.6660 h1        1 CP8      0.057700
     37 H142       -0.0330   -0.3770   -1.5910 h1        1 CP8      0.057700
     38 H171        3.8750    1.0010   -2.3020 h1        1 CP8      0.085200
     39 H172        2.7500    2.4510   -2.4740 h1        1 CP8      0.085200
     40 H181        1.1690   -1.0530   -5.1750 h1        1 CP8      0.070700
     41 H182        0.5880   -2.2910   -3.9560 h1        1 CP8      0.070700
     42 H22        -0.1520    1.1620   -5.3020 ha        1 CP8      0.142000
     43 H23        -1.7180   -2.4550   -3.5230 ha        1 CP8      0.142000
     44 H24        -2.4880    1.9820   -5.6750 ha        1 CP8      0.133500
     45 H25        -4.0400   -1.6400   -3.9000 ha        1 CP8      0.133500
     46 H26        -4.4300    0.5790   -4.9740 ha        1 CP8      0.132000
@<TRIPOS>BOND
     1    1    2 ar  
     2    1    3 1   
     3    1    4 ar  
     4    2    5 ar  
     5    2    6 1   
     6    3    7 1   
     7    3    8 1   
     8    4    9 ar  
     9    4   27 1   
    10    5   10 ar  
    11    5   28 1   
    12    6    7 1   
    13    6   29 1   
    14    6   30 1   
    15    7   11 2   
    16    7   12 2   
    17    8   31 1   
    18    8   32 1   
    19    8   33 1   
    20    9   10 ar  
    21    9   34 1   
    22   10   13 1   
    23   13   14 1   
    24   13   15 1   
    25   13   35 1   
    26   14   16 1   
    27   14   36 1   
    28   14   37 1   
    29   15   17 1   
    30   16   18 1   
    31   16   19 1   
    32   17   19 1   
    33   17   38 1   
    34   17   39 1   
    35   18   20 1   
    36   18   40 1   
    37   18   41 1   
    38   19   21 2   
    39   20   22 ar  
    40   20   23 ar  
    41   22   24 ar  
    42   22   42 1   
    43   23   25 ar  
    44   23   43 1   
    45   24   26 ar  
    46   24   44 1   
    47   25   26 ar  
    48   25   45 1   
    49   26   46 1   
@<TRIPOS>SUBSTRUCTURE
     1 CP8         1 TEMP              0 ****  ****    0 ROOT
