@<TRIPOS>MOLECULE
CP8
   46    49     1     0     0
SMALL
bcc


@<TRIPOS>ATOM
      1 C1          0.0570   -0.1030    0.0980 ca        1 CP8      0.156600
      2 C2          1.4830   -0.0120    0.1680 ca        1 CP8     -0.127300
      3 N3         -0.4170   -0.1720   -1.2200 nh        1 CP8     -0.656900
      4 C4         -0.6990   -0.1130    1.2740 ca        1 CP8     -0.155000
      5 C5          2.1190    0.0610    1.3930 ca        1 CP8     -0.038000
      6 C6          2.1160   -0.0080   -1.1730 c3        1 CP8     -0.241300
      7 S7          0.8160   -0.1290   -2.3310 s6        1 CP8      1.437900
      8 C8         -1.8130   -0.2580   -1.4980 c3        1 CP8      0.226100
      9 C9         -0.0380   -0.0330    2.5020 ca        1 CP8     -0.082000
     10 C10         1.3540    0.0470    2.5700 ca        1 CP8     -0.120300
     11 O11         0.9190   -1.3340   -3.0340 o         1 CP8     -0.639300
     12 O12         0.7660    1.0270   -3.1150 o         1 CP8     -0.639300
     13 C13         2.0230    0.1140    3.9070 c3        1 CP8      0.179400
     14 C14         2.4650   -1.2960    4.3550 c3        1 CP8      0.061000
     15 O15         3.1760    0.9580    3.7840 os        1 CP8     -0.403600
     16 N16         3.3120   -1.2770    5.5270 n         1 CP8     -0.456800
     17 C17         3.8520    1.1170    5.0200 c3        1 CP8      0.060400
     18 C18         3.6090   -2.5580    6.1320 c3        1 CP8      0.131300
     19 C19         4.1460   -0.1870    5.7510 c         1 CP8      0.664500
     20 C20         4.5330   -3.4480    5.3490 ca        1 CP8     -0.125300
     21 O21         5.0620   -0.2270    6.5960 o         1 CP8     -0.635500
     22 C22         5.8970   -3.1440    5.2840 ca        1 CP8     -0.116000
     23 C23         4.0470   -4.5950    4.7160 ca        1 CP8     -0.116000
     24 C24         6.7670   -3.9840    4.5900 ca        1 CP8     -0.133000
     25 C25         4.9200   -5.4350    4.0250 ca        1 CP8     -0.133000
     26 C26         6.2790   -5.1290    3.9600 ca        1 CP8     -0.123000
     27 H4         -1.7950   -0.1780    1.2370 ha        1 CP8      0.146000
     28 H5          3.2160    0.1420    1.4540 ha        1 CP8      0.159000
     29 H6C1        2.8380   -0.8600   -1.2690 h1        1 CP8      0.133200
     30 H6C2        2.7160    0.9290   -1.3190 h1        1 CP8      0.133200
     31 H8C1       -2.3580    0.6330   -1.0850 h1        1 CP8      0.048700
     32 H8C2       -2.2530   -1.1870   -1.0420 h1        1 CP8      0.048700
     33 H8C3       -1.9600   -0.2920   -2.6110 h1        1 CP8      0.048700
     34 H9         -0.6340   -0.0330    3.4280 ha        1 CP8      0.137000
     35 H13         1.3260    0.5620    4.6730 h1        1 CP8      0.057700
     36 H141        1.5440   -1.9000    4.5890 h1        1 CP8      0.057700
     37 H142        3.0030   -1.7940    3.4970 h1        1 CP8      0.057700
     38 H171        4.8200    1.6190    4.7490 h1        1 CP8      0.085200
     39 H172        3.2510    1.7740    5.7060 h1        1 CP8      0.085200
     40 H181        2.6270   -3.0880    6.2950 h1        1 CP8      0.070700
     41 H182        4.0770   -2.3560    7.1410 h1        1 CP8      0.070700
     42 H22         6.2740   -2.2390    5.7890 ha        1 CP8      0.142000
     43 H23         2.9760   -4.8410    4.7670 ha        1 CP8      0.142000
     44 H24         7.8390   -3.7430    4.5420 ha        1 CP8      0.133500
     45 H25         4.5350   -6.3380    3.5300 ha        1 CP8      0.133500
     46 H26         6.9670   -5.7920    3.4140 ha        1 CP8      0.132000
@<TRIPOS>BOND
     1    1    2 ar  
     2    1    3 1   
     3    1    4 ar  
     4    2    5 ar  
     5    2    6 1   
     6    3    7 1   
     7    3    8 1   
     8    4    9 ar  
     9    4   27 1   
    10    5   10 ar  
    11    5   28 1   
    12    6    7 1   
    13    6   29 1   
    14    6   30 1   
    15    7   11 2   
    16    7   12 2   
    17    8   31 1   
    18    8   32 1   
    19    8   33 1   
    20    9   10 ar  
    21    9   34 1   
    22   10   13 1   
    23   13   14 1   
    24   13   15 1   
    25   13   35 1   
    26   14   16 1   
    27   14   36 1   
    28   14   37 1   
    29   15   17 1   
    30   16   18 1   
    31   16   19 1   
    32   17   19 1   
    33   17   38 1   
    34   17   39 1   
    35   18   20 1   
    36   18   40 1   
    37   18   41 1   
    38   19   21 2   
    39   20   22 ar  
    40   20   23 ar  
    41   22   24 ar  
    42   22   42 1   
    43   23   25 ar  
    44   23   43 1   
    45   24   26 ar  
    46   24   44 1   
    47   25   26 ar  
    48   25   45 1   
    49   26   46 1   
@<TRIPOS>SUBSTRUCTURE
     1 CP8         1 TEMP              0 ****  ****    0 ROOT
