@<TRIPOS>MOLECULE
CP8
   46    44     1     0     0
SMALL
bcc


@<TRIPOS>ATOM
      1 C1         -2.2960    0.2030   -3.6200 c1        1 CP8      0.074000
      2 C2         -0.9210    0.6570   -3.6730 c1        1 CP8     -0.120000
      3 N3         -2.7400   -0.1000   -5.0190 n3        1 CP8     -0.753000
      4 C4         -2.8520   -0.1900   -2.4030 c1        1 CP8     -0.155000
      5 C5         -0.1650    0.6980   -2.5150 c1        1 CP8     -0.038000
      6 C6         -0.7100    1.4060   -5.0160 c3        1 CP8     -0.788000
      7 S7         -1.9060    0.8000   -5.9940 s6        1 CP8      2.793000
      8 C8         -3.7650   -0.9820   -5.3850 c3        1 CP8     -0.050000
      9 C9         -2.0800   -0.1460   -1.2340 c1        1 CP8     -0.083000
     10 C10        -0.7320    0.2990   -1.2860 c1        1 CP8     -0.113000
     11 O11        -1.3650    0.0390   -7.0920 o         1 CP8     -0.918500
     12 O12        -2.7130    1.8590   -6.4940 o         1 CP8     -0.918500
     13 C13        -0.1900    0.5890    0.1250 c3        1 CP8      0.058000
     14 C14         0.6170   -0.5290    0.5510 c3        1 CP8     -0.046000
     15 O15         0.5640    1.8590    0.0900 os        1 CP8     -0.261000
     16 N16         1.3270   -0.3010    1.7770 n         1 CP8     -0.327000
     17 C17         1.1920    2.1570    1.2880 c3        1 CP8     -0.040000
     18 C18         1.7790   -1.4280    2.5730 c3        1 CP8      0.016000
     19 C19         2.0550    0.8950    1.7730 c2        1 CP8      0.278000
     20 C20         1.9590   -0.9840    4.0330 c2        1 CP8     -0.112000
     21 O21         2.9700    1.0500    2.5530 o         1 CP8     -0.368000
     22 C22         0.8560   -1.0630    4.8770 c2        1 CP8     -0.123000
     23 C23         3.2220   -0.7720    4.5620 c1        1 CP8     -0.110000
     24 C24         1.0200   -0.9280    6.2540 c1        1 CP8     -0.135000
     25 C25         3.3870   -0.6370    5.9370 c1        1 CP8     -0.128000
     26 C26         2.2820   -0.7160    6.7830 c1        1 CP8     -0.128000
     27 H4         -3.7950   -0.5020   -2.3650 ha        1 CP8      0.146000
     28 H5          0.7630    1.0040   -2.5480 ha        1 CP8      0.160000
     29 H6C1       -0.6880    2.3810   -4.9320 h1        1 CP8      0.172000
     30 H6C2        0.1720    1.2220   -5.3950 h1        1 CP8      0.172000
     31 H8C1       -3.5830   -1.8600   -5.0180 h1        1 CP8      0.088000
     32 H8C2       -4.6270   -0.6490   -5.0320 h1        1 CP8      0.088000
     33 H8C3       -3.8130   -1.0390   -6.3560 h1        1 CP8      0.088000
     34 H9         -2.4680   -0.4200   -0.3860 ha        1 CP8      0.139000
     35 H13        -0.9580    0.6880    0.7510 h1        1 CP8      0.097000
     36 H141        1.2560   -0.7270   -0.1420 h1        1 CP8      0.097000
     37 H142        0.0360   -1.3060    0.6700 h1        1 CP8      0.097000
     38 H171        0.5240    2.4420    1.9570 h1        1 CP8      0.125000
     39 H172        1.7600    2.9670    1.2220 h1        1 CP8      0.125000
     40 H181        2.6450   -1.7570    2.2180 h1        1 CP8      0.109500
     41 H182        1.1040   -2.1570    2.5290 h1        1 CP8      0.109500
     42 H22        -0.0480   -1.2130    4.4970 ha        1 CP8      0.128000
     43 H23         4.0100   -0.7170    3.9580 ha        1 CP8      0.154000
     44 H24         0.2400   -0.9840    6.8490 ha        1 CP8      0.132000
     45 H25         4.2700   -0.4890    6.3050 ha        1 CP8      0.133500
     46 H26         2.4010   -0.6200    7.7730 ha        1 CP8      0.133500
@<TRIPOS>BOND
     1    1    3 1   
     2    1    4 1   
     3    2    5 1   
     4    2    6 1   
     5    3    7 1   
     6    3    8 1   
     7    4   27 1   
     8    5   28 1   
     9    6    7 1   
    10    6   29 1   
    11    6   30 1   
    12    7   11 1   
    13    7   12 1   
    14    8   31 1   
    15    8   32 1   
    16    8   33 1   
    17    9   10 1   
    18    9   34 1   
    19   10   13 1   
    20   13   14 1   
    21   13   15 1   
    22   13   35 1   
    23   14   16 1   
    24   14   36 1   
    25   14   37 1   
    26   15   17 1   
    27   16   18 1   
    28   16   19 1   
    29   17   19 1   
    30   17   38 1   
    31   17   39 1   
    32   18   20 1   
    33   18   40 1   
    34   18   41 1   
    35   19   21 1   
    36   20   22 1   
    37   20   23 1   
    38   22   24 1   
    39   22   42 1   
    40   23   43 1   
    41   24   44 1   
    42   25   26 1   
    43   25   45 1   
    44   26   46 1   
@<TRIPOS>SUBSTRUCTURE
     1 CP8         1 TEMP              0 ****  ****    0 ROOT
