@<TRIPOS>MOLECULE
CP8
   46    49     1     0     0
SMALL
bcc


@<TRIPOS>ATOM
      1 C1          0.0530   -0.1040    0.1020 ca        1 CP8      0.156600
      2 C2          1.4790   -0.0120    0.1690 ca        1 CP8     -0.127300
      3 N3         -0.4230   -0.1730   -1.2160 nh        1 CP8     -0.656900
      4 C4         -0.7010   -0.1140    1.2790 ca        1 CP8     -0.155000
      5 C5          2.1170    0.0620    1.3930 ca        1 CP8     -0.038000
      6 C6          2.1100   -0.0080   -1.1730 c3        1 CP8     -0.241300
      7 S7          0.8080   -0.1310   -2.3290 s6        1 CP8      1.437900
      8 C8         -1.8200   -0.2620   -1.4900 c3        1 CP8      0.226100
      9 C9         -0.0370   -0.0340    2.5060 ca        1 CP8     -0.082000
     10 C10         1.3550    0.0470    2.5720 ca        1 CP8     -0.120300
     11 O11         0.9100   -1.3350   -3.0320 o         1 CP8     -0.639300
     12 O12         0.7550    1.0260   -3.1130 o         1 CP8     -0.639300
     13 C13         2.0260    0.1150    3.9080 c3        1 CP8      0.179400
     14 C14         2.4680   -1.2940    4.3550 c3        1 CP8      0.061000
     15 O15         3.1790    0.9580    3.7820 os        1 CP8     -0.403600
     16 N16         3.3170   -1.2760    5.5250 n         1 CP8     -0.456800
     17 C17         3.8570    1.1180    5.0160 c3        1 CP8      0.060400
     18 C18         3.6150   -2.5560    6.1310 c3        1 CP8      0.131300
     19 C19         4.1520   -0.1850    5.7480 c         1 CP8      0.664500
     20 C20         4.5370   -3.4470    5.3470 ca        1 CP8     -0.125300
     21 O21         5.0690   -0.2260    6.5910 o         1 CP8     -0.635500
     22 C22         5.9020   -3.1430    5.2780 ca        1 CP8     -0.116000
     23 C23         4.0500   -4.5950    4.7160 ca        1 CP8     -0.116000
     24 C24         6.7690   -3.9830    4.5820 ca        1 CP8     -0.133000
     25 C25         4.9210   -5.4340    4.0230 ca        1 CP8     -0.133000
     26 C26         6.2800   -5.1290    3.9540 ca        1 CP8     -0.123000
     27 H4         -1.7970   -0.1800    1.2440 ha        1 CP8      0.146000
     28 H5          3.2140    0.1430    1.4520 ha        1 CP8      0.159000
     29 H6C1        2.8320   -0.8600   -1.2700 h1        1 CP8      0.133200
     30 H6C2        2.7090    0.9290   -1.3200 h1        1 CP8      0.133200
     31 H8C1       -2.3650    0.6300   -1.0770 h1        1 CP8      0.048700
     32 H8C2       -2.2580   -1.1900   -1.0340 h1        1 CP8      0.048700
     33 H8C3       -1.9690   -0.2970   -2.6030 h1        1 CP8      0.048700
     34 H9         -0.6320   -0.0340    3.4330 ha        1 CP8      0.137000
     35 H13         1.3310    0.5640    4.6740 h1        1 CP8      0.057700
     36 H141        1.5470   -1.8990    4.5920 h1        1 CP8      0.057700
     37 H142        3.0040   -1.7940    3.4970 h1        1 CP8      0.057700
     38 H171        4.8240    1.6200    4.7430 h1        1 CP8      0.085200
     39 H172        3.2570    1.7750    5.7030 h1        1 CP8      0.085200
     40 H181        4.0850   -2.3540    7.1390 h1        1 CP8      0.070700
     41 H182        2.6330   -3.0870    6.2960 h1        1 CP8      0.070700
     42 H22         6.2790   -2.2370    5.7820 ha        1 CP8      0.142000
     43 H23         2.9790   -4.8410    4.7690 ha        1 CP8      0.142000
     44 H24         7.8410   -3.7420    4.5310 ha        1 CP8      0.133500
     45 H25         4.5350   -6.3380    3.5300 ha        1 CP8      0.133500
     46 H26         6.9660   -5.7920    3.4070 ha        1 CP8      0.132000
@<TRIPOS>BOND
     1    1    2 ar  
     2    1    3 1   
     3    1    4 ar  
     4    2    5 ar  
     5    2    6 1   
     6    3    7 1   
     7    3    8 1   
     8    4    9 ar  
     9    4   27 1   
    10    5   10 ar  
    11    5   28 1   
    12    6    7 1   
    13    6   29 1   
    14    6   30 1   
    15    7   11 2   
    16    7   12 2   
    17    8   31 1   
    18    8   32 1   
    19    8   33 1   
    20    9   10 ar  
    21    9   34 1   
    22   10   13 1   
    23   13   14 1   
    24   13   15 1   
    25   13   35 1   
    26   14   16 1   
    27   14   36 1   
    28   14   37 1   
    29   15   17 1   
    30   16   18 1   
    31   16   19 1   
    32   17   19 1   
    33   17   38 1   
    34   17   39 1   
    35   18   20 1   
    36   18   40 1   
    37   18   41 1   
    38   19   21 2   
    39   20   22 ar  
    40   20   23 ar  
    41   22   24 ar  
    42   22   42 1   
    43   23   25 ar  
    44   23   43 1   
    45   24   26 ar  
    46   24   44 1   
    47   25   26 ar  
    48   25   45 1   
    49   26   46 1   
@<TRIPOS>SUBSTRUCTURE
     1 CP8         1 TEMP              0 ****  ****    0 ROOT
