@<TRIPOS>MOLECULE
CP9
   43    47     1     0     0
SMALL
bcc


@<TRIPOS>ATOM
      1 S1          0.4860   -0.5380   -0.3010 ss        1 CP9     -0.059500
      2 C2          2.1820   -0.4120    0.1890 c         1 CP9      0.694100
      3 N3          2.2650   -0.2090    1.5810 n         1 CP9     -0.366000
      4 C4          1.0060   -0.0940    2.1940 ca        1 CP9      0.047600
      5 C5         -0.0790   -0.2700    1.2820 ca        1 CP9     -0.085100
      6 C6         -1.3900   -0.2080    1.7350 ca        1 CP9     -0.063000
      7 C7         -1.6380    0.0280    3.0860 ca        1 CP9     -0.148000
      8 C8         -0.5790    0.2040    3.9800 ca        1 CP9     -0.095000
      9 C9          0.7450    0.1480    3.5510 ca        1 CP9     -0.145000
     10 C10         3.5170   -0.0170    2.2670 c3        1 CP9      0.149300
     11 C11         3.9860    1.4080    2.3450 ca        1 CP9     -0.122300
     12 C12         4.0060    2.0860    3.5650 ca        1 CP9     -0.097000
     13 C13         4.4820    3.3910    3.6440 ca        1 CP9     -0.143000
     14 C14         4.9370    4.0510    2.4830 ca        1 CP9      0.023800
     15 C15         4.9100    3.3610    1.2500 ca        1 CP9     -0.143000
     16 C16         4.4410    2.0540    1.1910 ca        1 CP9     -0.097000
     17 N17         5.4210    5.3700    2.5500 na        1 CP9     -0.104400
     18 C18         4.8290    6.4810    3.2340 cc        1 CP9      0.434800
     19 N19         5.5150    7.6250    3.0440 nd        1 CP9     -0.548100
     20 C20         6.5930    7.2930    2.2070 ca        1 CP9     -0.050900
     21 C21         6.5420    5.8770    1.8790 ca        1 CP9     -0.041200
     22 C22         7.5290    5.3170    1.0590 ca        1 CP9     -0.243300
     23 C23         8.5170    6.1950    0.5970 ca        1 CP9      0.401200
     24 N24         8.5850    7.5190    0.8830 nb        1 CP9     -0.680000
     25 C25         7.6500    8.0620    1.6700 ca        1 CP9      0.460200
     26 C26         3.5950    6.3510    4.0560 c3        1 CP9     -0.118400
     27 O27         3.1750   -0.5010   -0.5460 o         1 CP9     -0.587500
     28 H6         -2.2250   -0.3440    1.0310 ha        1 CP9      0.146000
     29 H7         -2.6750    0.0760    3.4500 ha        1 CP9      0.141000
     30 H8         -0.7910    0.3920    5.0440 ha        1 CP9      0.138000
     31 H9          1.5670    0.2970    4.2640 ha        1 CP9      0.140000
     32 H101        3.4170   -0.4430    3.3070 h1        1 CP9      0.076200
     33 H102        4.2960   -0.6170    1.7070 h1        1 CP9      0.076200
     34 H12         3.6510    1.5860    4.4800 ha        1 CP9      0.149000
     35 H13         4.5030    3.9020    4.6200 ha        1 CP9      0.149000
     36 H15         5.2600    3.8560    0.3290 ha        1 CP9      0.149000
     37 H16         4.4220    1.5180    0.2260 ha        1 CP9      0.149000
     38 H22         7.5360    4.2530    0.7950 ha        1 CP9      0.150000
     39 H23         9.3260    5.8200   -0.0560 h4        1 CP9      0.024100
     40 H25         7.7370    9.1420    1.8860 h4        1 CP9      0.037100
     41 H261        3.8750    6.1010    5.1100 hc        1 CP9      0.067033
     42 H262        2.9290    5.5480    3.6550 hc        1 CP9      0.067033
     43 H263        3.0350    7.3200    4.0560 hc        1 CP9      0.067033
@<TRIPOS>BOND
     1    1    2 1   
     2    1    5 1   
     3    2    3 1   
     4    2   27 2   
     5    3    4 1   
     6    3   10 1   
     7    4    5 ar  
     8    4    9 ar  
     9    5    6 ar  
    10    6    7 ar  
    11    6   28 1   
    12    7    8 ar  
    13    7   29 1   
    14    8    9 ar  
    15    8   30 1   
    16    9   31 1   
    17   10   11 1   
    18   10   32 1   
    19   10   33 1   
    20   11   12 ar  
    21   11   16 ar  
    22   12   13 ar  
    23   12   34 1   
    24   13   14 ar  
    25   13   35 1   
    26   14   15 ar  
    27   14   17 1   
    28   15   16 ar  
    29   15   36 1   
    30   16   37 1   
    31   17   18 1   
    32   17   21 1   
    33   18   19 2   
    34   18   26 1   
    35   19   20 1   
    36   20   21 ar  
    37   20   25 ar  
    38   21   22 ar  
    39   22   23 ar  
    40   22   38 1   
    41   23   24 ar  
    42   23   39 1   
    43   24   25 ar  
    44   25   40 1   
    45   26   41 1   
    46   26   42 1   
    47   26   43 1   
@<TRIPOS>SUBSTRUCTURE
     1 CP9         1 TEMP              0 ****  ****    0 ROOT
