@<TRIPOS>MOLECULE
CP9
   43    47     1     0     0
SMALL
bcc


@<TRIPOS>ATOM
      1 S1          0.4860   -0.5250   -0.3180 ss        1 CP9     -0.059500
      2 C2          2.1810   -0.4050    0.1780 c         1 CP9      0.694100
      3 N3          2.2590   -0.2040    1.5710 n         1 CP9     -0.366000
      4 C4          0.9980   -0.0870    2.1800 ca        1 CP9      0.047600
      5 C5         -0.0840   -0.2580    1.2630 ca        1 CP9     -0.085100
      6 C6         -1.3960   -0.1930    1.7120 ca        1 CP9     -0.063000
      7 C7         -1.6480    0.0410    3.0630 ca        1 CP9     -0.148000
      8 C8         -0.5920    0.2120    3.9610 ca        1 CP9     -0.095000
      9 C9          0.7330    0.1530    3.5360 ca        1 CP9     -0.145000
     10 C10         3.5090   -0.0170    2.2620 c3        1 CP9      0.149300
     11 C11         3.9820    1.4070    2.3440 ca        1 CP9     -0.122300
     12 C12         3.9990    2.0830    3.5650 ca        1 CP9     -0.097000
     13 C13         4.4770    3.3870    3.6480 ca        1 CP9     -0.143000
     14 C14         4.9390    4.0470    2.4890 ca        1 CP9      0.023800
     15 C15         4.9150    3.3600    1.2550 ca        1 CP9     -0.143000
     16 C16         4.4430    2.0540    1.1920 ca        1 CP9     -0.097000
     17 N17         5.4260    5.3650    2.5600 na        1 CP9     -0.104400
     18 C18         4.8340    6.4760    3.2430 cc        1 CP9      0.434800
     19 N19         5.5240    7.6190    3.0570 nd        1 CP9     -0.548100
     20 C20         6.6050    7.2860    2.2240 ca        1 CP9     -0.050900
     21 C21         6.5510    5.8700    1.8940 ca        1 CP9     -0.041200
     22 C22         7.5400    5.3080    1.0770 ca        1 CP9     -0.243300
     23 C23         8.5320    6.1840    0.6200 ca        1 CP9      0.401200
     24 N24         8.6020    7.5080    0.9090 nb        1 CP9     -0.680000
     25 C25         7.6650    8.0530    1.6920 ca        1 CP9      0.460200
     26 C26         3.5970    6.3490    4.0590 c3        1 CP9     -0.118400
     27 O27         3.1760   -0.4950   -0.5530 o         1 CP9     -0.587500
     28 H6         -2.2300   -0.3260    1.0060 ha        1 CP9      0.146000
     29 H7         -2.6860    0.0910    3.4230 ha        1 CP9      0.141000
     30 H8         -0.8070    0.3990    5.0240 ha        1 CP9      0.138000
     31 H9          1.5540    0.2990    4.2530 ha        1 CP9      0.140000
     32 H101        3.4050   -0.4440    3.3010 h1        1 CP9      0.076200
     33 H102        4.2890   -0.6170    1.7040 h1        1 CP9      0.076200
     34 H12         3.6380    1.5830    4.4780 ha        1 CP9      0.149000
     35 H13         4.4960    3.8970    4.6240 ha        1 CP9      0.149000
     36 H15         5.2700    3.8540    0.3360 ha        1 CP9      0.149000
     37 H16         4.4260    1.5190    0.2260 ha        1 CP9      0.149000
     38 H22         7.5450    4.2450    0.8120 ha        1 CP9      0.150000
     39 H23         9.3420    5.8080   -0.0300 h4        1 CP9      0.024100
     40 H25         7.7550    9.1320    1.9100 h4        1 CP9      0.037100
     41 H261        3.8720    6.0970    5.1140 hc        1 CP9      0.067033
     42 H262        2.9310    5.5480    3.6550 hc        1 CP9      0.067033
     43 H263        3.0390    7.3190    4.0580 hc        1 CP9      0.067033
@<TRIPOS>BOND
     1    1    2 1   
     2    1    5 1   
     3    2    3 1   
     4    2   27 2   
     5    3    4 1   
     6    3   10 1   
     7    4    5 ar  
     8    4    9 ar  
     9    5    6 ar  
    10    6    7 ar  
    11    6   28 1   
    12    7    8 ar  
    13    7   29 1   
    14    8    9 ar  
    15    8   30 1   
    16    9   31 1   
    17   10   11 1   
    18   10   32 1   
    19   10   33 1   
    20   11   12 ar  
    21   11   16 ar  
    22   12   13 ar  
    23   12   34 1   
    24   13   14 ar  
    25   13   35 1   
    26   14   15 ar  
    27   14   17 1   
    28   15   16 ar  
    29   15   36 1   
    30   16   37 1   
    31   17   18 1   
    32   17   21 1   
    33   18   19 2   
    34   18   26 1   
    35   19   20 1   
    36   20   21 ar  
    37   20   25 ar  
    38   21   22 ar  
    39   22   23 ar  
    40   22   38 1   
    41   23   24 ar  
    42   23   39 1   
    43   24   25 ar  
    44   25   40 1   
    45   26   41 1   
    46   26   42 1   
    47   26   43 1   
@<TRIPOS>SUBSTRUCTURE
     1 CP9         1 TEMP              0 ****  ****    0 ROOT
