@<TRIPOS>MOLECULE
CP9
   43    47     1     0     0
SMALL
bcc


@<TRIPOS>ATOM
      1 S1         -1.6770   -1.2010   -4.6520 ss        1 CP9     -0.059500
      2 C2         -2.0910   -0.0690   -3.3550 c         1 CP9      0.694100
      3 N3         -0.9970    0.7790   -3.0930 n         1 CP9     -0.366000
      4 C4          0.1370    0.4680   -3.8640 ca        1 CP9      0.047600
      5 C5         -0.0910   -0.5980   -4.7860 ca        1 CP9     -0.085100
      6 C6          0.9240   -1.0120   -5.6390 ca        1 CP9     -0.063000
      7 C7          2.1650   -0.3800   -5.5850 ca        1 CP9     -0.148000
      8 C8          2.3910    0.6600   -4.6810 ca        1 CP9     -0.095000
      9 C9          1.3910    1.0930   -3.8140 ca        1 CP9     -0.145000
     10 C10        -1.0140    1.7740   -2.0510 c3        1 CP9      0.149300
     11 C11        -0.5640    1.2890   -0.7020 ca        1 CP9     -0.122300
     12 C12         0.6390    1.7320   -0.1510 ca        1 CP9     -0.097000
     13 C13         1.0360    1.3170    1.1160 ca        1 CP9     -0.143000
     14 C14         0.2260    0.4280    1.8550 ca        1 CP9      0.023800
     15 C15        -0.9890   -0.0210    1.2910 ca        1 CP9     -0.143000
     16 C16        -1.3730    0.4120    0.0280 ca        1 CP9     -0.097000
     17 N17         0.6160    0.0020    3.1390 na        1 CP9     -0.104400
     18 C18         1.9080   -0.4620    3.5470 cc        1 CP9      0.434800
     19 N19         1.9270   -0.8580    4.8350 nd        1 CP9     -0.548100
     20 C20         0.6200   -0.6690    5.3160 ca        1 CP9     -0.050900
     21 C21        -0.2200   -0.1360    4.2550 ca        1 CP9     -0.041200
     22 C22        -1.5690    0.1410    4.5090 ca        1 CP9     -0.243300
     23 C23        -2.0190   -0.1310    5.8060 ca        1 CP9      0.401200
     24 N24        -1.2590   -0.6310    6.8120 nb        1 CP9     -0.680000
     25 C25         0.0320   -0.8950    6.5800 ca        1 CP9      0.460200
     26 C26         3.0770   -0.4900    2.6280 c3        1 CP9     -0.118400
     27 O27        -3.1720    0.0100   -2.7560 o         1 CP9     -0.587500
     28 H6          0.7480   -1.8330   -6.3510 ha        1 CP9      0.146000
     29 H7          2.9710   -0.7040   -6.2600 ha        1 CP9      0.141000
     30 H8          3.3770    1.1480   -4.6490 ha        1 CP9      0.138000
     31 H9          1.5860    1.9080   -3.1020 ha        1 CP9      0.140000
     32 H101       -2.0830    2.1370   -1.9580 h1        1 CP9      0.076200
     33 H102       -0.3700    2.6390   -2.3800 h1        1 CP9      0.076200
     34 H12         1.2840    2.4230   -0.7170 ha        1 CP9      0.149000
     35 H13         1.9820    1.6910    1.5380 ha        1 CP9      0.149000
     36 H15        -1.6370   -0.7150    1.8490 ha        1 CP9      0.149000
     37 H16        -2.3240    0.0600   -0.4110 ha        1 CP9      0.149000
     38 H22        -2.2360    0.5530    3.7430 ha        1 CP9      0.150000
     39 H23        -3.0740    0.0630    6.0760 h4        1 CP9      0.024100
     40 H25         0.6240   -1.2980    7.4210 h4        1 CP9      0.037100
     41 H261        2.7530   -0.6590    1.5720 hc        1 CP9      0.067033
     42 H262        3.6220    0.4850    2.6910 hc        1 CP9      0.067033
     43 H263        3.7770   -1.3100    2.9280 hc        1 CP9      0.067033
@<TRIPOS>BOND
     1    1    2 1   
     2    1    5 1   
     3    2    3 1   
     4    2   27 2   
     5    3    4 1   
     6    3   10 1   
     7    4    5 ar  
     8    4    9 ar  
     9    5    6 ar  
    10    6    7 ar  
    11    6   28 1   
    12    7    8 ar  
    13    7   29 1   
    14    8    9 ar  
    15    8   30 1   
    16    9   31 1   
    17   10   11 1   
    18   10   32 1   
    19   10   33 1   
    20   11   12 ar  
    21   11   16 ar  
    22   12   13 ar  
    23   12   34 1   
    24   13   14 ar  
    25   13   35 1   
    26   14   15 ar  
    27   14   17 1   
    28   15   16 ar  
    29   15   36 1   
    30   16   37 1   
    31   17   18 1   
    32   17   21 1   
    33   18   19 2   
    34   18   26 1   
    35   19   20 1   
    36   20   21 ar  
    37   20   25 ar  
    38   21   22 ar  
    39   22   23 ar  
    40   22   38 1   
    41   23   24 ar  
    42   23   39 1   
    43   24   25 ar  
    44   25   40 1   
    45   26   41 1   
    46   26   42 1   
    47   26   43 1   
@<TRIPOS>SUBSTRUCTURE
     1 CP9         1 TEMP              0 ****  ****    0 ROOT
