@<TRIPOS>MOLECULE
CP9
   43    36     1     0     0
SMALL
bcc


@<TRIPOS>ATOM
      1 S1         -3.6860   -1.9550   -1.2450 ss        1 CP9      0.350000
      2 C2         -2.4170   -1.5140   -0.4960 c2        1 CP9      0.169000
      3 N3         -1.5370   -2.6360   -0.4250 n2        1 CP9     -0.269000
      4 C4         -2.2350   -3.8640   -1.1460 c1        1 CP9      0.055000
      5 C5         -3.5080   -3.4400   -1.6250 c1        1 CP9     -0.312000
      6 C6         -4.3320   -4.3380   -2.2950 c1        1 CP9     -0.063000
      7 C7         -3.9110   -5.6570   -2.4970 c1        1 CP9     -0.121500
      8 C8         -2.6520   -6.0760   -2.0230 c1        1 CP9     -0.121500
      9 C9         -1.8200   -5.1740   -1.3480 c1        1 CP9     -0.144000
     10 C10        -0.2480   -2.6510    0.1960 c2        1 CP9      0.026000
     11 C11         0.2530   -1.2260    0.3590 c2        1 CP9     -0.115000
     12 C12         0.3470   -0.6640    1.6260 c2        1 CP9     -0.094000
     13 C13         0.8710    0.6110    1.7820 c1        1 CP9     -0.142000
     14 C14         1.3010    1.3260    0.6720 c1        1 CP9      0.068000
     15 C15         1.2070    0.7650   -0.5920 c1        1 CP9     -0.145000
     16 C16         0.6830   -0.5120   -0.7480 c1        1 CP9     -0.100000
     17 N17         1.7450    2.5940    0.8160 n2        1 CP9     -0.138000
     18 C18         3.0590    2.6850    1.1210 c1        1 CP9      0.035000
     19 N19         3.3700    3.9950    1.2480 n2        1 CP9     -0.138000
     20 C20         2.2410    4.7190    1.0200 c1        1 CP9     -0.060000
     21 C21         1.2390    3.8550    0.7540 c1        1 CP9     -0.060000
     22 C22        -0.0360    4.3330    0.4980 c1        1 CP9     -0.092000
     23 C23        -0.2810    5.6990    0.5150 c1        1 CP9     -0.065000
     24 N24         0.7340    6.5730    0.7840 n1        1 CP9     -0.155000
     25 C25         1.9890    6.1040    1.0370 c1        1 CP9     -0.092000
     26 C26         4.4910    2.3560    1.4850 c2        1 CP9     -0.162000
     27 O27        -2.2040   -0.4080   -0.0380 o         1 CP9     -0.313000
     28 H6         -5.2050   -4.0480   -2.6240 ha        1 CP9      0.146000
     29 H7         -4.4920   -6.2880   -2.9680 ha        1 CP9      0.139500
     30 H8         -2.3590   -6.9970   -2.1650 ha        1 CP9      0.139500
     31 H9         -0.9480   -5.4650   -1.0200 ha        1 CP9      0.140000
     32 H101        0.3750   -3.1530   -0.3620 ha        1 CP9      0.115500
     33 H102       -0.3150   -3.0770    1.0750 ha        1 CP9      0.115500
     34 H12         0.0450   -1.1670    2.4070 ha        1 CP9      0.163000
     35 H13         0.9370    1.0050    2.6700 ha        1 CP9      0.149000
     36 H15         1.5090    1.2670   -1.3710 ha        1 CP9      0.150000
     37 H16         0.6160   -0.9070   -1.6390 ha        1 CP9      0.136000
     38 H22        -0.7610    3.7100    0.3050 ha        1 CP9      0.162000
     39 H23        -1.1790    6.0360    0.3340 ha        1 CP9      0.159000
     40 H25         2.7140    6.7300    1.2300 ha        1 CP9      0.162000
     41 H261        4.6720    2.6530    2.3990 ha        1 CP9      0.107333
     42 H262        4.6300    1.3890    1.4220 ha        1 CP9      0.107333
     43 H263        5.0970    2.8130    0.8690 ha        1 CP9      0.107333
@<TRIPOS>BOND
     1    1    2 1   
     2    1    5 1   
     3    2    3 1   
     4    2   27 1   
     5    3    4 1   
     6    4    9 1   
     7    5    6 1   
     8    6   28 1   
     9    7    8 1   
    10    7   29 1   
    11    8   30 1   
    12    9   31 1   
    13   10   11 1   
    14   10   32 1   
    15   10   33 1   
    16   11   12 1   
    17   11   16 1   
    18   12   13 1   
    19   12   34 1   
    20   13   35 1   
    21   14   15 1   
    22   15   36 1   
    23   16   37 1   
    24   17   18 1   
    25   17   21 1   
    26   18   19 1   
    27   19   20 1   
    28   20   25 1   
    29   21   22 1   
    30   22   38 1   
    31   23   24 1   
    32   23   39 1   
    33   25   40 1   
    34   26   41 1   
    35   26   42 1   
    36   26   43 1   
@<TRIPOS>SUBSTRUCTURE
     1 CP9         1 TEMP              0 ****  ****    0 ROOT
