@<TRIPOS>MOLECULE
CPA
   62    66     1     0     0
SMALL
bcc


@<TRIPOS>ATOM
      1 P          -2.1310   -0.2070    0.3050 p5        1 CPA      1.439800
      2 O1P        -0.6820   -0.5120    0.4590 o         1 CPA     -0.825000
      3 O2P        -3.0440    0.1540    1.3880 o         1 CPA     -0.825000
      4 O5D        -0.0850    4.6730    0.6890 oh        1 CPA     -0.616800
      5 C5X        -1.2140    3.8320    0.5430 c3        1 CPA      0.118400
      6 C4X        -1.3410    3.2700   -0.8720 c3        1 CPA      0.055100
      7 O4D        -0.3700    3.9350   -1.7200 os        1 CPA     -0.423600
      8 C3X        -1.0600    1.7510   -1.0030 c3        1 CPA      0.178100
      9 O3D        -2.1950    0.9830   -0.8620 os        1 CPA     -0.542200
     10 C2X        -0.4770    1.6640   -2.4270 c3        1 CPA     -0.149400
     11 C1X         0.3260    2.9790   -2.5240 c3        1 CPA      0.294500
     12 N1C         1.7150    2.7840   -2.0340 n         1 CPA     -0.353000
     13 CC2         2.6720    2.2480   -2.9700 c         1 CPA      0.827900
     14 N3C         3.7970    1.5320   -2.4760 nc        1 CPA     -0.660100
     15 CC4         3.9520    1.4570   -1.1640 cd        1 CPA      0.648500
     16 CC5         3.1390    2.1420   -0.2030 cd        1 CPA     -0.439600
     17 CC6         1.9950    2.7510   -0.7010 cc        1 CPA      0.117600
     18 O2C         2.5060    2.4140   -4.1890 o         1 CPA     -0.563500
     19 N4C         5.0170    0.5690   -0.6460 nz        1 CPA     -0.832600
     20 O5B        -2.7300   -1.4670   -0.5610 os        1 CPA     -0.562200
     21 C5B        -1.8670   -2.1100   -1.4470 c3        1 CPA      0.182400
     22 C4B        -1.5760   -3.5420   -0.9730 c3        1 CPA      0.073100
     23 O4B        -0.4400   -4.0440   -1.7010 os        1 CPA     -0.412600
     24 C3B        -1.2580   -3.6470    0.5330 c3        1 CPA      0.118100
     25 O3B        -2.1940   -4.4720    1.2000 oh        1 CPA     -0.599800
     26 C2B         0.1120   -4.3210    0.6220 c3        1 CPA     -0.111400
     27 C1B         0.6520   -4.3290   -0.8230 c3        1 CPA      0.250800
     28 N9A         1.7460   -3.3900   -1.0450 na        1 CPA     -0.273000
     29 C8A         1.7940   -2.0120   -0.7410 cc        1 CPA      0.480700
     30 N7A         2.8950   -1.3940   -1.2130 nd        1 CPA     -0.666100
     31 C5A         3.6140   -2.3830   -1.9000 ca        1 CPA     -0.167200
     32 C6A         4.8170   -2.3800   -2.6540 ca        1 CPA      0.616200
     33 N6A         5.5160   -1.1450   -2.8420 nv        1 CPA     -0.923500
     34 N1A         5.2920   -3.5460   -3.1740 nb        1 CPA     -0.739000
     35 C2A         4.5570   -4.6760   -2.9710 ca        1 CPA      0.653900
     36 N3A         3.3750   -4.8260   -2.3280 nb        1 CPA     -0.670000
     37 C4A         2.9000   -3.6660   -1.7980 ca        1 CPA      0.443800
     38 HO5C       -0.1670    5.3830    0.0400 ho        1 CPA      0.415000
     39 H51C       -1.0600    3.0140    1.2970 h1        1 CPA      0.070200
     40 H52C       -2.1480    4.3980    0.8040 h1        1 CPA      0.070200
     41 H3D        -0.2700    1.4500   -0.2520 h1        1 CPA      0.066700
     42 H21C        0.1340    0.7450   -2.5740 hc        1 CPA      0.087700
     43 H22C       -1.2980    1.6730   -3.1850 hc        1 CPA      0.087700
     44 H1D         0.4010    3.4190   -3.5590 h2        1 CPA      0.127700
     45 H5C         3.3500    2.1430    0.8700 ha        1 CPA      0.175000
     46 H6C         1.2570    3.2370   -0.0160 h4        1 CPA      0.231000
     47 H41C        5.8160    1.1290   -0.3570 hn        1 CPA      0.476467
     48 H42C        4.6310    0.0630    0.1570 hn        1 CPA      0.476467
     49 H51A       -2.3760   -2.1680   -2.4500 h1        1 CPA      0.039700
     50 H52A       -0.9020   -1.5400   -1.5500 h1        1 CPA      0.039700
     51 H4B        -2.4300   -4.2210   -1.2430 h1        1 CPA      0.085700
     52 H3B        -1.2380   -2.6160    0.9940 h1        1 CPA      0.091700
     53 HO3A       -3.0170   -3.9670    1.2500 ho        1 CPA      0.425000
     54 H21A        0.0020   -5.3780    0.9760 hc        1 CPA      0.081700
     55 H22A        0.7750   -3.7770    1.3350 hc        1 CPA      0.081700
     56 H1B         1.0270   -5.3500   -1.1340 h2        1 CPA      0.111700
     57 H8A         0.9770   -1.5150   -0.1580 h5        1 CPA      0.169800
     58 H61A        6.4520   -1.2910   -3.1750 hn        1 CPA      0.404800
     59 H62A        5.0070   -0.5810   -3.5060 hn        1 CPA      0.404800
     60 H2A         4.9850   -5.6030   -3.4130 h5        1 CPA      0.065100
     61 H4C3        5.3110   -0.1430   -1.3910 hn        1 CPA      0.476467
     62 H4D        -2.3520    3.5070   -1.3000 h1        1 CPA      0.093700
@<TRIPOS>BOND
     1    1    2 1   
     2    1    3 1   
     3    1    9 1   
     4    1   20 1   
     5    4    5 1   
     6    4   38 1   
     7    5    6 1   
     8    5   39 1   
     9    5   40 1   
    10    6    7 1   
    11    6    8 1   
    12    6   62 1   
    13    7   11 1   
    14    8    9 1   
    15    8   10 1   
    16    8   41 1   
    17   10   11 1   
    18   10   42 1   
    19   10   43 1   
    20   11   12 1   
    21   11   44 1   
    22   12   13 1   
    23   12   17 1   
    24   13   14 1   
    25   13   18 2   
    26   14   15 2   
    27   15   16 1   
    28   15   19 1   
    29   16   17 2   
    30   16   45 1   
    31   17   46 1   
    32   19   47 1   
    33   19   48 1   
    34   19   61 1   
    35   20   21 1   
    36   21   22 1   
    37   21   49 1   
    38   21   50 1   
    39   22   23 1   
    40   22   24 1   
    41   22   51 1   
    42   23   27 1   
    43   24   25 1   
    44   24   26 1   
    45   24   52 1   
    46   25   53 1   
    47   26   27 1   
    48   26   54 1   
    49   26   55 1   
    50   27   28 1   
    51   27   56 1   
    52   28   29 1   
    53   28   37 1   
    54   29   30 2   
    55   29   57 1   
    56   30   31 1   
    57   31   32 ar  
    58   31   37 ar  
    59   32   33 1   
    60   32   34 ar  
    61   33   58 1   
    62   33   59 1   
    63   34   35 ar  
    64   35   36 ar  
    65   35   60 1   
    66   36   37 ar  
@<TRIPOS>SUBSTRUCTURE
     1 CPA         1 TEMP              0 ****  ****    0 ROOT
