@<TRIPOS>MOLECULE
CPA
   61    65     1     0     0
SMALL
bcc


@<TRIPOS>ATOM
      1 P          -1.6490   -1.7730   -0.0200 p5        1 CPA      1.433800
      2 O1P        -2.4260   -2.6570    0.8620 o         1 CPA     -0.822500
      3 O2P        -0.9180   -2.1530   -1.2490 o         1 CPA     -0.822500
      4 O5D        -2.8650    1.6370    4.0570 oh        1 CPA     -0.604800
      5 C5X        -2.1970    0.3990    3.9040 c3        1 CPA      0.104400
      6 C4X        -1.1110    0.4630    2.8320 c3        1 CPA      0.088100
      7 O4D         0.0790    1.0540    3.3810 os        1 CPA     -0.421600
      8 C3X        -0.7430   -0.9390    2.2850 c3        1 CPA      0.174100
      9 O3D        -0.6070   -0.8860    0.8990 os        1 CPA     -0.576200
     10 C2X         0.6190   -1.2550    2.9250 c3        1 CPA     -0.122400
     11 C1X         1.1480    0.1000    3.4280 c3        1 CPA      0.305500
     12 N1C         1.7590    0.1000    4.7620 n         1 CPA     -0.375000
     13 CC2         1.1140   -0.4660    5.9260 c         1 CPA      0.835900
     14 N3C         1.7320   -0.3850    7.1890 nc        1 CPA     -0.722100
     15 CC4         2.8810    0.2920    7.3110 cd        1 CPA      0.731500
     16 CC5         3.5350    0.9160    6.1660 cd        1 CPA     -0.444600
     17 CC6         2.9200    0.8080    4.9450 cc        1 CPA      0.078600
     18 O2C         0.0230   -1.0510    5.7880 o         1 CPA     -0.607500
     19 N4C         3.4550    0.4660    8.5680 nh        1 CPA     -0.905800
     20 O5B        -2.6300   -0.5240   -0.4810 os        1 CPA     -0.579200
     21 C5B        -2.1010    0.3680   -1.4130 c3        1 CPA      0.178400
     22 C4B        -2.8930    0.3030   -2.7270 c3        1 CPA      0.077100
     23 O4B        -2.1850    1.0440   -3.7330 os        1 CPA     -0.419600
     24 C3B        -3.0910   -1.1360   -3.2480 c3        1 CPA      0.105100
     25 O3B        -4.4670   -1.4520   -3.3740 oh        1 CPA     -0.610800
     26 C2B        -2.4670   -1.1590   -4.6440 c3        1 CPA     -0.108400
     27 C1B        -1.6910    0.1710   -4.7600 c3        1 CPA      0.254800
     28 N9A        -0.2530    0.0180   -4.6760 na        1 CPA     -0.286000
     29 C8A         0.5060   -0.7330   -3.7360 cc        1 CPA      0.442700
     30 N7A         1.8300   -0.5830   -3.8820 nd        1 CPA     -0.574100
     31 C5A         1.9890    0.3210   -4.9440 ca        1 CPA     -0.210200
     32 C6A         3.1420    0.8820   -5.5770 ca        1 CPA      0.718200
     33 N6A         4.4100    0.4670   -5.2000 nh        1 CPA     -0.938500
     34 N1A         2.9690    1.7850   -6.5970 nb        1 CPA     -0.797000
     35 C2A         1.6900    2.0640   -6.9730 ca        1 CPA      0.658900
     36 N3A         0.5160    1.6030   -6.4870 nb        1 CPA     -0.725000
     37 C4A         0.6800    0.7250   -5.4510 ca        1 CPA      0.445800
     38 HO5C       -3.2240    1.8740    3.1940 ho        1 CPA      0.392000
     39 H51C       -2.9400   -0.4010    3.6390 h1        1 CPA      0.072200
     40 H52C       -1.7460    0.1860    4.9120 h1        1 CPA      0.072200
     41 H3D        -1.5150   -1.7100    2.5730 h1        1 CPA      0.105700
     42 H21C        1.3230   -1.6750    2.1660 hc        1 CPA      0.078700
     43 H22C        0.4850   -1.9950    3.7510 hc        1 CPA      0.078700
     44 H1D         1.9330    0.4950    2.7090 h2        1 CPA      0.061700
     45 H5C         4.4680    1.4760    6.2820 ha        1 CPA      0.147000
     46 H6C         3.3620    1.2880    4.0490 h4        1 CPA      0.155000
     47 H41C        3.1030   -0.0820    9.3180 hn        1 CPA      0.415300
     48 H42C        4.4330    0.6330    8.5710 hn        1 CPA      0.415300
     49 H51A       -2.1920    1.4110   -0.9990 h1        1 CPA      0.040700
     50 H52A       -1.0160    0.1400   -1.6110 h1        1 CPA      0.040700
     51 H4B        -3.8830    0.8220   -2.6110 h1        1 CPA      0.069700
     52 H3B        -2.5770   -1.8690   -2.5570 h1        1 CPA      0.111700
     53 HO3A       -4.7990   -1.5580   -2.4730 ho        1 CPA      0.416000
     54 H21A       -3.2640   -1.1870   -5.4280 hc        1 CPA      0.075200
     55 H22A       -1.8140   -2.0550   -4.7680 hc        1 CPA      0.075200
     56 H1B        -1.9160    0.7110   -5.7280 h2        1 CPA      0.100700
     57 H8A         0.0150   -1.3780   -2.9690 h5        1 CPA      0.157800
     58 H61A        5.1790    1.0360   -5.4640 hn        1 CPA      0.422300
     59 H62A        4.4700    0.0210   -4.3150 hn        1 CPA      0.422300
     60 H2A         1.6040    2.7900   -7.8090 h5        1 CPA      0.037100
     61 H4D        -1.4140    1.1530    1.9960 h1        1 CPA      0.079700
@<TRIPOS>BOND
     1    1    2 1   
     2    1    3 1   
     3    1    9 1   
     4    1   20 1   
     5    4    5 1   
     6    4   38 1   
     7    5    6 1   
     8    5   39 1   
     9    5   40 1   
    10    6    7 1   
    11    6    8 1   
    12    6   61 1   
    13    7   11 1   
    14    8    9 1   
    15    8   10 1   
    16    8   41 1   
    17   10   11 1   
    18   10   42 1   
    19   10   43 1   
    20   11   12 1   
    21   11   44 1   
    22   12   13 1   
    23   12   17 1   
    24   13   14 1   
    25   13   18 2   
    26   14   15 2   
    27   15   16 1   
    28   15   19 1   
    29   16   17 2   
    30   16   45 1   
    31   17   46 1   
    32   19   47 1   
    33   19   48 1   
    34   20   21 1   
    35   21   22 1   
    36   21   49 1   
    37   21   50 1   
    38   22   23 1   
    39   22   24 1   
    40   22   51 1   
    41   23   27 1   
    42   24   25 1   
    43   24   26 1   
    44   24   52 1   
    45   25   53 1   
    46   26   27 1   
    47   26   54 1   
    48   26   55 1   
    49   27   28 1   
    50   27   56 1   
    51   28   29 1   
    52   28   37 1   
    53   29   30 2   
    54   29   57 1   
    55   30   31 1   
    56   31   32 ar  
    57   31   37 ar  
    58   32   33 1   
    59   32   34 ar  
    60   33   58 1   
    61   33   59 1   
    62   34   35 ar  
    63   35   36 ar  
    64   35   60 1   
    65   36   37 ar  
@<TRIPOS>SUBSTRUCTURE
     1 CPA         1 TEMP              0 ****  ****    0 ROOT
