@<TRIPOS>MOLECULE
CPA
   63    67     1     0     0
SMALL
bcc


@<TRIPOS>ATOM
      1 P          -1.3330    0.6310    1.8930 p5        1 CPA      1.457800
      2 O1P        -0.7050   -0.0490    3.0350 o         1 CPA     -0.823000
      3 O2P        -2.4140    1.6370    1.9240 o         1 CPA     -0.823000
      4 O5D         1.7380   -3.1760   -0.8490 oh        1 CPA     -0.618800
      5 C5X         1.0840   -2.0910   -0.2160 c3        1 CPA      0.110400
      6 C4X        -0.4350   -2.1990   -0.3180 c3        1 CPA      0.056100
      7 O4D        -0.7880   -3.5700   -0.6160 os        1 CPA     -0.421600
      8 C3X        -1.1660   -1.7920    0.9850 c3        1 CPA      0.176100
      9 O3D        -1.7840   -0.5620    0.8330 os        1 CPA     -0.544200
     10 C2X        -2.2120   -2.9040    1.1830 c3        1 CPA     -0.136400
     11 C1X        -1.6730   -4.0910    0.3680 c3        1 CPA      0.298500
     12 N1C        -0.9600   -5.0970    1.2060 n         1 CPA     -0.343000
     13 CC2        -1.7660   -5.9200    2.0790 c         1 CPA      0.824900
     14 N3C        -1.1150   -6.8210    2.9660 nc        1 CPA     -0.653100
     15 CC4         0.2060   -6.8800    2.9210 cd        1 CPA      0.605500
     16 CC5         1.0430   -6.1320    2.0440 cd        1 CPA     -0.458600
     17 CC6         0.3860   -5.2320    1.2000 cc        1 CPA      0.130600
     18 O2C        -3.0010   -5.8400    2.0380 o         1 CPA     -0.529500
     19 N4C         0.8700   -7.8070    3.8790 n4        1 CPA     -0.802600
     20 O5B        -0.1310    1.2670    0.9550 os        1 CPA     -0.577200
     21 C5B        -0.1240    2.6410    0.7480 c3        1 CPA      0.179400
     22 C4B        -0.3090    2.9580   -0.7420 c3        1 CPA      0.068100
     23 O4B        -1.7100    2.9740   -1.0840 os        1 CPA     -0.384600
     24 C3B         0.2800    4.3290   -1.1280 c3        1 CPA      0.120100
     25 O3B         1.1970    4.2200   -2.2030 oh        1 CPA     -0.589800
     26 C2B        -0.9000    5.1690   -1.6270 c3        1 CPA     -0.114400
     27 C1B        -2.1460    4.2800   -1.4310 c3        1 CPA      0.256800
     28 N9A        -3.0840    4.7730   -0.4150 na        1 CPA     -0.283000
     29 C8A        -3.6450    4.0670    0.6720 cc        1 CPA      0.551700
     30 N7A        -4.5720    4.7760    1.3580 nd        1 CPA     -0.621100
     31 C5A        -4.6450    6.0030    0.7090 ca        1 CPA     -0.111200
     32 C6A        -5.3930    7.1710    0.9050 ca        1 CPA      0.476200
     33 N6A        -6.3370    7.2040    2.0360 n4        1 CPA     -0.808300
     34 N1A        -5.2750    8.2570    0.0910 nb        1 CPA     -0.687000
     35 C2A        -4.3850    8.1500   -0.9300 ca        1 CPA      0.649900
     36 N3A        -3.5790    7.1010   -1.2600 nb        1 CPA     -0.631000
     37 C4A        -3.7020    6.0310   -0.4450 ca        1 CPA      0.440800
     38 HO5C        1.3850   -3.2450   -1.7450 ho        1 CPA      0.416000
     39 H51C        1.4130   -1.1180   -0.6710 h1        1 CPA      0.068700
     40 H52C        1.4390   -2.1320    0.8490 h1        1 CPA      0.068700
     41 H3D        -0.4470   -1.7730    1.8580 h1        1 CPA      0.096700
     42 H21C       -2.3670   -3.1370    2.2620 hc        1 CPA      0.094700
     43 H22C       -3.1950   -2.5860    0.7500 hc        1 CPA      0.094700
     44 H1D        -2.4760   -4.6640   -0.1830 h2        1 CPA      0.119700
     45 H5C         2.1330   -6.2230    2.0140 ha        1 CPA      0.180000
     46 H6C         0.9670   -4.5940    0.4840 h4        1 CPA      0.245000
     47 H41C        1.4590   -7.2510    4.5080 hn        1 CPA      0.473467
     48 H42C        1.4540   -8.4610    3.3470 hn        1 CPA      0.473467
     49 H51A        0.8880    3.0300    1.0620 h1        1 CPA      0.043700
     50 H52A       -0.9320    3.1440    1.3490 h1        1 CPA      0.043700
     51 H4B         0.1220    2.1280   -1.3670 h1        1 CPA      0.100700
     52 H3B         0.7850    4.8170   -0.2510 h1        1 CPA      0.058700
     53 HO3A        1.9420    3.6940   -1.8850 ho        1 CPA      0.414000
     54 H21A       -0.9560    6.1380   -1.0770 hc        1 CPA      0.090200
     55 H22A       -0.7790    5.3940   -2.7180 hc        1 CPA      0.090200
     56 H1B        -2.7430    4.1680   -2.3870 h2        1 CPA      0.100700
     57 H8A        -3.3230    3.0170    0.9320 h5        1 CPA      0.207800
     58 H61A       -7.0650    6.4980    1.8690 hn        1 CPA      0.472133
     59 H62A       -5.8230    6.9560    2.8910 hn        1 CPA      0.472133
     60 H2A        -4.3050    9.0460   -1.5870 h5        1 CPA      0.087100
     61 H4C3        0.1790   -8.3320    4.4320 hn        1 CPA      0.473467
     62 H6A3       -6.7660    8.1300    2.1390 hn        1 CPA      0.472133
     63 H4D        -0.8230   -1.6000   -1.1870 h1        1 CPA      0.100700
@<TRIPOS>BOND
     1    1    2 1   
     2    1    3 1   
     3    1    9 1   
     4    1   20 1   
     5    4    5 1   
     6    4   38 1   
     7    5    6 1   
     8    5   39 1   
     9    5   40 1   
    10    6    7 1   
    11    6    8 1   
    12    6   63 1   
    13    7   11 1   
    14    8    9 1   
    15    8   10 1   
    16    8   41 1   
    17   10   11 1   
    18   10   42 1   
    19   10   43 1   
    20   11   12 1   
    21   11   44 1   
    22   12   13 1   
    23   12   17 1   
    24   13   14 1   
    25   13   18 2   
    26   14   15 2   
    27   15   16 1   
    28   15   19 1   
    29   16   17 2   
    30   16   45 1   
    31   17   46 1   
    32   19   47 1   
    33   19   48 1   
    34   19   61 1   
    35   20   21 1   
    36   21   22 1   
    37   21   49 1   
    38   21   50 1   
    39   22   23 1   
    40   22   24 1   
    41   22   51 1   
    42   23   27 1   
    43   24   25 1   
    44   24   26 1   
    45   24   52 1   
    46   25   53 1   
    47   26   27 1   
    48   26   54 1   
    49   26   55 1   
    50   27   28 1   
    51   27   56 1   
    52   28   29 1   
    53   28   37 1   
    54   29   30 2   
    55   29   57 1   
    56   30   31 1   
    57   31   32 ar  
    58   31   37 ar  
    59   32   33 1   
    60   32   34 ar  
    61   33   58 1   
    62   33   59 1   
    63   33   62 1   
    64   34   35 ar  
    65   35   36 ar  
    66   35   60 1   
    67   36   37 ar  
@<TRIPOS>SUBSTRUCTURE
     1 CPA         1 TEMP              0 ****  ****    0 ROOT
