@<TRIPOS>MOLECULE
CPA
   61    59     1     0     0
SMALL
bcc


@<TRIPOS>ATOM
      1 P          -1.2230    0.3400    0.6920 p3        1 CPA      2.542000
      2 O1P         0.3330    0.3240    0.9900 o         1 CPA     -1.154000
      3 O2P        -1.9950    0.3760    2.0090 os        1 CPA     -1.128000
      4 O5D        -3.8060    5.5590    0.3110 oh        1 CPA     -0.342000
      5 C5X        -2.7830    4.7430    0.8210 c3        1 CPA     -0.033000
      6 C4X        -2.0500    4.1880   -0.2400 c3        1 CPA     -0.043000
      7 O4D        -1.1630    5.1850   -0.8160 os        1 CPA     -0.295000
      8 C3X        -1.0860    3.0060    0.3010 c3        1 CPA      0.062000
      9 O3D        -1.5910    1.6500   -0.1800 os        1 CPA     -0.729000
     10 C2X        -0.0160    3.2410   -0.1750 c3        1 CPA     -0.218000
     11 C1X         0.0290    4.8410   -0.4180 c3        1 CPA      0.142000
     12 N1C         0.3480    5.5070    0.7880 n         1 CPA     -0.282000
     13 CC2         1.4470    4.9860    1.6620 c2        1 CPA      0.353000
     14 N3C         2.0210    5.8330    2.6920 n2        1 CPA     -0.307000
     15 CC4         1.4980    7.1230    2.9130 c1        1 CPA      0.211000
     16 CC5         0.3590    7.6040    2.1060 c1        1 CPA     -0.356000
     17 CC6        -0.2390    6.7220    1.0740 c2        1 CPA      0.080000
     18 O2C         1.8810    3.9170    1.4790 o         1 CPA     -0.360000
     19 N4C         2.0250    7.9460    3.9790 n3        1 CPA     -0.347000
     20 O5B        -1.6310   -0.9960   -0.1370 os        1 CPA     -0.732000
     21 C5B        -1.4440   -2.2860    0.4880 c3        1 CPA      0.038000
     22 C4B        -2.1270   -3.3280   -0.3100 c3        1 CPA     -0.044000
     23 O4B        -1.3110   -3.6150   -1.6550 os        1 CPA     -0.277000
     24 C3B        -2.1240   -4.4230    0.3180 c3        1 CPA      0.033000
     25 O3B        -3.2970   -5.1840   -0.0200 oh        1 CPA     -0.353000
     26 C2B        -0.7590   -5.2320   -0.1690 c3        1 CPA     -0.205000
     27 C1B        -0.6240   -4.9840   -1.4340 c3        1 CPA      0.165000
     28 N9A         0.7830   -4.9080   -1.7800 n3        1 CPA     -0.190000
     29 C8A         1.3530   -3.8060   -2.3250 c1        1 CPA     -0.022000
     30 N7A         2.5710   -4.1530   -2.7870 n2        1 CPA     -0.139000
     31 C5A         2.7600   -5.4770   -2.5280 c1        1 CPA     -0.228000
     32 C6A         3.8560   -6.2970   -2.6860 c1        1 CPA      0.215000
     33 N6A         5.1840   -6.0990   -3.1900 n3        1 CPA     -0.346000
     34 N1A         3.8250   -7.5650   -2.2180 n1        1 CPA     -0.274000
     35 C2A         2.7080   -8.0340   -1.5880 c1        1 CPA      0.006000
     36 N3A         1.6250   -7.2260   -1.4320 n1        1 CPA     -0.201000
     37 C4A         1.6550   -5.9410   -1.9060 c1        1 CPA      0.056000
     38 HO5C       -4.3560    5.7950    0.9770 ho        1 CPA      0.208000
     39 H51C       -3.1770    4.0230    1.3530 h1        1 CPA      0.097500
     40 H52C       -2.1570    5.3080    1.4150 h1        1 CPA      0.097500
     41 H4D        -2.6530    3.8430   -0.9190 h1        1 CPA      0.120000
     42 H3D        -1.0350    3.0270    1.3050 h1        1 CPA      0.131000
     43 H21C        0.0820    2.7720   -1.0230 hc        1 CPA      0.117500
     44 H22C        0.7390    2.9540    0.4810 hc        1 CPA      0.117500
     45 H1D         0.6620    5.0490   -1.0790 h2        1 CPA      0.160000
     46 H5C        -0.0660    8.4910    2.3170 ha        1 CPA      0.155000
     47 H6C        -0.9760    7.0290    0.5520 h4        1 CPA      0.195000
     48 H41C        2.6340    7.5830    4.5920 hn        1 CPA      0.213000
     49 H42C        1.6870    8.8190    4.1100 hn        1 CPA      0.213000
     50 H51A       -0.4620   -2.4940    0.5370 h1        1 CPA      0.071000
     51 H52A       -1.8400   -2.2720    1.4340 h1        1 CPA      0.071000
     52 H4B        -3.0840   -3.0450   -0.5250 h1        1 CPA      0.134000
     53 H3B        -2.0950   -4.2500    1.3240 h1        1 CPA      0.121000
     54 HO3A       -3.7310   -5.4030    0.7220 ho        1 CPA      0.263000
     55 H21A       -0.8730   -6.2260   -0.0230 hc        1 CPA      0.113000
     56 H22A       -0.0090   -4.9190    0.3040 hc        1 CPA      0.113000
     57 H1B        -1.0840   -5.6980   -1.9800 h2        1 CPA      0.136000
     58 H8A         0.9270   -2.9660   -2.4540 DU        1 CPA      0.219000
     59 H61A        5.7220   -6.8000   -3.3120 hn        1 CPA      0.227000
     60 H62A        5.4650   -5.2140   -3.4840 hn        1 CPA      0.227000
     61 H2A         2.6870   -8.9420   -1.2530 ha        1 CPA      0.179000
@<TRIPOS>BOND
     1    1    2 1   
     2    1    9 1   
     3    1   20 1   
     4    4    5 1   
     5    4   38 1   
     6    5    6 1   
     7    5   39 1   
     8    5   40 1   
     9    6    7 1   
    10    6    8 1   
    11    6   41 1   
    12    7   11 1   
    13    8    9 1   
    14    8   10 1   
    15    8   42 1   
    16   10   11 1   
    17   10   43 1   
    18   10   44 1   
    19   11   12 1   
    20   11   45 1   
    21   12   13 1   
    22   12   17 1   
    23   13   14 1   
    24   13   18 1   
    25   14   15 1   
    26   15   19 1   
    27   16   17 1   
    28   16   46 1   
    29   17   47 1   
    30   19   48 1   
    31   19   49 1   
    32   20   21 1   
    33   21   22 1   
    34   21   50 1   
    35   21   51 1   
    36   22   23 1   
    37   22   24 1   
    38   22   52 1   
    39   23   27 1   
    40   24   25 1   
    41   24   26 1   
    42   24   53 1   
    43   25   54 1   
    44   26   27 1   
    45   26   55 1   
    46   26   56 1   
    47   27   28 1   
    48   27   57 1   
    49   28   29 1   
    50   28   37 1   
    51   29   30 1   
    52   30   31 1   
    53   31   37 1   
    54   32   33 1   
    55   32   34 1   
    56   33   59 1   
    57   33   60 1   
    58   35   36 1   
    59   35   61 1   
@<TRIPOS>SUBSTRUCTURE
     1 CPA         1 TEMP              0 ****  ****    0 ROOT
