@<TRIPOS>MOLECULE
CPB
   48    51     1     0     0
SMALL
bcc


@<TRIPOS>ATOM
      1 C1          5.4570    0.5960   -1.2850 c3        1 CPB      0.159100
      2 N1          4.0300    0.3840   -1.2000 n3        1 CPB     -0.738600
      3 C16         3.2720    1.6010   -1.4600 c3        1 CPB      0.165800
      4 C15         1.7630    1.4060   -1.3280 c3        1 CPB     -0.079400
      5 C14         1.2970    0.2610   -2.2150 c3        1 CPB     -0.031400
      6 C13         2.0760   -1.0230   -1.8910 c3        1 CPB      0.156100
      7 C12         3.5890   -0.7450   -2.0050 c3        1 CPB      0.130800
      8 C8         -0.1820    0.0710   -2.1920 ca        1 CPB     -0.165300
      9 C9         -0.9450   -0.1220   -1.0230 ca        1 CPB      0.231100
     10 O1         -0.2150   -0.1360    0.1550 os        1 CPB     -0.212200
     11 C2         -0.8950   -0.3420    1.3450 cc        1 CPB      0.193900
     12 C3         -2.2320   -0.4980    1.4230 cd        1 CPB     -0.296200
     13 C4         -3.0700   -0.4690    0.2280 c         1 CPB      0.606900
     14 O4         -4.3060   -0.6010    0.2970 o         1 CPB     -0.588100
     15 C10        -2.3500   -0.2820   -1.0320 ca        1 CPB     -0.333600
     16 C5         -3.0100   -0.2570   -2.2830 ca        1 CPB      0.267100
     17 O5         -4.3530   -0.3960   -2.4580 oh        1 CPB     -0.498100
     18 C6         -2.2850   -0.0790   -3.4700 ca        1 CPB     -0.300000
     19 C7         -0.8970    0.0790   -3.4110 ca        1 CPB      0.213100
     20 O7         -0.1650    0.2530   -4.5610 oh        1 CPB     -0.493100
     21 C21         0.0370   -0.4050    2.4780 ca        1 CPB     -0.076800
     22 C22        -0.0280    0.5040    3.5450 ca        1 CPB      0.044400
     23 CL1        -1.1610    1.7690    3.5590 cl        1 CPB     -0.075400
     24 C23         0.8550    0.3840    4.6240 ca        1 CPB     -0.132000
     25 C24         1.8060   -0.6350    4.6360 ca        1 CPB     -0.102000
     26 C25         1.8830   -1.5350    3.5730 ca        1 CPB     -0.132000
     27 C26         1.0060   -1.4190    2.4970 ca        1 CPB     -0.088000
     28 O3          1.7660   -1.5850   -0.6330 oh        1 CPB     -0.600800
     29 H11         5.7450    1.4110   -0.5710 h1        1 CPB      0.032033
     30 H12         5.9820   -0.3480   -0.9840 h1        1 CPB      0.032033
     31 H13         5.8040    0.8850   -2.3150 h1        1 CPB      0.032033
     32 H161        3.6030    2.3720   -0.7070 h1        1 CPB      0.032700
     33 H162        3.4930    2.0140   -2.4890 h1        1 CPB      0.032700
     34 H151        1.4980    1.2090   -0.2570 hc        1 CPB      0.057700
     35 H152        1.2530    2.3550   -1.6350 hc        1 CPB      0.057700
     36 H141        1.5950    0.5310   -3.2740 hc        1 CPB      0.076700
     37 H131        1.7990   -1.8320   -2.6260 h1        1 CPB      0.076700
     38 H121        3.8340   -0.6050   -3.0980 h1        1 CPB      0.041200
     39 H122        4.1370   -1.6580   -1.6360 h1        1 CPB      0.041200
     40 H31        -2.7370   -0.6530    2.3880 ha        1 CPB      0.178000
     41 HO5        -4.8020   -0.5190   -1.6030 ho        1 CPB      0.470000
     42 H61        -2.8200   -0.0660   -4.4300 ha        1 CPB      0.160000
     43 HO7        -0.7780    0.2520   -5.3130 ho        1 CPB      0.431000
     44 H231        0.8000    1.0970    5.4620 ha        1 CPB      0.152000
     45 H241        2.4970   -0.7250    5.4870 ha        1 CPB      0.142000
     46 H251        2.6370   -2.3350    3.5800 ha        1 CPB      0.145000
     47 H261        1.0650   -2.1240    1.6490 ha        1 CPB      0.166000
     48 HO3         1.9290   -0.9050    0.0350 ho        1 CPB      0.415000
@<TRIPOS>BOND
     1    1    2 1   
     2    1   29 1   
     3    1   30 1   
     4    1   31 1   
     5    2    3 1   
     6    2    7 1   
     7    3    4 1   
     8    3   32 1   
     9    3   33 1   
    10    4    5 1   
    11    4   34 1   
    12    4   35 1   
    13    5    6 1   
    14    5    8 1   
    15    5   36 1   
    16    6    7 1   
    17    6   28 1   
    18    6   37 1   
    19    7   38 1   
    20    7   39 1   
    21    8    9 ar  
    22    8   19 ar  
    23    9   10 1   
    24    9   15 ar  
    25   10   11 1   
    26   11   12 2   
    27   11   21 1   
    28   12   13 1   
    29   12   40 1   
    30   13   14 2   
    31   13   15 1   
    32   15   16 ar  
    33   16   17 1   
    34   16   18 ar  
    35   17   41 1   
    36   18   19 ar  
    37   18   42 1   
    38   19   20 1   
    39   20   43 1   
    40   21   22 ar  
    41   21   27 ar  
    42   22   23 1   
    43   22   24 ar  
    44   24   25 ar  
    45   24   44 1   
    46   25   26 ar  
    47   25   45 1   
    48   26   27 ar  
    49   26   46 1   
    50   27   47 1   
    51   28   48 1   
@<TRIPOS>SUBSTRUCTURE
     1 CPB         1 TEMP              0 ****  ****    0 ROOT
