@<TRIPOS>MOLECULE
CPB
   48    51     1     0     0
SMALL
bcc


@<TRIPOS>ATOM
      1 C1         -0.1990   -0.2250    0.2870 c3        1 CPB      0.159100
      2 N1          1.2440   -0.1800    0.2220 n3        1 CPB     -0.737600
      3 C16         1.8540   -0.0320    1.5370 c3        1 CPB      0.165800
      4 C15         3.3780    0.0660    1.4810 c3        1 CPB     -0.080400
      5 C14         3.9580   -1.1230    0.7300 c3        1 CPB     -0.032400
      6 C13         3.3350   -1.2340   -0.6710 c3        1 CPB      0.157100
      7 C12         1.7980   -1.2860   -0.5430 c3        1 CPB      0.131800
      8 C8          5.4500   -1.1260    0.7080 ca        1 CPB     -0.162300
      9 C9          6.2430   -0.0490    0.2520 ca        1 CPB      0.229100
     10 O1          5.5380    1.0510   -0.2050 os        1 CPB     -0.215200
     11 C2          6.2630    2.1330   -0.6920 cc        1 CPB      0.175900
     12 C3          7.6080    2.1870   -0.7070 cd        1 CPB     -0.287200
     13 C4          8.4280    1.0790   -0.2100 c         1 CPB      0.595900
     14 O4          9.6640    1.1300   -0.2000 o         1 CPB     -0.522100
     15 C10         7.6520   -0.0740    0.2630 ca        1 CPB     -0.279600
     16 C5          8.2890   -1.2420    0.7390 ca        1 CPB      0.246100
     17 O5          9.6550   -1.2510    0.7390 oh        1 CPB     -0.446100
     18 C6          7.5440   -2.3360    1.1880 ca        1 CPB     -0.349000
     19 C7          6.1440   -2.2650    1.1660 ca        1 CPB      0.213100
     20 O7          5.3840   -3.3250    1.5990 oh        1 CPB     -0.493100
     21 C21         5.3610    3.1680   -1.2120 ca        1 CPB     -0.070800
     22 C22         5.3370    4.4690   -0.6830 ca        1 CPB      0.043400
     23 Cl1         6.3170    4.9040    0.6340 cl        1 CPB     -0.076400
     24 C23         4.4890    5.4360   -1.2340 ca        1 CPB     -0.132000
     25 C24         3.6620    5.1060   -2.3060 ca        1 CPB     -0.104000
     26 C25         3.6730    3.8140   -2.8290 ca        1 CPB     -0.132000
     27 C26         4.5150    2.8480   -2.2840 ca        1 CPB     -0.089000
     28 O3          3.7250   -0.2100   -1.5600 oh        1 CPB     -0.599800
     29 H11        -0.5670    0.7010    0.8020 h1        1 CPB      0.032033
     30 H12        -0.6080   -0.2440   -0.7570 h1        1 CPB      0.032033
     31 H13        -0.5930   -1.1210    0.8420 h1        1 CPB      0.032033
     32 H161        1.4490    0.9150    1.9920 h1        1 CPB      0.032200
     33 H162        1.5730   -0.8870    2.2210 h1        1 CPB      0.032200
     34 H151        3.6790    1.0280    0.9910 hc        1 CPB      0.058200
     35 H152        3.7720    0.0820    2.5290 hc        1 CPB      0.058200
     36 H141        3.6180   -2.0520    1.2820 hc        1 CPB      0.075700
     37 H131        3.6890   -2.1800   -1.1710 h1        1 CPB      0.075700
     38 H121        1.5220   -2.2870   -0.0990 h1        1 CPB      0.040700
     39 H122        1.3630   -1.2310   -1.5810 h1        1 CPB      0.040700
     40 H31         8.1420    3.0670   -1.0950 ha        1 CPB      0.175000
     41 HO5         9.9530   -2.1070    1.0860 ho        1 CPB      0.420000
     42 H61         8.0480   -3.2410    1.5540 ha        1 CPB      0.142000
     43 HO7         5.9840   -4.0260    1.8980 ho        1 CPB      0.427000
     44 H231        4.4740    6.4550   -0.8190 ha        1 CPB      0.151000
     45 H241        2.9970    5.8710   -2.7370 ha        1 CPB      0.141000
     46 H251        3.0150    3.5520   -3.6720 ha        1 CPB      0.144000
     47 H261        4.5260    1.8210   -2.6890 ha        1 CPB      0.165000
     48 HO3         3.5060    0.6350   -1.1440 ho        1 CPB      0.416000
@<TRIPOS>BOND
     1    1    2 1   
     2    1   29 1   
     3    1   30 1   
     4    1   31 1   
     5    2    3 1   
     6    2    7 1   
     7    3    4 1   
     8    3   32 1   
     9    3   33 1   
    10    4    5 1   
    11    4   34 1   
    12    4   35 1   
    13    5    6 1   
    14    5    8 1   
    15    5   36 1   
    16    6    7 1   
    17    6   28 1   
    18    6   37 1   
    19    7   38 1   
    20    7   39 1   
    21    8    9 ar  
    22    8   19 ar  
    23    9   10 1   
    24    9   15 ar  
    25   10   11 1   
    26   11   12 2   
    27   11   21 1   
    28   12   13 1   
    29   12   40 1   
    30   13   14 2   
    31   13   15 1   
    32   15   16 ar  
    33   16   17 1   
    34   16   18 ar  
    35   17   41 1   
    36   18   19 ar  
    37   18   42 1   
    38   19   20 1   
    39   20   43 1   
    40   21   22 ar  
    41   21   27 ar  
    42   22   23 1   
    43   22   24 ar  
    44   24   25 ar  
    45   24   44 1   
    46   25   26 ar  
    47   25   45 1   
    48   26   27 ar  
    49   26   46 1   
    50   27   47 1   
    51   28   48 1   
@<TRIPOS>SUBSTRUCTURE
     1 CPB         1 TEMP              0 ****  ****    0 ROOT
