@<TRIPOS>MOLECULE
CPB
   48    43     1     0     0
SMALL
bcc


@<TRIPOS>ATOM
      1 C1         -4.2430   -3.3850    0.8600 c3        1 CPB     -0.117000
      2 N1         -2.8480   -3.1560    0.8340 n3        1 CPB     -0.262000
      3 C16        -2.3910   -3.0220   -0.5760 c3        1 CPB     -0.071000
      4 C15        -0.9200   -2.6350   -0.6840 c3        1 CPB     -0.158000
      5 C14        -0.5800   -1.4260    0.1460 c3        1 CPB     -0.077000
      6 C13        -1.0420   -1.5640    1.5730 c3        1 CPB      0.045000
      7 C12        -2.5210   -1.9550    1.6680 c3        1 CPB     -0.105000
      8 C8          0.9870   -1.2120    0.1330 c2        1 CPB     -0.155000
      9 C9          1.5290    0.1040   -0.1230 c2        1 CPB      0.166000
     10 O1          0.6700    1.1760   -0.3850 o         1 CPB     -0.125000
     11 C2          1.1920    2.4340   -0.6790 c1        1 CPB      0.037500
     12 C3          2.5410    2.6260   -0.7140 c1        1 CPB     -0.184000
     13 C4          3.4000    1.5680   -0.4560 c1        1 CPB      0.327000
     14 O4          4.5460    1.7220   -0.5350 o         1 CPB     -0.348000
     15 C10         2.8760    0.2920   -0.1570 c1        1 CPB     -0.313000
     16 C5          3.7630   -0.8220    0.0640 c1        1 CPB      0.220000
     17 O5          5.1950   -0.6300    0.0040 oh        1 CPB     -0.251000
     18 C6          3.2320   -2.1150    0.3150 c1        1 CPB     -0.298000
     19 C7          1.8590   -2.3070    0.3490 c1        1 CPB      0.189000
     20 O7          1.3560   -3.5140    0.7120 oh        1 CPB     -0.242000
     21 C21         0.4510    3.6040   -0.8910 c1        1 CPB      0.037500
     22 C22         0.2340    4.5190    0.1910 c1        1 CPB     -0.029000
     23 CL1         0.8640    4.1410    1.8290 cl        1 CPB      0.009000
     24 C23        -0.5030    5.6720   -0.0150 c1        1 CPB     -0.131000
     25 C24        -1.0470    5.9510   -1.3050 c1        1 CPB     -0.118000
     26 C25        -0.8310    5.0450   -2.3780 c1        1 CPB     -0.118000
     27 C26        -0.0890    3.8820   -2.1710 c1        1 CPB     -0.184000
     28 O3         -0.2480   -2.5730    2.2270 oh        1 CPB     -0.322000
     29 H11        -4.4200   -4.2880    0.6360 h1        1 CPB      0.071333
     30 H12        -4.5700   -3.2070    1.7160 h1        1 CPB      0.071333
     31 H13        -4.6750   -2.8070    0.2250 h1        1 CPB      0.071333
     32 H161       -2.5230   -3.8680   -1.0290 h1        1 CPB      0.070000
     33 H162       -2.9090   -2.3660   -1.0020 h1        1 CPB      0.070000
     34 H151       -0.7140   -2.4380   -1.6440 hc        1 CPB      0.098000
     35 H152       -0.3670   -3.3920   -0.3880 hc        1 CPB      0.098000
     36 H141       -0.9960   -0.6590   -0.2430 hc        1 CPB      0.111000
     37 H131       -0.9100   -0.7110    2.0330 h1        1 CPB      0.115000
     38 H121       -2.7510   -2.1480    2.6230 h1        1 CPB      0.081000
     39 H122       -3.0850   -1.1720    1.3470 h1        1 CPB      0.081000
     40 H31         2.8750    3.4420   -0.9040 ha        1 CPB      0.161500
     41 HO5         5.5270   -1.0620   -0.7180 ho        1 CPB      0.267000
     42 H61         3.8130   -2.8420    0.4580 ha        1 CPB      0.160000
     43 HO7         1.9820   -4.0050    0.9990 ho        1 CPB      0.231000
     44 H231       -0.6550    6.3140    0.7450 ha        1 CPB      0.153000
     45 H241       -1.5960    6.8110   -1.4590 ha        1 CPB      0.143500
     46 H251       -1.2250    5.2460   -3.3110 ha        1 CPB      0.143500
     47 H261        0.0700    3.2130   -2.9640 ha        1 CPB      0.161500
     48 HO3        -0.3040   -2.4790    3.0460 ho        1 CPB      0.217000
@<TRIPOS>BOND
     1    1    2 1   
     2    1   29 1   
     3    1   30 1   
     4    1   31 1   
     5    2    3 1   
     6    2    7 1   
     7    3    4 1   
     8    3   32 1   
     9    3   33 1   
    10    4    5 1   
    11    4   34 1   
    12    4   35 1   
    13    5    6 1   
    14    5    8 1   
    15    5   36 1   
    16    6    7 1   
    17    6   28 1   
    18    6   37 1   
    19    7   38 1   
    20    7   39 1   
    21    8    9 1   
    22    8   19 1   
    23    9   10 1   
    24    9   15 1   
    25   11   12 1   
    26   12   40 1   
    27   13   14 1   
    28   13   15 1   
    29   16   17 1   
    30   16   18 1   
    31   17   41 1   
    32   18   42 1   
    33   19   20 1   
    34   20   43 1   
    35   21   27 1   
    36   22   23 1   
    37   22   24 1   
    38   24   44 1   
    39   25   26 1   
    40   25   45 1   
    41   26   46 1   
    42   27   47 1   
    43   28   48 1   
@<TRIPOS>SUBSTRUCTURE
     1 CPB         1 TEMP              0 ****  ****    0 ROOT
