@<TRIPOS>MOLECULE
CPB
   48    51     1     0     0
SMALL
bcc


@<TRIPOS>ATOM
      1 C1         -0.1900   -0.2290    0.2890 c3        1 CPB      0.159100
      2 N1          1.2530   -0.1870    0.2210 n3        1 CPB     -0.737600
      3 C16         1.8670   -0.0490    1.5350 c3        1 CPB      0.165800
      4 C15         3.3900    0.0470    1.4770 c3        1 CPB     -0.080400
      5 C14         3.9670   -1.1370    0.7160 c3        1 CPB     -0.032400
      6 C13         3.3410   -1.2370   -0.6840 c3        1 CPB      0.157100
      7 C12         1.8040   -1.2880   -0.5540 c3        1 CPB      0.131800
      8 C8          5.4590   -1.1430    0.6910 ca        1 CPB     -0.162300
      9 C9          6.2520   -0.0640    0.2410 ca        1 CPB      0.229100
     10 O1          5.5480    1.0410   -0.2070 os        1 CPB     -0.215200
     11 C2          6.2740    2.1250   -0.6870 cc        1 CPB      0.175900
     12 C3          7.6200    2.1760   -0.7060 cd        1 CPB     -0.287200
     13 C4          8.4390    1.0630   -0.2180 c         1 CPB      0.595900
     14 O4          9.6750    1.1120   -0.2110 o         1 CPB     -0.522100
     15 C10         7.6610   -0.0920    0.2480 ca        1 CPB     -0.279600
     16 C5          8.2980   -1.2640    0.7150 ca        1 CPB      0.246100
     17 O5          9.6640   -1.2750    0.7120 oh        1 CPB     -0.446100
     18 C6          7.5520   -2.3600    1.1590 ca        1 CPB     -0.349000
     19 C7          6.1520   -2.2860    1.1390 ca        1 CPB      0.213100
     20 O7          5.3920   -3.3490    1.5670 oh        1 CPB     -0.493100
     21 C21         5.3730    3.1650   -1.1980 ca        1 CPB     -0.070800
     22 C22         5.3520    4.4610   -0.6590 ca        1 CPB      0.043400
     23 CL1         6.3350    4.8860    0.6590 cl        1 CPB     -0.076400
     24 C23         4.5040    5.4340   -1.2020 ca        1 CPB     -0.132000
     25 C24         3.6750    5.1140   -2.2750 ca        1 CPB     -0.104000
     26 C25         3.6830    3.8250   -2.8080 ca        1 CPB     -0.132000
     27 C26         4.5240    2.8540   -2.2710 ca        1 CPB     -0.089000
     28 O3          3.7310   -0.2080   -1.5670 oh        1 CPB     -0.599800
     29 H11        -0.5540    0.6940    0.8110 h1        1 CPB      0.032033
     30 H12        -0.5840   -1.1290    0.8370 h1        1 CPB      0.032033
     31 H13        -0.6010   -0.2400   -0.7550 h1        1 CPB      0.032033
     32 H161        1.5860   -0.9080    2.2140 h1        1 CPB      0.032200
     33 H162        1.4640    0.8950    1.9980 h1        1 CPB      0.032200
     34 H151        3.7870    0.0540    2.5240 hc        1 CPB      0.058200
     35 H152        3.6920    1.0120    0.9930 hc        1 CPB      0.058200
     36 H141        3.6270   -2.0700    1.2620 hc        1 CPB      0.075700
     37 H131        3.6920   -2.1800   -1.1910 h1        1 CPB      0.075700
     38 H121        1.3670   -1.2250   -1.5900 h1        1 CPB      0.040700
     39 H122        1.5270   -2.2920   -0.1160 h1        1 CPB      0.040700
     40 H31         8.1530    3.0590   -1.0890 ha        1 CPB      0.175000
     41 HO5         9.9610   -2.1340    1.0520 ho        1 CPB      0.420000
     42 H61         8.0550   -3.2680    1.5160 ha        1 CPB      0.142000
     43 HO7         5.9910   -4.0520    1.8600 ho        1 CPB      0.427000
     44 H231        4.4920    6.4500   -0.7790 ha        1 CPB      0.151000
     45 H241        3.0100    5.8820   -2.6990 ha        1 CPB      0.141000
     46 H251        3.0230    3.5710   -3.6510 ha        1 CPB      0.144000
     47 H261        4.5320    1.8300   -2.6830 ha        1 CPB      0.165000
     48 HO3         3.5140    0.6350   -1.1440 ho        1 CPB      0.416000
@<TRIPOS>BOND
     1    1    2 1   
     2    1   29 1   
     3    1   30 1   
     4    1   31 1   
     5    2    3 1   
     6    2    7 1   
     7    3    4 1   
     8    3   32 1   
     9    3   33 1   
    10    4    5 1   
    11    4   34 1   
    12    4   35 1   
    13    5    6 1   
    14    5    8 1   
    15    5   36 1   
    16    6    7 1   
    17    6   28 1   
    18    6   37 1   
    19    7   38 1   
    20    7   39 1   
    21    8    9 ar  
    22    8   19 ar  
    23    9   10 1   
    24    9   15 ar  
    25   10   11 1   
    26   11   12 2   
    27   11   21 1   
    28   12   13 1   
    29   12   40 1   
    30   13   14 2   
    31   13   15 1   
    32   15   16 ar  
    33   16   17 1   
    34   16   18 ar  
    35   17   41 1   
    36   18   19 ar  
    37   18   42 1   
    38   19   20 1   
    39   20   43 1   
    40   21   22 ar  
    41   21   27 ar  
    42   22   23 1   
    43   22   24 ar  
    44   24   25 ar  
    45   24   44 1   
    46   25   26 ar  
    47   25   45 1   
    48   26   27 ar  
    49   26   46 1   
    50   27   47 1   
    51   28   48 1   
@<TRIPOS>SUBSTRUCTURE
     1 CPB         1 TEMP              0 ****  ****    0 ROOT
