@<TRIPOS>MOLECULE
CPC
   19    19     1     0     0
SMALL
bcc


@<TRIPOS>ATOM
      1 N           1.9710    1.1030   -0.2560 n3        1 CPC     -0.767200
      2 CN          3.3210    1.0560    0.2380 c3        1 CPC      0.146100
      3 CA          1.0640    0.1490    0.3250 cx        1 CPC      0.049200
      4 CB          0.9570   -1.2790   -0.2370 cx        1 CPC     -0.174700
      5 CG1        -0.1420   -0.2840   -0.4900 cx        1 CPC     -0.133400
      6 CG2         0.7240   -2.4280    0.6760 c3        1 CPC     -0.056100
      7 C           0.8160    0.2870    1.8530 c         1 CPC      0.955600
      8 O           1.8080    0.3240    2.6320 o         1 CPC     -0.833800
      9 OXT        -0.3860    0.3140    2.2390 o         1 CPC     -0.833800
     10 H           1.9760    0.9860   -1.2560 hn        1 CPC      0.314800
     11 HCN1        3.8700    1.9490   -0.1660 h1        1 CPC      0.028033
     12 HCN2        3.8860    0.1340   -0.0740 h1        1 CPC      0.028033
     13 HCN3        3.3060    1.0980    1.3620 h1        1 CPC      0.028033
     14 HB          1.6050   -1.5420   -1.0970 hc        1 CPC      0.034700
     15 HG13       -0.2890    0.0940   -1.5160 hc        1 CPC      0.062200
     16 HG12       -1.0920   -0.3820    0.0690 hc        1 CPC      0.062200
     17 HG21        0.1340   -2.1020    1.5710 hc        1 CPC      0.030033
     18 HG22        0.1620   -3.2390    0.1490 hc        1 CPC      0.030033
     19 HG23        1.6980   -2.8450    1.0310 hc        1 CPC      0.030033
@<TRIPOS>BOND
     1    1    2 1   
     2    1    3 1   
     3    1   10 1   
     4    2   11 1   
     5    2   12 1   
     6    2   13 1   
     7    3    4 1   
     8    3    5 1   
     9    3    7 1   
    10    4    5 1   
    11    4    6 1   
    12    4   14 1   
    13    5   15 1   
    14    5   16 1   
    15    6   17 1   
    16    6   18 1   
    17    6   19 1   
    18    7    8 1   
    19    7    9 1   
@<TRIPOS>SUBSTRUCTURE
     1 CPC         1 TEMP              0 ****  ****    0 ROOT
