@<TRIPOS>MOLECULE
CPF
   41    44     1     0     0
SMALL
bcc


@<TRIPOS>ATOM
      1 O2          0.2990   -0.8090    0.2600 o         1 CPF     -0.816300
      2 C3          1.1790    0.0790    0.1350 c         1 CPF      0.930800
      3 O1          1.5540    0.8700    1.0460 o         1 CPF     -0.816300
      4 C2          1.9270    0.1720   -1.1990 cc        1 CPF     -0.265400
      5 C1          3.2820    0.2200   -1.1430 cd        1 CPF      0.068000
      6 N1          4.1140    0.2320   -2.2670 na        1 CPF     -0.512800
      7 C10         3.5460    0.1430   -3.5360 ca        1 CPF      0.198600
      8 C9          4.3450    0.0790   -4.7030 ca        1 CPF     -0.219000
      9 C8          3.7780   -0.0010   -5.9790 ca        1 CPF      0.090600
     10 N2          4.5790   -0.0640   -7.1710 nh        1 CPF     -0.614000
     11 C17         5.3870    1.1350   -7.3680 c3        1 CPF      0.173800
     12 C16         6.2240    1.0660   -8.6610 c3        1 CPF      0.159800
     13 N3          6.9930   -0.1570   -8.7790 n3        1 CPF     -0.820200
     14 C15         6.2100   -1.3550   -8.5410 c3        1 CPF      0.159800
     15 C14         5.3720   -1.2850   -7.2480 c3        1 CPF      0.173800
     16 C7          2.3600   -0.0210   -6.0980 ca        1 CPF      0.072900
     17 F1          1.7540   -0.0990   -7.3090 f         1 CPF     -0.144900
     18 C6          1.5670    0.0410   -4.9440 ca        1 CPF     -0.087000
     19 C5          2.1300    0.1240   -3.6720 ca        1 CPF     -0.191600
     20 C4          1.2340    0.1970   -2.4820 c         1 CPF      0.597900
     21 O3          0.0100    0.3040   -2.6430 o         1 CPF     -0.547100
     22 C11         5.5290    0.2990   -2.1140 cx        1 CPF      0.169500
     23 C12         6.4420   -0.8990   -2.3280 cx        1 CPF     -0.138400
     24 C13         6.2530   -0.3460   -0.9490 cx        1 CPF     -0.138400
     25 H1          3.8020    0.2770   -0.1670 h4        1 CPF      0.171000
     26 H9          5.4430    0.0820   -4.6040 ha        1 CPF      0.136000
     27 H171        6.0800    1.3230   -6.4970 h1        1 CPF      0.042950
     28 H172        4.6850    2.0100   -7.4490 h1        1 CPF      0.042950
     29 H161        5.5300    1.2190   -9.5390 h1        1 CPF      0.030950
     30 H162        6.9530    1.9240   -8.6450 h1        1 CPF      0.030950
     31 HN3         7.4140   -0.2050   -9.6880 hn        1 CPF      0.353800
     32 H151        5.5150   -1.5860   -9.4000 h1        1 CPF      0.030950
     33 H152        6.9300   -2.2150   -8.4400 h1        1 CPF      0.030950
     34 H141        4.6600   -2.1560   -7.2440 h1        1 CPF      0.042950
     35 H142        6.0630   -1.3950   -6.3620 h1        1 CPF      0.042950
     36 H6          0.4660    0.0270   -5.0340 ha        1 CPF      0.170000
     37 H11         5.9170    1.2860   -2.4640 h1        1 CPF      0.078700
     38 H121        7.3950   -0.7300   -2.8580 hc        1 CPF      0.077700
     39 H122        6.0000   -1.8810   -2.5710 hc        1 CPF      0.077700
     40 H131        7.0690    0.2280   -0.4740 hc        1 CPF      0.077700
     41 H132        5.6830   -0.9400   -0.2110 hc        1 CPF      0.077700
@<TRIPOS>BOND
     1    1    2 1   
     2    2    3 1   
     3    2    4 1   
     4    4    5 2   
     5    4   20 1   
     6    5    6 1   
     7    5   25 1   
     8    6    7 1   
     9    6   22 1   
    10    7    8 ar  
    11    7   19 ar  
    12    8    9 ar  
    13    8   26 1   
    14    9   10 1   
    15    9   16 ar  
    16   10   11 1   
    17   10   15 1   
    18   11   12 1   
    19   11   27 1   
    20   11   28 1   
    21   12   13 1   
    22   12   29 1   
    23   12   30 1   
    24   13   14 1   
    25   13   31 1   
    26   14   15 1   
    27   14   32 1   
    28   14   33 1   
    29   15   34 1   
    30   15   35 1   
    31   16   17 1   
    32   16   18 ar  
    33   18   19 ar  
    34   18   36 1   
    35   19   20 1   
    36   20   21 2   
    37   22   23 1   
    38   22   24 1   
    39   22   37 1   
    40   23   24 1   
    41   23   38 1   
    42   23   39 1   
    43   24   40 1   
    44   24   41 1   
@<TRIPOS>SUBSTRUCTURE
     1 CPF         1 TEMP              0 ****  ****    0 ROOT
