@<TRIPOS>MOLECULE
CPF
   41    44     1     0     0
SMALL
bcc


@<TRIPOS>ATOM
      1 O2          0.2940   -0.8280    0.2520 o         1 CPF     -0.815800
      2 C3          1.1670    0.0660    0.1270 c         1 CPF      0.930800
      3 O1          1.5340    0.8630    1.0360 o         1 CPF     -0.815800
      4 C2          1.9180    0.1610   -1.2050 cc        1 CPF     -0.265400
      5 C1          3.2720    0.2190   -1.1460 cd        1 CPF      0.068000
      6 N1          4.1060    0.2340   -2.2680 na        1 CPF     -0.512800
      7 C10         3.5420    0.1390   -3.5380 ca        1 CPF      0.198600
      8 C9          4.3440    0.0780   -4.7030 ca        1 CPF     -0.219000
      9 C8          3.7810   -0.0070   -5.9810 ca        1 CPF      0.090600
     10 N2          4.5850   -0.0670   -7.1710 nh        1 CPF     -0.614000
     11 C17         5.3840    1.1370   -7.3680 c3        1 CPF      0.173800
     12 C16         6.2250    1.0720   -8.6590 c3        1 CPF      0.159800
     13 N3          7.0030   -0.1460   -8.7720 n3        1 CPF     -0.820200
     14 C15         6.2290   -1.3490   -8.5330 c3        1 CPF      0.159800
     15 C14         5.3880   -1.2820   -7.2430 c3        1 CPF      0.173800
     16 C7          2.3630   -0.0370   -6.1020 ca        1 CPF      0.072900
     17 F1          1.7600   -0.1210   -7.3150 f         1 CPF     -0.144900
     18 C6          1.5670    0.0210   -4.9510 ca        1 CPF     -0.087000
     19 C5          2.1270    0.1100   -3.6780 ca        1 CPF     -0.191600
     20 C4          1.2270    0.1790   -2.4900 c         1 CPF      0.597900
     21 O3          0.0030    0.2770   -2.6540 o         1 CPF     -0.547100
     22 C11         5.5210    0.3100   -2.1120 cx        1 CPF      0.169500
     23 C12         6.4410   -0.8830   -2.3220 cx        1 CPF     -0.138400
     24 C13         6.2460   -0.3300   -0.9440 cx        1 CPF     -0.138400
     25 H1          3.7890    0.2800   -0.1690 h4        1 CPF      0.171000
     26 H9          5.4420    0.0890   -4.6020 ha        1 CPF      0.136000
     27 H171        6.0740    1.3330   -6.4970 h1        1 CPF      0.042950
     28 H172        4.6750    2.0070   -7.4540 h1        1 CPF      0.042950
     29 H161        5.5320    1.2170   -9.5390 h1        1 CPF      0.030950
     30 H162        6.9470    1.9350   -8.6440 h1        1 CPF      0.030950
     31 HN3         7.4270   -0.1930   -9.6810 hn        1 CPF      0.353800
     32 H151        6.9550   -2.2030   -8.4280 h1        1 CPF      0.030950
     33 H152        5.5380   -1.5870   -9.3940 h1        1 CPF      0.030950
     34 H141        4.6820   -2.1590   -7.2380 h1        1 CPF      0.042950
     35 H142        6.0780   -1.3850   -6.3550 h1        1 CPF      0.042950
     36 H6          0.4670   -0.0000   -5.0430 ha        1 CPF      0.170000
     37 H11         5.9030    1.2980   -2.4620 h1        1 CPF      0.078700
     38 H121        6.0070   -1.8680   -2.5650 hc        1 CPF      0.077700
     39 H122        7.3950   -0.7090   -2.8500 hc        1 CPF      0.077700
     40 H131        5.6770   -0.9260   -0.2070 hc        1 CPF      0.077700
     41 H132        7.0570    0.2500   -0.4690 hc        1 CPF      0.077700
@<TRIPOS>BOND
     1    1    2 1   
     2    2    3 1   
     3    2    4 1   
     4    4    5 2   
     5    4   20 1   
     6    5    6 1   
     7    5   25 1   
     8    6    7 1   
     9    6   22 1   
    10    7    8 ar  
    11    7   19 ar  
    12    8    9 ar  
    13    8   26 1   
    14    9   10 1   
    15    9   16 ar  
    16   10   11 1   
    17   10   15 1   
    18   11   12 1   
    19   11   27 1   
    20   11   28 1   
    21   12   13 1   
    22   12   29 1   
    23   12   30 1   
    24   13   14 1   
    25   13   31 1   
    26   14   15 1   
    27   14   32 1   
    28   14   33 1   
    29   15   34 1   
    30   15   35 1   
    31   16   17 1   
    32   16   18 ar  
    33   18   19 ar  
    34   18   36 1   
    35   19   20 1   
    36   20   21 2   
    37   22   23 1   
    38   22   24 1   
    39   22   37 1   
    40   23   24 1   
    41   23   38 1   
    42   23   39 1   
    43   24   40 1   
    44   24   41 1   
@<TRIPOS>SUBSTRUCTURE
     1 CPF         1 TEMP              0 ****  ****    0 ROOT
