@<TRIPOS>MOLECULE
CPF
   41    44     1     0     0
SMALL
bcc


@<TRIPOS>ATOM
      1 O2          0.2950   -0.8380    0.2520 o         1 CPF     -0.815800
      2 C3          1.1720    0.0530    0.1310 c         1 CPF      0.930800
      3 O1          1.5420    0.8430    1.0440 o         1 CPF     -0.815800
      4 C2          1.9220    0.1520   -1.2010 cc        1 CPF     -0.265400
      5 C1          3.2760    0.2030   -1.1430 cd        1 CPF      0.068000
      6 N1          4.1090    0.2210   -2.2660 na        1 CPF     -0.512800
      7 C10         3.5440    0.1360   -3.5360 ca        1 CPF      0.198600
      8 C9          4.3450    0.0790   -4.7020 ca        1 CPF     -0.219000
      9 C8          3.7800    0.0030   -5.9800 ca        1 CPF      0.090600
     10 N2          4.5830   -0.0530   -7.1710 nh        1 CPF     -0.614000
     11 C17         5.3870    1.1490   -7.3620 c3        1 CPF      0.173800
     12 C16         6.2260    1.0880   -8.6540 c3        1 CPF      0.159800
     13 N3          7.0000   -0.1330   -8.7750 n7        1 CPF     -0.820200
     14 C15         6.2210   -1.3330   -8.5420 c3        1 CPF      0.159800
     15 C14         5.3810   -1.2710   -7.2510 c3        1 CPF      0.173800
     16 C7          2.3620   -0.0190   -6.1010 ca        1 CPF      0.072900
     17 F1          1.7580   -0.0930   -7.3130 f         1 CPF     -0.144900
     18 C6          1.5670    0.0360   -4.9480 ca        1 CPF     -0.087000
     19 C5          2.1280    0.1140   -3.6750 ca        1 CPF     -0.191600
     20 C4          1.2300    0.1800   -2.4860 c         1 CPF      0.597900
     21 O3          0.0060    0.2850   -2.6480 o         1 CPF     -0.547100
     22 C11         5.5250    0.2900   -2.1100 cx        1 CPF      0.169500
     23 C12         6.4390   -0.9060   -2.3290 cx        1 CPF     -0.138400
     24 C13         6.2480   -0.3600   -0.9470 cx        1 CPF     -0.138400
     25 H1          3.7950    0.2570   -0.1660 h4        1 CPF      0.171000
     26 H9          5.4430    0.0840   -4.6020 ha        1 CPF      0.136000
     27 H171        4.6820    2.0220   -7.4420 h1        1 CPF      0.042950
     28 H172        6.0780    1.3370   -6.4900 h1        1 CPF      0.042950
     29 H161        5.5340    1.2410   -9.5330 h1        1 CPF      0.030950
     30 H162        6.9520    1.9480   -8.6350 h1        1 CPF      0.030950
     31 HN3         7.4220   -0.1750   -9.6840 hn        1 CPF      0.353800
     32 H151        6.9430   -2.1910   -8.4430 h1        1 CPF      0.030950
     33 H152        5.5280   -1.5640   -9.4030 h1        1 CPF      0.030950
     34 H141        6.0710   -1.3810   -6.3640 h1        1 CPF      0.042950
     35 H142        4.6710   -2.1440   -7.2500 h1        1 CPF      0.042950
     36 H6          0.4670    0.0200   -5.0390 ha        1 CPF      0.170000
     37 H11         5.9110    1.2780   -2.4560 h1        1 CPF      0.078700
     38 H121        6.0000   -1.8880   -2.5770 hc        1 CPF      0.077700
     39 H122        7.3940   -0.7330   -2.8560 hc        1 CPF      0.077700
     40 H131        5.6770   -0.9580   -0.2130 hc        1 CPF      0.077700
     41 H132        7.0610    0.2130   -0.4690 hc        1 CPF      0.077700
@<TRIPOS>BOND
     1    1    2 1   
     2    2    3 1   
     3    2    4 1   
     4    4    5 2   
     5    4   20 1   
     6    5    6 1   
     7    5   25 1   
     8    6    7 1   
     9    6   22 1   
    10    7    8 ar  
    11    7   19 ar  
    12    8    9 ar  
    13    8   26 1   
    14    9   10 1   
    15    9   16 ar  
    16   10   11 1   
    17   10   15 1   
    18   11   12 1   
    19   11   27 1   
    20   11   28 1   
    21   12   13 1   
    22   12   29 1   
    23   12   30 1   
    24   13   14 1   
    25   13   31 1   
    26   14   15 1   
    27   14   32 1   
    28   14   33 1   
    29   15   34 1   
    30   15   35 1   
    31   16   17 1   
    32   16   18 ar  
    33   18   19 ar  
    34   18   36 1   
    35   19   20 1   
    36   20   21 2   
    37   22   23 1   
    38   22   24 1   
    39   22   37 1   
    40   23   24 1   
    41   23   38 1   
    42   23   39 1   
    43   24   40 1   
    44   24   41 1   
@<TRIPOS>SUBSTRUCTURE
     1 CPF         1 TEMP              0 ****  ****    0 ROOT
