@<TRIPOS>MOLECULE
CPF
   41    44     1     0     0
SMALL
bcc


@<TRIPOS>ATOM
      1 O2          5.3700    1.0670    0.8370 o         1 CPF     -0.815800
      2 C3          4.8840    0.3670   -0.0860 c         1 CPF      0.930800
      3 O1          5.5510   -0.3220   -0.9100 o         1 CPF     -0.815800
      4 C2          3.3590    0.2610   -0.1870 cc        1 CPF     -0.265400
      5 C1          2.8340   -0.9850   -0.2950 cd        1 CPF      0.068000
      6 N1          1.4630   -1.2590   -0.3230 na        1 CPF     -0.512800
      7 C10         0.5560   -0.2100   -0.1870 ca        1 CPF      0.198600
      8 C9         -0.8410   -0.4400   -0.1360 ca        1 CPF     -0.219000
      9 C8         -1.7550    0.6110   -0.0100 ca        1 CPF      0.090600
     10 N2         -3.1740    0.3900    0.0390 nh        1 CPF     -0.614000
     11 C17        -3.6930   -0.1990   -1.1900 c3        1 CPF      0.173800
     12 C16        -5.2190   -0.4100   -1.1350 c3        1 CPF      0.159800
     13 N3         -5.6560   -1.1140    0.0560 n3        1 CPF     -0.820200
     14 C15        -5.1100   -0.5640    1.2820 c3        1 CPF      0.159800
     15 C14        -3.5840   -0.3520    1.2250 c3        1 CPF      0.173800
     16 C7         -1.2590    1.9420    0.0730 ca        1 CPF      0.072900
     17 F1         -2.0980    3.0020    0.1980 f         1 CPF     -0.144900
     18 C6          0.1230    2.1720    0.0250 ca        1 CPF     -0.087000
     19 C5          1.0340    1.1270   -0.1040 ca        1 CPF     -0.191600
     20 C4          2.4930    1.4340   -0.1590 c         1 CPF      0.597900
     21 O3          2.8680    2.6140   -0.2100 o         1 CPF     -0.547100
     22 C11         1.0000   -2.6010   -0.4520 cx        1 CPF      0.169500
     23 C12         0.4150   -3.3890    0.7090 cx        1 CPF     -0.138400
     24 C13         1.7450   -3.7800    0.1420 cx        1 CPF     -0.138400
     25 H1          3.4960   -1.8670   -0.3910 h4        1 CPF      0.171000
     26 H9         -1.2180   -1.4750   -0.1890 ha        1 CPF      0.136000
     27 H171       -3.4660    0.5120   -2.0320 h1        1 CPF      0.042950
     28 H172       -3.2000   -1.1870   -1.4250 h1        1 CPF      0.042950
     29 H161       -5.7190    0.5970   -1.2410 h1        1 CPF      0.030950
     30 H162       -5.5140   -1.0350   -2.0240 h1        1 CPF      0.030950
     31 HN3        -6.6580   -1.1100    0.1010 hn        1 CPF      0.353800
     32 H151       -5.5930    0.4190    1.5590 h1        1 CPF      0.030950
     33 H152       -5.3270   -1.2980    2.1070 h1        1 CPF      0.030950
     34 H141       -3.0770   -1.3590    1.2880 h1        1 CPF      0.042950
     35 H142       -3.2790    0.2480    2.1260 h1        1 CPF      0.042950
     36 H6          0.5090    3.2050    0.0870 ha        1 CPF      0.170000
     37 H11         0.5210   -2.7570   -1.4480 h1        1 CPF      0.078700
     38 H121        0.3800   -2.9320    1.7140 hc        1 CPF      0.077700
     39 H122       -0.4700   -4.0190    0.5090 hc        1 CPF      0.077700
     40 H131        1.8290   -4.6920   -0.4740 hc        1 CPF      0.077700
     41 H132        2.6540   -3.6040    0.7470 hc        1 CPF      0.077700
@<TRIPOS>BOND
     1    1    2 1   
     2    2    3 1   
     3    2    4 1   
     4    4    5 2   
     5    4   20 1   
     6    5    6 1   
     7    5   25 1   
     8    6    7 1   
     9    6   22 1   
    10    7    8 ar  
    11    7   19 ar  
    12    8    9 ar  
    13    8   26 1   
    14    9   10 1   
    15    9   16 ar  
    16   10   11 1   
    17   10   15 1   
    18   11   12 1   
    19   11   27 1   
    20   11   28 1   
    21   12   13 1   
    22   12   29 1   
    23   12   30 1   
    24   13   14 1   
    25   13   31 1   
    26   14   15 1   
    27   14   32 1   
    28   14   33 1   
    29   15   34 1   
    30   15   35 1   
    31   16   17 1   
    32   16   18 ar  
    33   18   19 ar  
    34   18   36 1   
    35   19   20 1   
    36   20   21 2   
    37   22   23 1   
    38   22   24 1   
    39   22   37 1   
    40   23   24 1   
    41   23   38 1   
    42   23   39 1   
    43   24   40 1   
    44   24   41 1   
@<TRIPOS>SUBSTRUCTURE
     1 CPF         1 TEMP              0 ****  ****    0 ROOT
