@<TRIPOS>MOLECULE
CPG
   36    38     1     0     0
SMALL
bcc


@<TRIPOS>ATOM
      1 PA         -0.1000    1.0070    4.6580 p5        1 CPG      1.335900
      2 O1A        -1.2550    1.8560    4.2160 o         1 CPG     -0.929500
      3 O2A        -0.0380    0.5560    6.0820 o         1 CPG     -0.929500
      4 O3A         1.2170    1.3730    3.9970 o         1 CPG     -0.929500
      5 O5'        -0.3990   -0.4680    3.7690 os        1 CPG     -0.553200
      6 C5'        -0.5110   -0.2830    2.4210 c3        1 CPG      0.229400
      7 C4'         0.8040   -0.6860    1.7090 c3        1 CPG      0.051100
      8 O4'         0.5110   -1.3480    0.4500 os        1 CPG     -0.431600
      9 C3'         1.7400    0.5020    1.4200 c3        1 CPG      0.131100
     10 O3'         2.9390    0.3870    2.1500 oh        1 CPG     -0.685800
     11 C2'         2.0670    0.4240   -0.0880 c3        1 CPG      0.103100
     12 O2'         3.3780    0.0060   -0.4000 oh        1 CPG     -0.617800
     13 C1'         1.0730   -0.6510   -0.6450 c3        1 CPG      0.213800
     14 N9          0.0010   -0.0880   -1.4650 na        1 CPG     -0.178900
     15 C8         -1.2070    0.4930   -1.0260 cc        1 CPG      0.447400
     16 N7         -2.0210    0.8640   -2.0400 nd        1 CPG     -0.629000
     17 C5         -1.3350    0.5060   -3.1990 cd        1 CPG      0.194800
     18 C6         -1.6920    0.6570   -4.5920 c         1 CPG      0.645000
     19 O6         -2.7220    1.1510   -5.0860 o         1 CPG     -0.643500
     20 N1         -0.7230    0.1540   -5.4980 n         1 CPG     -0.497400
     21 C2          0.4950   -0.4110   -5.0670 cd        1 CPG      0.594800
     22 N2          1.4100   -0.7960   -6.1140 nh        1 CPG     -0.866800
     23 N3          0.8480   -0.5800   -3.7850 nc        1 CPG     -0.615100
     24 C4         -0.0660   -0.1000   -2.8580 cc        1 CPG      0.057800
     25 H5'1       -0.7640    0.7900    2.1780 h1        1 CPG     -0.001800
     26 H5'2       -1.3240   -0.9520    2.0080 h1        1 CPG     -0.001800
     27 H4'         1.3330   -1.4620    2.3270 h1        1 CPG      0.082700
     28 H3'         1.2380    1.4790    1.6690 h1        1 CPG      0.118700
     29 HO3'        2.7130    0.6880    3.0660 ho        1 CPG      0.517000
     30 H2'         1.9400    1.4190   -0.5890 h1        1 CPG      0.068700
     31 HO2'        3.7610   -0.3880    0.3960 ho        1 CPG      0.432000
     32 H1'         1.6160   -1.4110   -1.2790 h2        1 CPG      0.086700
     33 H8         -1.4170    0.6010    0.0560 h5        1 CPG      0.116100
     34 HN1        -0.8830    0.2940   -6.4700 hn        1 CPG      0.322500
     35 HN21        2.3240   -0.9740   -5.7430 hn        1 CPG      0.382300
     36 HN22        1.0670   -1.6060   -6.5920 hn        1 CPG      0.382300
@<TRIPOS>BOND
     1    1    2 1   
     2    1    3 1   
     3    1    4 1   
     4    1    5 1   
     5    5    6 1   
     6    6    7 1   
     7    6   25 1   
     8    6   26 1   
     9    7    8 1   
    10    7    9 1   
    11    7   27 1   
    12    8   13 1   
    13    9   10 1   
    14    9   11 1   
    15    9   28 1   
    16   10   29 1   
    17   11   12 1   
    18   11   13 1   
    19   11   30 1   
    20   12   31 1   
    21   13   14 1   
    22   13   32 1   
    23   14   15 1   
    24   14   24 1   
    25   15   16 2   
    26   15   33 1   
    27   16   17 1   
    28   17   18 1   
    29   17   24 2   
    30   18   19 2   
    31   18   20 1   
    32   20   21 1   
    33   20   34 1   
    34   21   22 1   
    35   21   23 2   
    36   22   35 1   
    37   22   36 1   
    38   23   24 1   
@<TRIPOS>SUBSTRUCTURE
     1 CPG         1 TEMP              0 ****  ****    0 ROOT
