@<TRIPOS>MOLECULE
CPG
   36    34     1     0     0
SMALL
bcc


@<TRIPOS>ATOM
      1 PA          2.8160   -1.8870    4.3380 p3        1 CPG      2.528000
      2 O1A         3.9100   -2.0930    3.3480 o         1 CPG     -1.260500
      3 O2A         3.3020   -0.9510    5.4490 os        1 CPG     -1.226000
      4 O3A         2.4150   -3.2450    4.9500 o         1 CPG     -1.260500
      5 O5'         1.5760   -1.2480    3.6190 os        1 CPG     -0.715000
      6 C5'         1.0320   -1.9130    2.4690 c3        1 CPG      0.079000
      7 C4'        -0.4090   -1.4520    2.2550 c3        1 CPG     -0.060000
      8 O4'        -0.4330    0.0440    1.7890 os        1 CPG     -0.288000
      9 C3'        -0.9430   -2.0980    1.3110 c3        1 CPG      0.020000
     10 O3'        -2.3780   -2.2340    1.5480 oh        1 CPG     -0.413000
     11 C2'        -0.6790   -1.2160   -0.0550 c3        1 CPG     -0.008000
     12 O2'        -1.6610   -1.5510   -1.0560 oh        1 CPG     -0.345000
     13 C1'        -0.7990    0.0020    0.2810 c3        1 CPG      0.122000
     14 N9          0.1220    0.8360   -0.4900 n3        1 CPG     -0.134000
     15 C8          1.3060    1.3010    0.0100 c1        1 CPG     -0.041000
     16 N7          1.7240    2.3200   -0.7820 n2        1 CPG     -0.103000
     17 C5          0.8050    2.4910   -1.7710 c1        1 CPG     -0.223000
     18 C6          0.7570    3.4280   -2.9420 c1        1 CPG      0.392000
     19 O6          1.6690    4.2070   -3.1360 o         1 CPG     -0.368000
     20 N1         -0.3210    3.3680   -3.8500 n3        1 CPG     -0.337000
     21 C2         -1.3530    2.4270   -3.6550 c2        1 CPG      0.148000
     22 N2         -2.4510    2.3540   -4.5940 n3        1 CPG     -0.305000
     23 N3         -1.3050    1.5180   -2.5150 n1        1 CPG     -0.188000
     24 C4         -0.1880    1.5710   -1.5900 c1        1 CPG      0.008000
     25 H5'1        1.5760   -1.6870    1.6680 h1        1 CPG      0.037500
     26 H5'2        1.0490   -2.8660    2.6110 h1        1 CPG      0.037500
     27 H4'        -0.9150   -1.5580    3.0570 h1        1 CPG      0.122000
     28 H3'        -0.5110   -3.0220    1.2240 h1        1 CPG      0.158000
     29 HO3'       -2.5530   -3.0300    1.7700 ho        1 CPG      0.316000
     30 H2'         0.2070   -1.3810   -0.3890 h1        1 CPG      0.108000
     31 HO2'       -1.4450   -2.3120   -1.4330 ho        1 CPG      0.231000
     32 H1'        -1.7470    0.3090    0.1440 h2        1 CPG      0.126000
     33 H8          1.7600    0.9690    0.7800 DU        1 CPG      0.253000
     34 HN1        -0.3250    3.8970   -4.5800 hn        1 CPG      0.236000
     35 HN21       -2.5310    2.9990   -5.2750 hn        1 CPG      0.177500
     36 HN22       -3.0780    1.7030   -4.5090 hn        1 CPG      0.177500
@<TRIPOS>BOND
     1    1    2 1   
     2    1    4 1   
     3    1    5 1   
     4    5    6 1   
     5    6    7 1   
     6    6   25 1   
     7    6   26 1   
     8    7    8 1   
     9    7    9 1   
    10    7   27 1   
    11    8   13 1   
    12    9   10 1   
    13    9   11 1   
    14    9   28 1   
    15   10   29 1   
    16   11   12 1   
    17   11   13 1   
    18   11   30 1   
    19   12   31 1   
    20   13   14 1   
    21   13   32 1   
    22   14   15 1   
    23   14   24 1   
    24   15   16 1   
    25   16   17 1   
    26   17   24 1   
    27   18   19 1   
    28   18   20 1   
    29   20   21 1   
    30   20   34 1   
    31   21   22 1   
    32   21   23 1   
    33   22   35 1   
    34   22   36 1   
@<TRIPOS>SUBSTRUCTURE
     1 CPG         1 TEMP              0 ****  ****    0 ROOT
