@<TRIPOS>MOLECULE
CPH
   54    56     1     0     0
SMALL
bcc


@<TRIPOS>ATOM
      1 C1          0.1000    2.0360    0.6760 c         1 CPH      0.574700
      2 O1          0.2710    3.2650    0.5590 o         1 CPH     -0.599100
      3 C2         -1.2640    1.5650    1.1570 c3        1 CPH      0.062100
      4 C3         -1.6280    0.2050    0.5620 c3        1 CPH     -0.038700
      5 C4         -0.5430   -0.7910    0.9220 c3        1 CPH     -0.052100
      6 C5          4.0390   -1.9520   -0.4030 ca        1 CPH     -0.213000
      7 C6          5.3310   -1.6060   -0.7760 ca        1 CPH      0.187100
      8 C7          5.7120   -0.2520   -0.9650 ca        1 CPH     -0.203300
      9 C8          4.7580    0.7430   -0.7370 ca        1 CPH      0.215100
     10 O8          5.2060    2.0280   -0.9110 oh        1 CPH     -0.501100
     11 C9          2.4260    1.4040    0.0070 ca        1 CPH      0.269100
     12 O9          2.8570    2.6940   -0.0870 oh        1 CPH     -0.527100
     13 C1'        -3.0020   -0.2450    1.0790 c3        1 CPH      0.049100
     14 O1'        -2.8420   -0.6240    2.4440 os        1 CPH     -0.403600
     15 C10         1.7590   -1.3000    0.2190 ca        1 CPH     -0.180000
     16 C2'        -3.5280   -1.3910    0.2330 c         1 CPH      0.510100
     17 O2'        -3.3340   -2.5800    0.4910 o         1 CPH     -0.497100
     18 C3'        -4.3410   -0.9710   -0.9790 c3        1 CPH      0.005100
     19 O3'        -4.4250   -2.0110   -1.9310 oh        1 CPH     -0.585800
     20 C4'        -5.7630   -0.5380   -0.5460 c3        1 CPH      0.119100
     21 O4'        -6.7080   -1.4780   -1.0210 oh        1 CPH     -0.592800
     22 C4A         0.8100   -0.3490    0.4880 ca        1 CPH      0.011700
     23 C5'        -6.0740    0.8630   -1.0350 c3        1 CPH     -0.132100
     24 C5A         3.0830   -0.9440   -0.1700 ca        1 CPH      0.077000
     25 C8A         3.4310    0.4260   -0.3100 ca        1 CPH     -0.171000
     26 C9A         1.1290    1.0430    0.3910 ca        1 CPH     -0.296600
     27 CC7         7.0890    0.0860   -1.3920 c3        1 CPH     -0.049800
     28 O6          6.2010   -2.6510   -0.9660 oh        1 CPH     -0.492100
     29 O2         -2.2790    2.4840    0.7820 oh        1 CPH     -0.606800
     30 CME        -4.0770   -0.8420    3.1100 c3        1 CPH      0.107700
     31 H2         -1.2350    1.4900    2.2840 h1        1 CPH      0.082700
     32 H3         -1.7060    0.3090   -0.5560 hc        1 CPH      0.074700
     33 H4         -0.5310   -0.9390    2.0400 hc        1 CPH      0.084200
     34 H4A        -0.7980   -1.7860    0.4660 hc        1 CPH      0.084200
     35 H5          3.7660   -3.0100   -0.2840 ha        1 CPH      0.159000
     36 HO8         4.4760    2.5930   -1.2060 ho        1 CPH      0.448000
     37 HO9         2.1650    3.3290    0.1650 ho        1 CPH      0.477000
     38 H1'        -3.7250    0.6210    1.0080 h1        1 CPH      0.080700
     39 H10         1.5160   -2.3710    0.3010 ha        1 CPH      0.148000
     40 H3'        -3.8120   -0.1340   -1.5170 h1        1 CPH      0.101700
     41 HO3'       -4.7100   -2.8100   -1.4630 ho        1 CPH      0.428000
     42 H4'        -5.8660   -0.5920    0.5760 h1        1 CPH      0.074700
     43 HO4'       -6.6540   -1.4810   -1.9870 ho        1 CPH      0.416000
     44 H5'        -5.9790    0.9210   -2.1460 hc        1 CPH      0.052033
     45 H5'A       -7.1210    1.1350   -0.7550 hc        1 CPH      0.052033
     46 H5'B       -5.3710    1.5960   -0.5730 hc        1 CPH      0.052033
     47 HC7         7.3490   -0.4530   -2.3390 hc        1 CPH      0.051033
     48 HC7A        7.1970    1.1840   -1.5770 hc        1 CPH      0.051033
     49 HC7B        7.8250   -0.2050   -0.6010 hc        1 CPH      0.051033
     50 HO6         7.0740   -2.2950   -1.1890 ho        1 CPH      0.429000
     51 HO2        -1.9170    3.3770    0.8860 ho        1 CPH      0.431000
     52 HME        -3.7780   -1.1320    4.1490 h1        1 CPH      0.042033
     53 HMEA       -4.6880    0.0940    3.1220 h1        1 CPH      0.042033
     54 HMEB       -4.6460   -1.6700    2.6190 h1        1 CPH      0.042033
@<TRIPOS>BOND
     1    1    2 2   
     2    1    3 1   
     3    1   26 1   
     4    3    4 1   
     5    3   29 1   
     6    3   31 1   
     7    4    5 1   
     8    4   13 1   
     9    4   32 1   
    10    5   22 1   
    11    5   33 1   
    12    5   34 1   
    13    6    7 ar  
    14    6   24 ar  
    15    6   35 1   
    16    7    8 ar  
    17    7   28 1   
    18    8    9 ar  
    19    8   27 1   
    20    9   10 1   
    21    9   25 ar  
    22   10   36 1   
    23   11   12 1   
    24   11   25 ar  
    25   11   26 ar  
    26   12   37 1   
    27   13   14 1   
    28   13   16 1   
    29   13   38 1   
    30   14   30 1   
    31   15   22 ar  
    32   15   24 ar  
    33   15   39 1   
    34   16   17 2   
    35   16   18 1   
    36   18   19 1   
    37   18   20 1   
    38   18   40 1   
    39   19   41 1   
    40   20   21 1   
    41   20   23 1   
    42   20   42 1   
    43   21   43 1   
    44   22   26 ar  
    45   23   44 1   
    46   23   45 1   
    47   23   46 1   
    48   24   25 ar  
    49   27   47 1   
    50   27   48 1   
    51   27   49 1   
    52   28   50 1   
    53   29   51 1   
    54   30   52 1   
    55   30   53 1   
    56   30   54 1   
@<TRIPOS>SUBSTRUCTURE
     1 CPH         1 TEMP              0 ****  ****    0 ROOT
