@<TRIPOS>MOLECULE
CPH
   54    56     1     0     0
SMALL
bcc


@<TRIPOS>ATOM
      1 C1         -0.7820   -0.4460    0.2770 c         1 CPH      0.575700
      2 O1         -0.8060   -0.4540   -0.9700 o         1 CPH     -0.598100
      3 C2          0.0210   -1.5390    0.9650 c3        1 CPH      0.060100
      4 C3          0.6110   -1.0510    2.2870 c3        1 CPH     -0.038700
      5 C4         -0.5180   -0.5550    3.1710 c3        1 CPH     -0.053100
      6 C5         -3.4520    3.3760    3.5820 ca        1 CPH     -0.278000
      7 C6         -4.2590    4.3550    3.0210 ca        1 CPH      0.205100
      8 C7         -4.4610    4.4480    1.6170 ca        1 CPH     -0.218300
      9 C8         -3.8150    3.5150    0.8070 ca        1 CPH      0.215100
     10 O8         -3.9420    3.5140   -0.5560 oh        1 CPH     -0.462100
     11 C9         -2.2980    1.5260    0.5290 ca        1 CPH      0.288100
     12 O9         -2.5300    1.6770   -0.7990 oh        1 CPH     -0.469100
     13 C1'         1.4010   -2.1800    2.9610 c3        1 CPH      0.049100
     14 O1'         0.4580   -3.1190    3.4710 os        1 CPH     -0.402600
     15 C10        -1.9720    1.4240    3.3110 ca        1 CPH     -0.197000
     16 C2'         2.2840   -1.6160    4.0600 c         1 CPH      0.510100
     17 O2'         1.9400   -1.5270    5.2400 o         1 CPH     -0.499100
     18 C3'         3.6620   -1.1670    3.6070 c3        1 CPH      0.005100
     19 O3'         4.2510   -0.2840    4.5390 oh        1 CPH     -0.585800
     20 C4'         4.5820   -2.3920    3.3900 c3        1 CPH      0.119100
     21 O4'         5.6040   -2.3950    4.3680 oh        1 CPH     -0.593800
     22 C4A        -1.3380    0.5010    2.5170 ca        1 CPH      0.025700
     23 C5'         5.1520   -2.4010    1.9860 c3        1 CPH     -0.132100
     24 C5A        -2.8030    2.4350    2.7540 ca        1 CPH      0.093000
     25 C8A        -2.9750    2.4920    1.3500 ca        1 CPH     -0.146000
     26 C9A        -1.4850    0.5320    1.0950 ca        1 CPH     -0.314600
     27 CC7        -5.3280    5.5030    1.0480 c3        1 CPH     -0.045800
     28 O6         -4.9090    5.2900    3.7910 oh        1 CPH     -0.493100
     29 O2          1.0970   -1.9740    0.1470 oh        1 CPH     -0.608800
     30 CME         1.0560   -4.3320    3.9050 c3        1 CPH      0.107700
     31 H2         -0.6670   -2.4140    1.1580 h1        1 CPH      0.081700
     32 H3          1.3330   -0.2140    2.0730 hc        1 CPH      0.074700
     33 H4         -1.1910   -1.4200    3.4350 hc        1 CPH      0.082700
     34 H4A        -0.0830   -0.1770    4.1370 hc        1 CPH      0.082700
     35 H5         -3.3090    3.3210    4.6700 ha        1 CPH      0.143000
     36 HO8        -4.5250    4.2440   -0.8170 ho        1 CPH      0.425000
     37 HO9        -2.0490    1.0120   -1.3210 ho        1 CPH      0.462000
     38 H1'         2.0580   -2.6830    2.1910 h1        1 CPH      0.081700
     39 H10        -1.8500    1.3960    4.4050 ha        1 CPH      0.144000
     40 H3'         3.5700   -0.5610    2.6600 h1        1 CPH      0.101700
     41 HO3'        4.1890   -0.7010    5.4120 ho        1 CPH      0.427000
     42 H4'         4.0170   -3.3490    3.5870 h1        1 CPH      0.074700
     43 HO4'        6.1170   -1.5820    4.2530 ho        1 CPH      0.415000
     44 H5'         4.3290   -2.4910    1.2380 hc        1 CPH      0.052033
     45 H5'A        5.8480   -3.2660    1.8680 hc        1 CPH      0.052033
     46 H5'B        5.7190   -1.4600    1.7870 hc        1 CPH      0.052033
     47 HC7        -5.7550    6.1510    1.8530 hc        1 CPH      0.049367
     48 HC7A       -4.7450    6.1570    0.3500 hc        1 CPH      0.049367
     49 HC7B       -6.1800    5.0480    0.4810 hc        1 CPH      0.049367
     50 HO6        -4.6890    5.1200    4.7200 ho        1 CPH      0.427000
     51 HO2         0.7860   -1.9690   -0.7710 ho        1 CPH      0.432000
     52 HME         1.5660   -4.8460    3.0540 h1        1 CPH      0.041700
     53 HMEA        0.1950   -4.9420    4.2770 h1        1 CPH      0.041700
     54 HMEB        1.7840   -4.1350    4.7310 h1        1 CPH      0.041700
@<TRIPOS>BOND
     1    1    2 2   
     2    1    3 1   
     3    1   26 1   
     4    3    4 1   
     5    3   29 1   
     6    3   31 1   
     7    4    5 1   
     8    4   13 1   
     9    4   32 1   
    10    5   22 1   
    11    5   33 1   
    12    5   34 1   
    13    6    7 ar  
    14    6   24 ar  
    15    6   35 1   
    16    7    8 ar  
    17    7   28 1   
    18    8    9 ar  
    19    8   27 1   
    20    9   10 1   
    21    9   25 ar  
    22   10   36 1   
    23   11   12 1   
    24   11   25 ar  
    25   11   26 ar  
    26   12   37 1   
    27   13   14 1   
    28   13   16 1   
    29   13   38 1   
    30   14   30 1   
    31   15   22 ar  
    32   15   24 ar  
    33   15   39 1   
    34   16   17 2   
    35   16   18 1   
    36   18   19 1   
    37   18   20 1   
    38   18   40 1   
    39   19   41 1   
    40   20   21 1   
    41   20   23 1   
    42   20   42 1   
    43   21   43 1   
    44   22   26 ar  
    45   23   44 1   
    46   23   45 1   
    47   23   46 1   
    48   24   25 ar  
    49   27   47 1   
    50   27   48 1   
    51   27   49 1   
    52   28   50 1   
    53   29   51 1   
    54   30   52 1   
    55   30   53 1   
    56   30   54 1   
@<TRIPOS>SUBSTRUCTURE
     1 CPH         1 TEMP              0 ****  ****    0 ROOT
