@<TRIPOS>MOLECULE
CPH
   54    56     1     0     0
SMALL
bcc


@<TRIPOS>ATOM
      1 C1         -0.7880   -0.5120    0.2980 c         1 CPH      0.575700
      2 O1         -0.8150   -0.5640   -0.9470 o         1 CPH     -0.598100
      3 C2          0.0140   -1.5840    1.0220 c3        1 CPH      0.060100
      4 C3          0.6070   -1.0520    2.3250 c3        1 CPH     -0.038700
      5 C4         -0.5180   -0.5240    3.1950 c3        1 CPH     -0.053100
      6 C5         -3.4430    3.4250    3.4780 ca        1 CPH     -0.278000
      7 C6         -4.2490    4.3860    2.8860 ca        1 CPH      0.205100
      8 C7         -4.4540    4.4320    1.4800 ca        1 CPH     -0.218300
      9 C8         -3.8120    3.4710    0.7000 ca        1 CPH      0.215100
     10 O8         -3.9410    3.4240   -0.6610 oh        1 CPH     -0.462100
     11 C9         -2.3000    1.4700    0.4870 ca        1 CPH      0.288100
     12 O9         -2.5340    1.5770   -0.8450 oh        1 CPH     -0.469100
     13 C1'         1.3970   -2.1600    3.0360 c3        1 CPH      0.049100
     14 O1'         0.4530   -3.0780    3.5800 os        1 CPH     -0.402600
     15 C10        -1.9680    1.4620    3.2700 ca        1 CPH     -0.197000
     16 C2'         2.2840   -1.5600    4.1130 c         1 CPH      0.510100
     17 O2'         1.9430   -1.4310    5.2900 o         1 CPH     -0.499100
     18 C3'         3.6610   -1.1290    3.6420 c3        1 CPH      0.005100
     19 O3'         4.2540   -0.2160    4.5420 oh        1 CPH     -0.585800
     20 C4'         4.5780   -2.3630    3.4650 c3        1 CPH      0.119100
     21 O4'         5.6030   -2.3340    4.4400 oh        1 CPH     -0.593800
     22 C4A        -1.3370    0.5110    2.5070 ca        1 CPH      0.025700
     23 C5'         5.1450   -2.4200    2.0600 c3        1 CPH     -0.132100
     24 C5A        -2.7970    2.4550    2.6810 ca        1 CPH      0.093000
     25 C8A        -2.9730    2.4650    1.2760 ca        1 CPH     -0.146000
     26 C9A        -1.4880    0.4940    1.0850 ca        1 CPH     -0.314600
     27 CC7        -5.3200    5.4690    0.8760 c3        1 CPH     -0.045800
     28 O6         -4.8950    5.3480    3.6240 oh        1 CPH     -0.493100
     29 O2          1.0870   -2.0480    0.2170 oh        1 CPH     -0.608800
     30 CME         1.0500   -4.2770    4.0530 c3        1 CPH      0.107700
     31 H2         -0.6760   -2.4510    1.2460 h1        1 CPH      0.081700
     32 H3          1.3310   -0.2250    2.0810 hc        1 CPH      0.074700
     33 H4         -0.0800   -0.1150    4.1460 hc        1 CPH      0.082700
     34 H4A        -1.1920   -1.3790    3.4890 hc        1 CPH      0.082700
     35 H5         -3.2980    3.4070    4.5670 ha        1 CPH      0.143000
     36 HO8        -4.5230    4.1460   -0.9460 ho        1 CPH      0.425000
     37 HO9        -2.0560    0.8920   -1.3450 ho        1 CPH      0.462000
     38 H1'         2.0510   -2.6900    2.2810 h1        1 CPH      0.081700
     39 H10        -1.8430    1.4710    4.3640 ha        1 CPH      0.144000
     40 H3'         3.5680   -0.5550    2.6760 h1        1 CPH      0.101700
     41 HO3'        4.1930   -0.6040    5.4290 ho        1 CPH      0.427000
     42 H4'         4.0120   -3.3110    3.6950 h1        1 CPH      0.074700
     43 HO4'        6.1170   -1.5280    4.2970 ho        1 CPH      0.415000
     44 H5'         5.7140   -1.4880    1.8290 hc        1 CPH      0.052033
     45 H5'A        5.8400   -3.2900    1.9700 hc        1 CPH      0.052033
     46 H5'B        4.3200   -2.5340    1.3170 hc        1 CPH      0.052033
     47 HC7        -4.7370    6.0970    0.1560 hc        1 CPH      0.049367
     48 HC7A       -6.1740    4.9970    0.3270 hc        1 CPH      0.049367
     49 HC7B       -5.7430    6.1440    1.6610 hc        1 CPH      0.049367
     50 HO6        -4.6740    5.2090    4.5580 ho        1 CPH      0.427000
     51 HO2         0.7750   -2.0740   -0.7000 ho        1 CPH      0.432000
     52 HME         1.5570   -4.8200    3.2180 h1        1 CPH      0.041700
     53 HMEA        1.7800   -4.0540    4.8700 h1        1 CPH      0.041700
     54 HMEB        0.1890   -4.8720    4.4470 h1        1 CPH      0.041700
@<TRIPOS>BOND
     1    1    2 2   
     2    1    3 1   
     3    1   26 1   
     4    3    4 1   
     5    3   29 1   
     6    3   31 1   
     7    4    5 1   
     8    4   13 1   
     9    4   32 1   
    10    5   22 1   
    11    5   33 1   
    12    5   34 1   
    13    6    7 ar  
    14    6   24 ar  
    15    6   35 1   
    16    7    8 ar  
    17    7   28 1   
    18    8    9 ar  
    19    8   27 1   
    20    9   10 1   
    21    9   25 ar  
    22   10   36 1   
    23   11   12 1   
    24   11   25 ar  
    25   11   26 ar  
    26   12   37 1   
    27   13   14 1   
    28   13   16 1   
    29   13   38 1   
    30   14   30 1   
    31   15   22 ar  
    32   15   24 ar  
    33   15   39 1   
    34   16   17 2   
    35   16   18 1   
    36   18   19 1   
    37   18   20 1   
    38   18   40 1   
    39   19   41 1   
    40   20   21 1   
    41   20   23 1   
    42   20   42 1   
    43   21   43 1   
    44   22   26 ar  
    45   23   44 1   
    46   23   45 1   
    47   23   46 1   
    48   24   25 ar  
    49   27   47 1   
    50   27   48 1   
    51   27   49 1   
    52   28   50 1   
    53   29   51 1   
    54   30   52 1   
    55   30   53 1   
    56   30   54 1   
@<TRIPOS>SUBSTRUCTURE
     1 CPH         1 TEMP              0 ****  ****    0 ROOT
