@<TRIPOS>MOLECULE
CPH
   54    51     1     0     0
SMALL
bcc


@<TRIPOS>ATOM
      1 C1         -0.2190    0.0910   -2.4690 c1        1 CPH      0.266000
      2 O1         -0.8200   -0.2490   -3.4080 o         1 CPH     -0.350000
      3 C2          1.2860    0.1270   -2.5170 c3        1 CPH     -0.004000
      4 C3          1.9140    0.1670   -1.1450 c3        1 CPH     -0.105000
      5 C4          1.4540    1.2070   -0.2300 c3        1 CPH     -0.133000
      6 C5         -2.7540    3.2230    1.7880 c1        1 CPH     -0.279000
      7 C6         -4.1610    3.3400    1.8350 c1        1 CPH      0.159000
      8 C7         -4.9530    2.7390    0.8370 c1        1 CPH     -0.211000
      9 C8         -4.3440    2.0190   -0.2120 c2        1 CPH      0.170000
     10 O8         -5.0360    1.0690   -1.0300 oh        1 CPH     -0.216000
     11 C9         -2.3290    1.1060   -1.2990 c1        1 CPH      0.240000
     12 O9         -3.1440    0.5400   -2.3650 o         1 CPH     -0.222000
     13 C1'         1.6500   -1.2340   -0.4560 c3        1 CPH     -0.008000
     14 O1'         0.4510   -1.1990    0.1940 os        1 CPH     -0.261000
     15 C10        -0.7070    2.3280    0.7330 c1        1 CPH     -0.200000
     16 C2'         2.7530   -1.5290    0.5320 c2        1 CPH      0.176000
     17 O2'         2.7190   -1.0280    1.6640 o         1 CPH     -0.285000
     18 C3'         3.9270   -2.3010    0.1110 c3        1 CPH     -0.053000
     19 O3'         5.0570   -1.4320    0.0520 oh        1 CPH     -0.310000
     20 C4'         4.1920   -3.4210    1.1110 c3        1 CPH      0.009000
     21 O4'         4.5580   -2.8580    2.3790 oh        1 CPH     -0.333000
     22 C4A        -0.1140    1.5640   -0.2640 c2        1 CPH      0.037000
     23 C5'         5.2910   -4.2680    0.6180 c3        1 CPH     -0.213000
     24 C5A        -2.1420    2.5060    0.7440 c1        1 CPH      0.093000
     25 C8A        -2.9450    1.9000   -0.2630 c2        1 CPH     -0.145000
     26 C9A        -0.9540    0.9320   -1.3150 c1        1 CPH     -0.293000
     27 CC7        -6.4780    2.6370    1.3050 c2        1 CPH     -0.171000
     28 O6         -4.4950    4.2920    2.8270 oh        1 CPH     -0.248000
     29 O2          1.7450    1.2500   -3.3680 oh        1 CPH     -0.330000
     30 CME        -0.1770   -2.4600    0.3130 c3        1 CPH     -0.080000
     31 H2          1.6490   -0.6680   -3.0380 h1        1 CPH      0.141000
     32 H3          2.8550    0.2690   -1.2570 hc        1 CPH      0.127000
     33 H4          1.6950    0.9030    0.7610 hc        1 CPH      0.118500
     34 H4A         1.9790    2.0660   -0.4380 hc        1 CPH      0.118500
     35 H5         -2.2210    3.6300    2.4620 ha        1 CPH      0.142000
     36 HO8        -5.7530    1.4820   -1.4350 ho        1 CPH      0.223000
     37 HO9        -3.2080    1.1160   -3.0180 ho        1 CPH      0.259000
     38 H1'         1.6290   -1.9550   -1.1570 h1        1 CPH      0.126000
     39 H10        -0.1780    2.8300    1.2980 ha        1 CPH      0.142000
     40 H3'         3.7670   -2.6860   -0.7600 h1        1 CPH      0.133000
     41 HO3'        5.5260   -1.6080   -0.6660 ho        1 CPH      0.226000
     42 H4'         3.4170   -3.9430    1.2090 h1        1 CPH      0.084000
     43 HO4'        4.7670   -3.5220    2.9550 ho        1 CPH      0.224000
     44 H5'         5.2590   -4.3140   -0.3760 hc        1 CPH      0.092000
     45 H5'A        5.1920   -5.2220    1.0090 hc        1 CPH      0.092000
     46 H5'B        6.1700   -3.8710    0.9080 hc        1 CPH      0.092000
     47 HC7        -7.0450    2.3740    0.5400 ha        1 CPH      0.088667
     48 HC7A       -6.5550    1.9830    1.9950 ha        1 CPH      0.088667
     49 HC7B       -6.7690    3.4960    1.6400 ha        1 CPH      0.088667
     50 HO6        -4.5680    3.8640    3.6610 ho        1 CPH      0.225000
     51 HO2         2.1840    0.9270   -4.0710 ho        1 CPH      0.225000
     52 HME        -0.0890   -2.9220   -0.4730 h1        1 CPH      0.080333
     53 HMEA        0.2390   -2.9610    1.0290 h1        1 CPH      0.080333
     54 HMEB       -1.1680   -2.3270    0.5190 h1        1 CPH      0.080333
@<TRIPOS>BOND
     1    1    2 1   
     2    1    3 1   
     3    3    4 1   
     4    3   29 1   
     5    3   31 1   
     6    4    5 1   
     7    4   13 1   
     8    4   32 1   
     9    5   22 1   
    10    5   33 1   
    11    5   34 1   
    12    6   24 1   
    13    6   35 1   
    14    7    8 1   
    15    7   28 1   
    16    8    9 1   
    17    9   10 1   
    18    9   25 1   
    19   10   36 1   
    20   11   25 1   
    21   11   26 1   
    22   12   37 1   
    23   13   14 1   
    24   13   16 1   
    25   13   38 1   
    26   14   30 1   
    27   15   22 1   
    28   15   39 1   
    29   16   17 1   
    30   16   18 1   
    31   18   19 1   
    32   18   20 1   
    33   18   40 1   
    34   19   41 1   
    35   20   21 1   
    36   20   23 1   
    37   20   42 1   
    38   21   43 1   
    39   22   26 1   
    40   23   44 1   
    41   23   45 1   
    42   23   46 1   
    43   24   25 1   
    44   27   47 1   
    45   27   48 1   
    46   27   49 1   
    47   28   50 1   
    48   29   51 1   
    49   30   52 1   
    50   30   53 1   
    51   30   54 1   
@<TRIPOS>SUBSTRUCTURE
     1 CPH         1 TEMP              0 ****  ****    0 ROOT
