@<TRIPOS>MOLECULE
CPI
   19    19     1     0     0
SMALL
bcc


@<TRIPOS>ATOM
      1 N          -0.4770   -1.1960   -0.1310 n3        1 CPI     -0.806200
      2 CE         -1.8740   -1.1630    0.2420 c3        1 CPI      0.174800
      3 CD         -2.5810    0.0880   -0.2900 c3        1 CPI     -0.070400
      4 CG         -1.8380    1.3520    0.0930 c3        1 CPI     -0.075400
      5 CB         -0.3640    1.2590   -0.2550 c3        1 CPI     -0.057400
      6 CA          0.2430   -0.0150    0.3320 c3        1 CPI      0.047500
      7 C           1.7760   -0.1200    0.0430 c         1 CPI      0.926600
      8 O           2.3510   -1.1870    0.3960 o         1 CPI     -0.841800
      9 H          -0.0200   -2.0190    0.2180 hn        1 CPI      0.376800
     10 HE2        -2.3720   -2.0750   -0.1910 h1        1 CPI     -0.001800
     11 HE3        -2.0320   -1.1990    1.3630 h1        1 CPI     -0.001800
     12 HD2        -2.6540    0.0250   -1.4060 hc        1 CPI      0.022700
     13 HD3        -3.6230    0.1140    0.1200 hc        1 CPI      0.022700
     14 HG2        -2.3000    2.2300   -0.4280 hc        1 CPI      0.014700
     15 HG3        -1.9480    1.5240    1.1970 hc        1 CPI      0.014700
     16 HB2        -0.2230    1.2640   -1.3660 hc        1 CPI      0.051700
     17 HB3         0.1950    2.1360    0.1560 hc        1 CPI      0.051700
     18 HA          0.1640    0.0720    1.4630 h1        1 CPI     -0.008300
     19 OXT         2.3530    0.8770   -0.4680 o         1 CPI     -0.841800
@<TRIPOS>BOND
     1    1    2 1   
     2    1    6 1   
     3    1    9 1   
     4    2    3 1   
     5    2   10 1   
     6    2   11 1   
     7    3    4 1   
     8    3   12 1   
     9    3   13 1   
    10    4    5 1   
    11    4   14 1   
    12    4   15 1   
    13    5    6 1   
    14    5   16 1   
    15    5   17 1   
    16    6    7 1   
    17    6   18 1   
    18    7    8 1   
    19    7   19 1   
@<TRIPOS>SUBSTRUCTURE
     1 CPI         1 TEMP              0 ****  ****    0 ROOT
