@<TRIPOS>MOLECULE
CPI
   19    19     1     0     0
SMALL
bcc


@<TRIPOS>ATOM
      1 N          -0.6740    0.8920   -1.0130 n3        1 CPI     -0.797200
      2 CE          0.7960    0.8920   -1.0130 c3        1 CPI      0.160800
      3 CD          1.3760    0.8920    0.3570 c3        1 CPI     -0.071400
      4 CG          0.8390   -0.1530    1.2020 c3        1 CPI     -0.072400
      5 CB         -0.6400   -0.1630    1.2300 c3        1 CPI     -0.057400
      6 CA         -1.2710   -0.2020   -0.1830 c3        1 CPI      0.028500
      7 C          -1.1410   -1.5670   -0.8400 c         1 CPI      0.890600
      8 O          -1.1110   -1.6610   -2.0990 o         1 CPI     -0.845800
      9 H          -0.9780    0.8230   -1.8700 hn        1 CPI      0.361800
     10 HE2         1.1090    0.0980   -1.4870 h1        1 CPI      0.019200
     11 HE3         1.1090    1.6860   -1.4870 h1        1 CPI      0.019200
     12 HD2         1.1960    1.7560    0.7740 hc        1 CPI      0.017700
     13 HD3         2.3430    0.7730    0.2880 hc        1 CPI      0.017700
     14 HG2         1.1690   -0.0230    2.1110 hc        1 CPI      0.030200
     15 HG3         1.1530   -1.0170    0.8730 hc        1 CPI      0.030200
     16 HB2        -0.9390   -0.9460    1.7290 hc        1 CPI      0.036700
     17 HB3        -0.9500    0.6400    1.6900 hc        1 CPI      0.036700
     18 HA         -2.2410   -0.1090   -0.1320 h1        1 CPI      0.038700
     19 OXT        -1.1450   -2.6110   -0.1290 o         1 CPI     -0.845800
@<TRIPOS>BOND
     1    1    2 1   
     2    1    6 1   
     3    1    9 1   
     4    2    3 1   
     5    2   10 1   
     6    2   11 1   
     7    3    4 1   
     8    3   12 1   
     9    3   13 1   
    10    4    5 1   
    11    4   14 1   
    12    4   15 1   
    13    5    6 1   
    14    5   16 1   
    15    5   17 1   
    16    6    7 1   
    17    6   18 1   
    18    7    8 1   
    19    7   19 1   
@<TRIPOS>SUBSTRUCTURE
     1 CPI         1 TEMP              0 ****  ****    0 ROOT
