@<TRIPOS>MOLECULE
CPJ
   52    53     1     0     0
SMALL
bcc


@<TRIPOS>ATOM
      1 O31        -6.2710    5.7170    0.3200 o         1 CPJ     -0.813050
      2 C29        -5.5010    6.2910   -0.5210 c         1 CPJ      0.934100
      3 O30        -5.9180    6.5500   -1.6680 o         1 CPJ     -0.813050
      4 C26        -4.1470    6.8210   -0.0700 c3        1 CPJ      0.197600
      5 O27        -3.1780    6.8470   -1.1870 os        1 CPJ     -0.422350
      6 C28        -2.7250    5.5450   -1.5750 c3        1 CPJ      0.121150
      7 C32        -4.5040    8.1750    0.3750 c3        1 CPJ     -0.091100
      8 O25        -3.5750    5.9960    1.0680 os        1 CPJ     -0.422350
      9 C24        -3.1320    4.7230    0.6690 c3        1 CPJ      0.121150
     10 C23        -2.2110    4.7730   -0.4560 c3        1 CPJ      0.090600
     11 O22        -1.9490    3.3910   -0.9140 os        1 CPJ     -0.430900
     12 C20        -0.5700    3.0140   -0.8620 c         1 CPJ      0.724600
     13 O21         0.2770    3.7840   -1.2310 o         1 CPJ     -0.596500
     14 N17        -0.2060    1.6670   -0.4870 n         1 CPJ     -0.522400
     15 C16         0.8140    0.9630   -1.2250 c3        1 CPJ      0.049000
     16 C15         1.2710   -0.2630   -0.4150 c3        1 CPJ      0.049000
     17 N14         1.7020   -1.3070   -1.3150 n         1 CPJ     -0.522400
     18 C12         2.6170   -2.3150   -0.8580 c         1 CPJ      0.724600
     19 O13         3.7420   -2.3940   -1.3500 o         1 CPJ     -0.596500
     20 O11         2.2130   -3.2410    0.1350 os        1 CPJ     -0.430900
     21 C3          2.7850   -4.6440   -0.0640 c3        1 CPJ      0.090600
     22 C2          3.8010   -4.8770    0.9450 c3        1 CPJ      0.121150
     23 O1          4.2750   -6.2110    0.9480 os        1 CPJ     -0.422350
     24 C4          1.7180   -5.5910   -0.0090 c3        1 CPJ      0.121150
     25 O5          2.1790   -6.9390   -0.0110 os        1 CPJ     -0.422350
     26 C6          3.1970   -7.2190    1.0400 c3        1 CPJ      0.197600
     27 C10         2.5830   -7.2930    2.4490 c3        1 CPJ     -0.091100
     28 C7          3.7330   -8.5640    0.8990 c         1 CPJ      0.934100
     29 O8          2.9730   -9.5120    0.5730 o         1 CPJ     -0.813050
     30 O9          4.9920   -8.7760    1.0630 o         1 CPJ     -0.813050
     31 H281       -2.0000    5.6450   -2.2580 h1        1 CPJ      0.055700
     32 H282       -3.4650    5.0640   -1.9730 h1        1 CPJ      0.055700
     33 H321       -3.7170    8.6140    0.7350 hc        1 CPJ      0.037867
     34 H322       -4.8480    8.6910   -0.3830 hc        1 CPJ      0.037867
     35 H323       -5.1900    8.1200    1.0680 hc        1 CPJ      0.037867
     36 H241       -3.9150    4.1780    0.4150 h1        1 CPJ      0.055700
     37 H242       -2.6790    4.2930    1.4300 h1        1 CPJ      0.055700
     38 H23        -1.3640    5.1750   -0.1560 h1        1 CPJ      0.083200
     39 H17        -0.5910    1.2720    0.2660 hn        1 CPJ      0.315000
     40 H161        0.4520    0.6710   -2.0840 h1        1 CPJ      0.069700
     41 H162        1.5920    1.5690   -1.3790 h1        1 CPJ      0.069700
     42 H151        0.5260   -0.5890    0.1270 h1        1 CPJ      0.069700
     43 H152        2.0090   -0.0110    0.1650 h1        1 CPJ      0.069700
     44 H14         1.3650   -1.3450   -2.1790 hn        1 CPJ      0.315000
     45 H3          3.1960   -4.6910   -0.9350 h1        1 CPJ      0.083200
     46 H21         3.4230   -4.6770    1.8230 h1        1 CPJ      0.055700
     47 H22         4.5600   -4.2690    0.7780 h1        1 CPJ      0.055700
     48 H41         1.1860   -5.4320    0.8260 h1        1 CPJ      0.055700
     49 H42         1.1340   -5.4550   -0.7880 h1        1 CPJ      0.055700
     50 H101        2.8410   -8.1390    2.8760 hc        1 CPJ      0.037867
     51 H102        2.9060   -6.5510    2.9810 hc        1 CPJ      0.037867
     52 H103        1.5940   -7.2450    2.3800 hc        1 CPJ      0.037867
@<TRIPOS>BOND
     1    1    2 1   
     2    2    3 1   
     3    2    4 1   
     4    4    5 1   
     5    4    7 1   
     6    4    8 1   
     7    5    6 1   
     8    6   10 1   
     9    6   31 1   
    10    6   32 1   
    11    7   33 1   
    12    7   34 1   
    13    7   35 1   
    14    8    9 1   
    15    9   10 1   
    16    9   36 1   
    17    9   37 1   
    18   10   11 1   
    19   10   38 1   
    20   11   12 1   
    21   12   13 2   
    22   12   14 1   
    23   14   15 1   
    24   14   39 1   
    25   15   16 1   
    26   15   40 1   
    27   15   41 1   
    28   16   17 1   
    29   16   42 1   
    30   16   43 1   
    31   17   18 1   
    32   17   44 1   
    33   18   19 2   
    34   18   20 1   
    35   20   21 1   
    36   21   22 1   
    37   21   24 1   
    38   21   45 1   
    39   22   23 1   
    40   22   46 1   
    41   22   47 1   
    42   23   26 1   
    43   24   25 1   
    44   24   48 1   
    45   24   49 1   
    46   25   26 1   
    47   26   27 1   
    48   26   28 1   
    49   27   50 1   
    50   27   51 1   
    51   27   52 1   
    52   28   29 1   
    53   28   30 1   
@<TRIPOS>SUBSTRUCTURE
     1 CPJ         1 TEMP              0 ****  ****    0 ROOT
