@<TRIPOS>MOLECULE
CPJ
   54    55     1     0     0
SMALL
bcc


@<TRIPOS>ATOM
      1 O31         1.8610    0.0800   -0.4160 o         1 CPJ     -0.461000
      2 C29         2.7360   -0.0950    0.4240 c         1 CPJ      0.659100
      3 O30         3.9530    0.4240    0.1360 oh        1 CPJ     -0.557100
      4 C26         2.5450   -0.8480    1.7530 c3        1 CPJ      0.247600
      5 O27         3.4560   -0.2470    2.6700 os        1 CPJ     -0.426600
      6 C28         3.5610   -0.8930    3.9290 c3        1 CPJ      0.123400
      7 C32         1.0970   -0.7940    2.2030 c3        1 CPJ     -0.135100
      8 O25         3.0420   -2.1590    1.5120 os        1 CPJ     -0.426600
      9 C24         3.0880   -2.9990    2.6570 c3        1 CPJ      0.123400
     10 C23         3.9150   -2.3760    3.7790 c3        1 CPJ      0.091100
     11 O22         5.3250   -2.3840    3.4500 os        1 CPJ     -0.402900
     12 C20         5.9660   -3.5870    3.5420 c         1 CPJ      0.741100
     13 O21         5.3640   -4.5950    3.9680 o         1 CPJ     -0.640000
     14 N17         7.2700   -3.5630    3.0740 n         1 CPJ     -0.549900
     15 C16         8.2060   -4.5520    3.5300 c3        1 CPJ      0.074000
     16 C15         8.1720   -5.8740    2.7350 c3        1 CPJ      0.093800
     17 N14         6.8570   -6.5660    2.8150 n4        1 CPJ     -0.644800
     18 C12         6.9580   -8.0140    2.4070 c         1 CPJ      0.623100
     19 O13         6.3590   -8.4170    1.4210 o         1 CPJ     -0.425000
     20 O11         7.7640   -8.6740    3.2380 os        1 CPJ     -0.407900
     21 C3          7.8270  -10.1450    3.0840 c3        1 CPJ      0.087100
     22 C2          9.1470  -10.5300    3.7620 c3        1 CPJ      0.116400
     23 O1          9.1590  -11.9290    3.9420 os        1 CPJ     -0.370100
     24 C4          6.6500  -10.7710    3.8320 c3        1 CPJ      0.116400
     25 O5          6.9040  -12.1470    4.0170 os        1 CPJ     -0.370100
     26 C6          8.0970  -12.4540    4.7240 c3        1 CPJ      0.145600
     27 C10         8.0970  -11.9540    6.1550 c3        1 CPJ     -0.121100
     28 C7          8.2500  -14.0730    4.6570 c         1 CPJ      0.977600
     29 O8          8.2990  -14.6140    5.7820 o         1 CPJ     -0.761800
     30 O9          8.3010  -14.5690    3.5190 o         1 CPJ     -0.761800
     31 H281        4.3800   -0.3280    4.4510 h1        1 CPJ      0.080700
     32 H282        2.5960   -0.8060    4.4930 h1        1 CPJ      0.080700
     33 H321        0.8170    0.2670    2.4110 hc        1 CPJ      0.071367
     34 H322        0.4480   -1.1850    1.3810 hc        1 CPJ      0.071367
     35 H323        0.9330   -1.4010    3.1230 hc        1 CPJ      0.071367
     36 H241        3.5640   -3.9430    2.2780 h1        1 CPJ      0.080700
     37 H242        2.0520   -3.2150    3.0280 h1        1 CPJ      0.080700
     38 H23         3.7630   -2.9360    4.7420 h1        1 CPJ      0.097700
     39 H17         4.5740    0.2440    0.8600 ho        1 CPJ      0.449000
     40 H161        8.0380   -4.7850    4.6230 h1        1 CPJ      0.092200
     41 H162        9.2520   -4.1420    3.4120 h1        1 CPJ      0.092200
     42 H151        8.9580   -6.5590    3.1710 hx        1 CPJ      0.120700
     43 H152        8.4050   -5.6940    1.6470 hx        1 CPJ      0.120700
     44 H14         6.1700   -6.0980    2.2080 hn        1 CPJ      0.478800
     45 H3          7.8180  -10.3980    1.9940 h1        1 CPJ      0.107700
     46 H21         9.2530   -9.9850    4.7360 h1        1 CPJ      0.047450
     47 H22        10.0220  -10.3100    3.0980 h1        1 CPJ      0.047450
     48 H41         5.7120  -10.7280    3.2190 h1        1 CPJ      0.047450
     49 H42         6.4960  -10.2460    4.8110 h1        1 CPJ      0.047450
     50 H101        9.0590  -12.2580    6.6320 hc        1 CPJ      0.042700
     51 H102        7.9760  -10.8480    6.2300 hc        1 CPJ      0.042700
     52 H103        7.2630  -12.4590    6.7000 hc        1 CPJ      0.042700
     53 H172        7.6330   -2.6790    2.7850 hn        1 CPJ      0.349500
     54 H142        6.4970   -6.5100    3.7830 hn        1 CPJ      0.478800
@<TRIPOS>BOND
     1    1    2 2   
     2    2    3 1   
     3    2    4 1   
     4    3   39 1   
     5    4    5 1   
     6    4    7 1   
     7    4    8 1   
     8    5    6 1   
     9    6   10 1   
    10    6   31 1   
    11    6   32 1   
    12    7   33 1   
    13    7   34 1   
    14    7   35 1   
    15    8    9 1   
    16    9   10 1   
    17    9   36 1   
    18    9   37 1   
    19   10   11 1   
    20   10   38 1   
    21   11   12 1   
    22   12   13 2   
    23   12   14 1   
    24   14   15 1   
    25   14   53 1   
    26   15   16 1   
    27   15   40 1   
    28   15   41 1   
    29   16   17 1   
    30   16   42 1   
    31   16   43 1   
    32   17   18 1   
    33   17   44 1   
    34   17   54 1   
    35   18   19 2   
    36   18   20 1   
    37   20   21 1   
    38   21   22 1   
    39   21   24 1   
    40   21   45 1   
    41   22   23 1   
    42   22   46 1   
    43   22   47 1   
    44   23   26 1   
    45   24   25 1   
    46   24   48 1   
    47   24   49 1   
    48   25   26 1   
    49   26   27 1   
    50   26   28 1   
    51   27   50 1   
    52   27   51 1   
    53   27   52 1   
    54   28   29 1   
    55   28   30 1   
@<TRIPOS>SUBSTRUCTURE
     1 CPJ         1 TEMP              0 ****  ****    0 ROOT
