@<TRIPOS>MOLECULE
CPJ
   52    53     1     0     0
SMALL
bcc


@<TRIPOS>ATOM
      1 O31         9.8350   -1.2640    0.1530 o         1 CPJ     -0.802050
      2 C29         8.6290   -1.3300    0.5080 c         1 CPJ      0.961600
      3 O30         8.1080   -2.2020    1.2340 o         1 CPJ     -0.802050
      4 C26         7.7020   -0.1600   -0.0540 c3        1 CPJ      0.184600
      5 O27         7.2280    0.5740    1.0670 os        1 CPJ     -0.396350
      6 C28         6.3730    1.6540    0.7600 c3        1 CPJ      0.122400
      7 C32         8.4700    0.7050   -1.0450 c3        1 CPJ     -0.122600
      8 O25         6.5460   -0.7560   -0.6220 os        1 CPJ     -0.396350
      9 C24         5.6120    0.1580   -1.1610 c3        1 CPJ      0.122400
     10 C23         5.2520    1.3130   -0.2260 c3        1 CPJ      0.091600
     11 O22         4.1150    0.9500    0.5910 os        1 CPJ     -0.433400
     12 C20         2.8740    1.2280    0.0750 c         1 CPJ      0.724100
     13 O21         2.7600    1.7220   -1.0620 o         1 CPJ     -0.595500
     14 N17         1.8540    0.9780    0.9850 n         1 CPJ     -0.519900
     15 C16         0.4920    0.9480    0.5320 c3        1 CPJ      0.047500
     16 C15        -0.0480   -0.4700    0.2110 c3        1 CPJ      0.047500
     17 N14        -1.3530   -0.4830   -0.3910 n         1 CPJ     -0.519900
     18 C12        -2.4800   -0.3970    0.4240 c         1 CPJ      0.724100
     19 O13        -2.5630   -0.6930    1.6270 o         1 CPJ     -0.595500
     20 O11        -3.5850    0.0240   -0.2760 os        1 CPJ     -0.433400
     21 C3         -4.8700   -0.0610    0.3790 c3        1 CPJ      0.091600
     22 C2         -5.5250    1.3150    0.2200 c3        1 CPJ      0.122400
     23 O1         -6.9200    1.2350    0.4410 os        1 CPJ     -0.396350
     24 C4         -5.6930   -1.1220   -0.3580 c3        1 CPJ      0.122400
     25 O5         -7.0730   -0.9690   -0.0830 os        1 CPJ     -0.396350
     26 C6         -7.6130    0.3100   -0.3860 c3        1 CPJ      0.184600
     27 C10        -7.5180    0.6550   -1.8650 c3        1 CPJ     -0.122600
     28 C7         -9.1340    0.3010    0.0980 c         1 CPJ      0.961600
     29 O8         -9.9790    0.5450   -0.8030 o         1 CPJ     -0.802050
     30 O9         -9.3690    0.0600    1.3010 o         1 CPJ     -0.802050
     31 H281        5.9400    1.9550    1.7520 h1        1 CPJ      0.040825
     32 H282        6.9680    2.5060    0.3310 h1        1 CPJ      0.040825
     33 H321        9.3790    1.1010   -0.5350 hc        1 CPJ      0.036200
     34 H322        8.7940    0.0610   -1.8970 hc        1 CPJ      0.036200
     35 H323        7.8590    1.5530   -1.4330 hc        1 CPJ      0.036200
     36 H241        4.7010   -0.4640   -1.3730 h1        1 CPJ      0.040825
     37 H242        6.0060    0.5850   -2.1230 h1        1 CPJ      0.040825
     38 H23         4.9840    2.2210   -0.8340 h1        1 CPJ      0.082200
     39 H17         2.0880    0.4040    1.7640 hn        1 CPJ      0.315500
     40 H161       -0.1410    1.3940    1.3530 h1        1 CPJ      0.071700
     41 H162        0.4040    1.6020   -0.3830 h1        1 CPJ      0.071700
     42 H151        0.6500   -0.9810   -0.5130 h1        1 CPJ      0.071700
     43 H152       -0.0870   -1.0750    1.1610 h1        1 CPJ      0.071700
     44 H14        -1.4310   -0.0340   -1.2780 hn        1 CPJ      0.315500
     45 H3         -4.7600   -0.3260    1.4630 h1        1 CPJ      0.082200
     46 H21        -5.1530    2.0240    1.0050 h1        1 CPJ      0.040825
     47 H22        -5.3030    1.7320   -0.7980 h1        1 CPJ      0.040825
     48 H41        -5.4950   -1.0650   -1.4610 h1        1 CPJ      0.040825
     49 H42        -5.4430   -2.1500    0.0150 h1        1 CPJ      0.040825
     50 H101       -6.4680    0.6670   -2.2370 hc        1 CPJ      0.036200
     51 H102       -8.1080   -0.0970   -2.4390 hc        1 CPJ      0.036200
     52 H103       -7.9790    1.6590   -2.0210 hc        1 CPJ      0.036200
@<TRIPOS>BOND
     1    1    2 1   
     2    2    3 1   
     3    2    4 1   
     4    4    5 1   
     5    4    7 1   
     6    4    8 1   
     7    5    6 1   
     8    6   10 1   
     9    6   31 1   
    10    6   32 1   
    11    7   33 1   
    12    7   34 1   
    13    7   35 1   
    14    8    9 1   
    15    9   10 1   
    16    9   36 1   
    17    9   37 1   
    18   10   11 1   
    19   10   38 1   
    20   11   12 1   
    21   12   13 2   
    22   12   14 1   
    23   14   15 1   
    24   14   39 1   
    25   15   16 1   
    26   15   40 1   
    27   15   41 1   
    28   16   17 1   
    29   16   42 1   
    30   16   43 1   
    31   17   18 1   
    32   17   44 1   
    33   18   19 2   
    34   18   20 1   
    35   20   21 1   
    36   21   22 1   
    37   21   24 1   
    38   21   45 1   
    39   22   23 1   
    40   22   46 1   
    41   22   47 1   
    42   23   26 1   
    43   24   25 1   
    44   24   48 1   
    45   24   49 1   
    46   25   26 1   
    47   26   27 1   
    48   26   28 1   
    49   27   50 1   
    50   27   51 1   
    51   27   52 1   
    52   28   29 1   
    53   28   30 1   
@<TRIPOS>SUBSTRUCTURE
     1 CPJ         1 TEMP              0 ****  ****    0 ROOT
