@<TRIPOS>MOLECULE
CPJ
   54    55     1     0     0
SMALL
bcc


@<TRIPOS>ATOM
      1 O31         1.8790    0.0520   -0.4770 o         1 CPJ     -0.461000
      2 C29         2.7540   -0.1160    0.3630 c         1 CPJ      0.659100
      3 O30         3.9730    0.3950    0.0660 oh        1 CPJ     -0.557100
      4 C26         2.5640   -0.8540    1.7010 c3        1 CPJ      0.247600
      5 O27         3.4800   -0.2450    2.6080 os        1 CPJ     -0.426600
      6 C28         3.5860   -0.8770    3.8740 c3        1 CPJ      0.123400
      7 C32         1.1180   -0.7880    2.1540 c3        1 CPJ     -0.135100
      8 O25         3.0560   -2.1680    1.4740 os        1 CPJ     -0.426600
      9 C24         3.1020   -2.9950    2.6280 c3        1 CPJ      0.123400
     10 C23         3.9340   -2.3630    3.7410 c3        1 CPJ      0.091100
     11 O22         5.3430   -2.3810    3.4090 os        1 CPJ     -0.402900
     12 C20         5.9800   -3.5840    3.5130 c         1 CPJ      0.741100
     13 O21         5.3750   -4.5850    3.9520 o         1 CPJ     -0.640000
     14 N17         7.2830   -3.5710    3.0410 ns        1 CPJ     -0.549900
     15 C16         8.2160   -4.5580    3.5060 c3        1 CPJ      0.074000
     16 C15         8.1760   -5.8880    2.7270 c3        1 CPJ      0.093800
     17 N14         6.8580   -6.5750    2.8170 ny        1 CPJ     -0.644800
     18 C12         6.9530   -8.0270    2.4260 c         1 CPJ      0.623100
     19 O13         6.3520   -8.4390    1.4440 o         1 CPJ     -0.425000
     20 O11         7.7560   -8.6810    3.2640 os        1 CPJ     -0.407900
     21 C3          7.8120  -10.1540    3.1270 c3        1 CPJ      0.087100
     22 C2          9.1290  -10.5380    3.8140 c3        1 CPJ      0.116400
     23 O1          9.1340  -11.9350    4.0090 os        1 CPJ     -0.370100
     24 C4          6.6300  -10.7670    3.8790 c3        1 CPJ      0.116400
     25 O5          6.8780  -12.1410    4.0800 os        1 CPJ     -0.370100
     26 C6          8.0670  -12.4470    4.7940 c3        1 CPJ      0.145600
     27 C10         8.0650  -11.9300    6.2190 c3        1 CPJ     -0.121100
     28 C7          8.2130  -14.0660    4.7460 c         1 CPJ      0.977600
     29 O8          8.2560  -14.5950    5.8770 o         1 CPJ     -0.761800
     30 O9          8.2660  -14.5750    3.6130 o         1 CPJ     -0.761800
     31 H281        4.4080   -0.3090    4.3880 h1        1 CPJ      0.080700
     32 H282        2.6220   -0.7800    4.4400 h1        1 CPJ      0.080700
     33 H321        0.9540   -1.3850    3.0810 hc        1 CPJ      0.071367
     34 H322        0.4650   -1.1860    1.3380 hc        1 CPJ      0.071367
     35 H323        0.8430    0.2760    2.3510 hc        1 CPJ      0.071367
     36 H241        3.5740   -3.9460    2.2590 h1        1 CPJ      0.080700
     37 H242        2.0660   -3.2030    3.0040 h1        1 CPJ      0.080700
     38 H23         3.7830   -2.9110    4.7100 h1        1 CPJ      0.097700
     39 H17         7.6480   -2.6920    2.7420 hn        1 CPJ      0.349500
     40 H161        8.0490   -4.7770    4.6030 h1        1 CPJ      0.092200
     41 H162        9.2630   -4.1540    3.3810 h1        1 CPJ      0.092200
     42 H151        8.4080   -5.7230    1.6360 hx        1 CPJ      0.120700
     43 H152        8.9600   -6.5720    3.1700 hx        1 CPJ      0.120700
     44 H14         6.1710   -6.1110    2.2060 hn        1 CPJ      0.478800
     45 H3          7.8050  -10.4190    2.0400 h1        1 CPJ      0.107700
     46 H21        10.0070  -10.3290    3.1500 h1        1 CPJ      0.047450
     47 H22         9.2340   -9.9820    4.7820 h1        1 CPJ      0.047450
     48 H41         5.6940  -10.7260    3.2620 h1        1 CPJ      0.047450
     49 H42         6.4760  -10.2300    4.8520 h1        1 CPJ      0.047450
     50 H101        7.9490  -10.8230    6.2810 hc        1 CPJ      0.042700
     51 H102        7.2270  -12.4250    6.7680 hc        1 CPJ      0.042700
     52 H103        9.0240  -12.2330    6.7030 hc        1 CPJ      0.042700
     53 H172        4.5950    0.2210    0.7900 ho        1 CPJ      0.449000
     54 H142        6.5000   -6.5060    3.7850 hn        1 CPJ      0.478800
@<TRIPOS>BOND
     1    1    2 2   
     2    2    3 1   
     3    2    4 1   
     4    3   53 1   
     5    4    5 1   
     6    4    7 1   
     7    4    8 1   
     8    5    6 1   
     9    6   10 1   
    10    6   31 1   
    11    6   32 1   
    12    7   33 1   
    13    7   34 1   
    14    7   35 1   
    15    8    9 1   
    16    9   10 1   
    17    9   36 1   
    18    9   37 1   
    19   10   11 1   
    20   10   38 1   
    21   11   12 1   
    22   12   13 2   
    23   12   14 1   
    24   14   15 1   
    25   14   39 1   
    26   15   16 1   
    27   15   40 1   
    28   15   41 1   
    29   16   17 1   
    30   16   42 1   
    31   16   43 1   
    32   17   18 1   
    33   17   44 1   
    34   17   54 1   
    35   18   19 2   
    36   18   20 1   
    37   20   21 1   
    38   21   22 1   
    39   21   24 1   
    40   21   45 1   
    41   22   23 1   
    42   22   46 1   
    43   22   47 1   
    44   23   26 1   
    45   24   25 1   
    46   24   48 1   
    47   24   49 1   
    48   25   26 1   
    49   26   27 1   
    50   26   28 1   
    51   27   50 1   
    52   27   51 1   
    53   27   52 1   
    54   28   29 1   
    55   28   30 1   
@<TRIPOS>SUBSTRUCTURE
     1 CPJ         1 TEMP              0 ****  ****    0 ROOT
