@<TRIPOS>MOLECULE
CPJ
   54    55     1     0     0
SMALL
bcc


@<TRIPOS>ATOM
      1 O31         1.9320    0.1030   -0.4480 o         1 CPJ     -0.461000
      2 C29         2.7830   -0.0770    0.4150 c         1 CPJ      0.659100
      3 O30         4.0050    0.4540    0.1680 oh        1 CPJ     -0.557100
      4 C26         2.5610   -0.8500    1.7270 c3        1 CPJ      0.247600
      5 O27         3.4420   -0.2550    2.6770 os        1 CPJ     -0.426600
      6 C28         3.5170   -0.9180    3.9300 c3        1 CPJ      0.123400
      7 C32         1.1010   -0.8110    2.1370 c3        1 CPJ     -0.135100
      8 O25         3.0740   -2.1540    1.4830 os        1 CPJ     -0.426600
      9 C24         3.0940   -3.0090    2.6170 c3        1 CPJ      0.123400
     10 C23         3.8850   -2.3960    3.7710 c3        1 CPJ      0.091100
     11 O22         5.3040   -2.3900    3.4810 os        1 CPJ     -0.402900
     12 C20         5.9500   -3.5890    3.5750 c         1 CPJ      0.741100
     13 O21         5.3440   -4.6070    3.9700 o         1 CPJ     -0.640000
     14 N17         7.2670   -3.5500    3.1440 n         1 CPJ     -0.549900
     15 C16         8.1970   -4.5400    3.6130 c3        1 CPJ      0.074000
     16 C15         8.1950   -5.8500    2.8000 c3        1 CPJ      0.093800
     17 N14         6.8830   -6.5520    2.8310 n4        1 CPJ     -0.644800
     18 C12         7.0060   -7.9930    2.4070 c         1 CPJ      0.623100
     19 O13         6.4430   -8.3860    1.3970 o         1 CPJ     -0.425000
     20 O11         7.7880   -8.6600    3.2560 os        1 CPJ     -0.407900
     21 C3          7.8640  -10.1280    3.0850 c3        1 CPJ      0.087100
     22 C2          9.1580  -10.5170    3.8100 c3        1 CPJ      0.116400
     23 O1          9.1700  -11.9180    3.9700 os        1 CPJ     -0.370100
     24 C4          6.6610  -10.7710    3.7760 c3        1 CPJ      0.116400
     25 O5          6.9150  -12.1480    3.9520 os        1 CPJ     -0.370100
     26 C6          8.0800  -12.4600    4.7020 c3        1 CPJ      0.145600
     27 C10         8.0200  -11.9800    6.1380 c3        1 CPJ     -0.121100
     28 C7          8.2440  -14.0760    4.6190 c         1 CPJ      0.977600
     29 O8          8.2500  -14.6330    5.7370 o         1 CPJ     -0.761800
     30 O9          8.3440  -14.5560    3.4770 o         1 CPJ     -0.761800
     31 H281        2.5350   -0.8450    4.4680 h1        1 CPJ      0.080700
     32 H282        4.3160   -0.3540    4.4830 h1        1 CPJ      0.080700
     33 H321        0.4770   -1.1950    1.2920 hc        1 CPJ      0.071367
     34 H322        0.8080    0.2450    2.3520 hc        1 CPJ      0.071367
     35 H323        0.9160   -1.4320    3.0440 hc        1 CPJ      0.071367
     36 H241        2.0500   -3.2370    2.9560 h1        1 CPJ      0.080700
     37 H242        3.5880   -3.9440    2.2390 h1        1 CPJ      0.080700
     38 H23         3.7110   -2.9700    4.7200 h1        1 CPJ      0.097700
     39 H17         7.6310   -2.6600    2.8780 hn        1 CPJ      0.349500
     40 H161        9.2430   -4.1210    3.5310 h1        1 CPJ      0.092200
     41 H162        7.9990   -4.7890    4.6980 h1        1 CPJ      0.092200
     42 H151        8.9720   -6.5370    3.2500 hx        1 CPJ      0.120700
     43 H152        8.4590   -5.6540    1.7220 hx        1 CPJ      0.120700
     44 H14         6.4940   -6.5110    3.7880 hn        1 CPJ      0.478800
     45 H3          7.8990  -10.3660    1.9920 h1        1 CPJ      0.107700
     46 H21         9.2220   -9.9850    4.7950 h1        1 CPJ      0.047450
     47 H22        10.0570  -10.2840    3.1840 h1        1 CPJ      0.047450
     48 H41         6.4660  -10.2600    4.7560 h1        1 CPJ      0.047450
     49 H42         5.7480  -10.7230    3.1270 h1        1 CPJ      0.047450
     50 H101        7.1680  -12.4960    6.6430 hc        1 CPJ      0.042700
     51 H102        8.9640  -12.2860    6.6500 hc        1 CPJ      0.042700
     52 H103        7.8910  -10.8760    6.2240 hc        1 CPJ      0.042700
     53 H172        4.6070    0.2680    0.9060 ho        1 CPJ      0.449000
     54 H142        6.2110   -6.0800    2.2100 hn        1 CPJ      0.478800
@<TRIPOS>BOND
     1    1    2 2   
     2    2    3 1   
     3    2    4 1   
     4    3   53 1   
     5    4    5 1   
     6    4    7 1   
     7    4    8 1   
     8    5    6 1   
     9    6   10 1   
    10    6   31 1   
    11    6   32 1   
    12    7   33 1   
    13    7   34 1   
    14    7   35 1   
    15    8    9 1   
    16    9   10 1   
    17    9   36 1   
    18    9   37 1   
    19   10   11 1   
    20   10   38 1   
    21   11   12 1   
    22   12   13 2   
    23   12   14 1   
    24   14   15 1   
    25   14   39 1   
    26   15   16 1   
    27   15   40 1   
    28   15   41 1   
    29   16   17 1   
    30   16   42 1   
    31   16   43 1   
    32   17   18 1   
    33   17   44 1   
    34   17   54 1   
    35   18   19 2   
    36   18   20 1   
    37   20   21 1   
    38   21   22 1   
    39   21   24 1   
    40   21   45 1   
    41   22   23 1   
    42   22   46 1   
    43   22   47 1   
    44   23   26 1   
    45   24   25 1   
    46   24   48 1   
    47   24   49 1   
    48   25   26 1   
    49   26   27 1   
    50   26   28 1   
    51   27   50 1   
    52   27   51 1   
    53   27   52 1   
    54   28   29 1   
    55   28   30 1   
@<TRIPOS>SUBSTRUCTURE
     1 CPJ         1 TEMP              0 ****  ****    0 ROOT
