@<TRIPOS>MOLECULE
CPK
   56    58     1     0     0
SMALL
bcc


@<TRIPOS>ATOM
      1 O30         8.3220   -2.8550   -0.8090 o         1 CPK     -0.802550
      2 C29         7.1180   -2.5170   -0.9580 c         1 CPK      0.962100
      3 O31         6.2640   -3.0820   -1.6740 o         1 CPK     -0.802550
      4 C26         6.6810   -1.2240   -0.1340 c3        1 CPK      0.184600
      5 O27         5.7080   -1.6360    0.8160 os        1 CPK     -0.396600
      6 C28         5.2090   -0.6100    1.6470 c3        1 CPK      0.121900
      7 C32         7.8930   -0.5620    0.5080 c3        1 CPK     -0.122600
      8 O25         5.9820   -0.3600   -1.0160 os        1 CPK     -0.396600
      9 C24         5.5370    0.8480   -0.4320 c3        1 CPK      0.121900
     10 C23         4.8320    0.6800    0.9130 c3        1 CPK      0.096600
     11 O22         3.3960    0.6050    0.7350 os        1 CPK     -0.426900
     12 C20         2.7490    1.8010    0.5420 c         1 CPK      0.724100
     13 O21         3.4200    2.8470    0.4440 o         1 CPK     -0.601500
     14 N17         1.3550    1.7350    0.5770 n         1 CPK     -0.417300
     15 C16         0.6250    2.8870    0.0860 c3        1 CPK      0.046000
     16 C15        -0.0640    2.6580   -1.2780 c3        1 CPK      0.046000
     17 C18         0.6650    0.4680    0.4570 c3        1 CPK      0.046000
     18 C19        -0.0710    0.2600   -0.8880 c3        1 CPK      0.046000
     19 N14        -0.8110    1.4150   -1.3550 n         1 CPK     -0.417300
     20 C12        -2.1930    1.5080   -1.1300 c         1 CPK      0.724100
     21 O13        -2.8780    2.5370   -1.2720 o         1 CPK     -0.601500
     22 O11        -2.8150    0.3250   -0.8130 os        1 CPK     -0.426900
     23 C3         -4.2610    0.3480   -0.7950 c3        1 CPK      0.096600
     24 C2         -4.6970   -1.1070   -0.9920 c3        1 CPK      0.121900
     25 O1         -6.0730   -1.2430   -0.6900 os        1 CPK     -0.396600
     26 C4         -4.7610    0.8540    0.5590 c3        1 CPK      0.121900
     27 O5         -6.1300    0.5340    0.7320 os        1 CPK     -0.396600
     28 C6         -6.4490   -0.8470    0.6230 c3        1 CPK      0.184600
     29 C10        -5.7880   -1.6930    1.7010 c3        1 CPK     -0.122600
     30 C7         -8.0390   -0.9580    0.7070 c         1 CPK      0.962100
     31 O8         -8.7160   -0.4410   -0.2080 o         1 CPK     -0.802550
     32 O9         -8.4770   -1.5740    1.7120 o         1 CPK     -0.802550
     33 H281        4.3010   -1.0630    2.1310 h1        1 CPK      0.042825
     34 H282        5.9700   -0.3540    2.4340 h1        1 CPK      0.042825
     35 H321        8.4050   -1.3150    1.1530 hc        1 CPK      0.036533
     36 H322        8.5960   -0.2520   -0.3010 hc        1 CPK      0.036533
     37 H323        7.6170    0.3280    1.1200 hc        1 CPK      0.036533
     38 H241        4.8280    1.2820   -1.1870 h1        1 CPK      0.042825
     39 H242        6.4080    1.5460   -0.2950 h1        1 CPK      0.042825
     40 H23         5.0540    1.5720    1.5640 h1        1 CPK      0.072700
     41 H161       -0.1590    3.1290    0.8590 h1        1 CPK      0.077325
     42 H162        1.3180    3.7690   -0.0100 h1        1 CPK      0.077325
     43 H151       -0.7490    3.5280   -1.4800 h1        1 CPK      0.077325
     44 H152        0.7170    2.6150   -2.0900 h1        1 CPK      0.077325
     45 H181        1.3870   -0.3860    0.5930 h1        1 CPK      0.077325
     46 H182       -0.0910    0.4330    1.2940 h1        1 CPK      0.077325
     47 H191       -0.7580   -0.6230   -0.7770 h1        1 CPK      0.077325
     48 H192        0.6890    0.0220   -1.6880 h1        1 CPK      0.077325
     49 H3         -4.6460    1.0000   -1.6230 h1        1 CPK      0.072700
     50 H21        -4.6090   -1.4070   -2.0680 h1        1 CPK      0.042825
     51 H22        -4.0730   -1.7880   -0.3570 h1        1 CPK      0.042825
     52 H41        -4.1390    0.4230    1.3860 h1        1 CPK      0.042825
     53 H42        -4.7220    1.9750    0.5980 h1        1 CPK      0.042825
     54 H101       -4.6770   -1.6100    1.6920 hc        1 CPK      0.036533
     55 H102       -6.1790   -1.3620    2.6930 hc        1 CPK      0.036533
     56 H103       -6.0820   -2.7570    1.5430 hc        1 CPK      0.036533
@<TRIPOS>BOND
     1    1    2 1   
     2    2    3 1   
     3    2    4 1   
     4    4    5 1   
     5    4    7 1   
     6    4    8 1   
     7    5    6 1   
     8    6   10 1   
     9    6   33 1   
    10    6   34 1   
    11    7   35 1   
    12    7   36 1   
    13    7   37 1   
    14    8    9 1   
    15    9   10 1   
    16    9   38 1   
    17    9   39 1   
    18   10   11 1   
    19   10   40 1   
    20   11   12 1   
    21   12   13 2   
    22   12   14 1   
    23   14   15 1   
    24   14   17 1   
    25   15   16 1   
    26   15   41 1   
    27   15   42 1   
    28   16   19 1   
    29   16   43 1   
    30   16   44 1   
    31   17   18 1   
    32   17   45 1   
    33   17   46 1   
    34   18   19 1   
    35   18   47 1   
    36   18   48 1   
    37   19   20 1   
    38   20   21 2   
    39   20   22 1   
    40   22   23 1   
    41   23   24 1   
    42   23   26 1   
    43   23   49 1   
    44   24   25 1   
    45   24   50 1   
    46   24   51 1   
    47   25   28 1   
    48   26   27 1   
    49   26   52 1   
    50   26   53 1   
    51   27   28 1   
    52   28   29 1   
    53   28   30 1   
    54   29   54 1   
    55   29   55 1   
    56   29   56 1   
    57   30   31 1   
    58   30   32 1   
@<TRIPOS>SUBSTRUCTURE
     1 CPK         1 TEMP              0 ****  ****    0 ROOT
