@<TRIPOS>MOLECULE
CPK
   56    58     1     0     0
SMALL
bcc


@<TRIPOS>ATOM
      1 O30         7.3180    3.6720    0.7470 o         1 CPK     -0.815800
      2 C29         6.2600    3.9040    1.3900 c         1 CPK      0.932600
      3 O31         6.1560    3.5290    2.5830 o         1 CPK     -0.815800
      4 C26         5.1010    4.6020    0.7110 c3        1 CPK      0.197100
      5 O27         3.8680    4.5280    1.5220 os        1 CPK     -0.418350
      6 C28         2.7310    5.0710    0.8640 c3        1 CPK      0.125650
      7 C32         5.6060    5.9690    0.6220 c3        1 CPK     -0.090600
      8 O25         4.8350    4.0170   -0.6430 os        1 CPK     -0.418350
      9 C24         3.7030    4.5580   -1.2770 c3        1 CPK      0.125650
     10 C23         2.5270    4.5050   -0.4560 c3        1 CPK      0.098600
     11 O22         2.1170    3.0670   -0.3030 os        1 CPK     -0.422900
     12 C20         0.7160    2.8700   -0.2430 c         1 CPK      0.731100
     13 O21        -0.0060    3.7680    0.1360 o         1 CPK     -0.607500
     14 N17         0.1560    1.5560   -0.5270 n         1 CPK     -0.429800
     15 C16        -0.1240    0.6490    0.5400 c3        1 CPK      0.064000
     16 C15        -1.1540   -0.3830    0.1600 c3        1 CPK      0.064000
     17 C18         0.4780    0.8940   -1.7380 c3        1 CPK      0.064000
     18 C19        -0.5560   -0.1500   -2.1220 c3        1 CPK      0.064000
     19 N14        -0.8300   -1.0510   -1.0690 n         1 CPK     -0.429800
     20 C12        -1.4020   -2.3550   -1.3600 c         1 CPK      0.731100
     21 O13        -1.0980   -2.9270   -2.3510 o         1 CPK     -0.607500
     22 O11        -2.3290   -2.9390   -0.4620 os        1 CPK     -0.422900
     23 C3         -2.5040   -4.4530   -0.6480 c3        1 CPK      0.098600
     24 C2         -2.2510   -5.1000    0.6070 c3        1 CPK      0.125650
     25 O1         -3.2440   -4.8290    1.5700 os        1 CPK     -0.418350
     26 C4         -3.8190   -4.7000   -1.1450 c3        1 CPK      0.125650
     27 O5         -4.8210   -4.4270   -0.1940 os        1 CPK     -0.418350
     28 C6         -4.6070   -5.1080    1.0980 c3        1 CPK      0.197100
     29 C10        -5.6500   -4.7540    2.1050 c3        1 CPK     -0.090600
     30 C7         -4.8240   -6.5540    0.9700 c         1 CPK      0.932600
     31 O8         -5.6600   -6.9970    0.1220 o         1 CPK     -0.815800
     32 O9         -4.2870   -7.3480    1.8050 o         1 CPK     -0.815800
     33 H281        1.9350    4.8960    1.4080 h1        1 CPK      0.055825
     34 H282        2.8520    6.0670    0.7770 h1        1 CPK      0.055825
     35 H321        4.8910    6.5600    0.3710 hc        1 CPK      0.037200
     36 H322        6.3240    6.0120   -0.0590 hc        1 CPK      0.037200
     37 H323        5.9730    6.2470    1.5160 hc        1 CPK      0.037200
     38 H241        3.5290    4.0420   -2.1240 h1        1 CPK      0.055825
     39 H242        3.8950    5.5410   -1.5190 h1        1 CPK      0.055825
     40 H23         1.8430    4.9700   -0.8820 h1        1 CPK      0.066200
     41 H161        0.7210    0.1800    0.7980 h1        1 CPK      0.069825
     42 H162       -0.4620    1.1750    1.3340 h1        1 CPK      0.069825
     43 H151       -1.2130   -1.0460    0.8730 h1        1 CPK      0.069825
     44 H152       -2.0020    0.0450    0.0660 h1        1 CPK      0.069825
     45 H181        0.5360    1.5410   -2.4370 h1        1 CPK      0.069825
     46 H182        1.3690    0.4480   -1.6350 h1        1 CPK      0.069825
     47 H191       -0.2380   -0.6330   -2.8570 h1        1 CPK      0.069825
     48 H192       -1.4120    0.3190   -2.3840 h1        1 CPK      0.069825
     49 H3         -1.8450   -4.7720   -1.3120 h1        1 CPK      0.066200
     50 H21        -2.2140   -6.0620    0.4600 h1        1 CPK      0.055825
     51 H22        -1.3580   -4.7910    0.9600 h1        1 CPK      0.055825
     52 H41        -3.9690   -4.1460   -1.9260 h1        1 CPK      0.055825
     53 H42        -3.8850   -5.6420   -1.4080 h1        1 CPK      0.055825
     54 H101       -6.5360   -5.1810    1.8340 hc        1 CPK      0.037200
     55 H102       -5.7550   -3.7680    2.1430 hc        1 CPK      0.037200
     56 H103       -5.3830   -5.0880    2.9880 hc        1 CPK      0.037200
@<TRIPOS>BOND
     1    1    2 1   
     2    2    3 1   
     3    2    4 1   
     4    4    5 1   
     5    4    7 1   
     6    4    8 1   
     7    5    6 1   
     8    6   10 1   
     9    6   33 1   
    10    6   34 1   
    11    7   35 1   
    12    7   36 1   
    13    7   37 1   
    14    8    9 1   
    15    9   10 1   
    16    9   38 1   
    17    9   39 1   
    18   10   11 1   
    19   10   40 1   
    20   11   12 1   
    21   12   13 2   
    22   12   14 1   
    23   14   15 1   
    24   14   17 1   
    25   15   16 1   
    26   15   41 1   
    27   15   42 1   
    28   16   19 1   
    29   16   43 1   
    30   16   44 1   
    31   17   18 1   
    32   17   45 1   
    33   17   46 1   
    34   18   19 1   
    35   18   47 1   
    36   18   48 1   
    37   19   20 1   
    38   20   21 2   
    39   20   22 1   
    40   22   23 1   
    41   23   24 1   
    42   23   26 1   
    43   23   49 1   
    44   24   25 1   
    45   24   50 1   
    46   24   51 1   
    47   25   28 1   
    48   26   27 1   
    49   26   52 1   
    50   26   53 1   
    51   27   28 1   
    52   28   29 1   
    53   28   30 1   
    54   29   54 1   
    55   29   55 1   
    56   29   56 1   
    57   30   31 1   
    58   30   32 1   
@<TRIPOS>SUBSTRUCTURE
     1 CPK         1 TEMP              0 ****  ****    0 ROOT
