@<TRIPOS>MOLECULE
CPK
   56    58     1     0     0
SMALL
bcc


@<TRIPOS>ATOM
      1 O30        -0.0910    1.7380    0.7920 o         1 CPK     -0.802550
      2 C29         0.4620    0.6090    0.7270 c         1 CPK      0.962100
      3 O31         0.1330   -0.3450   -0.0080 o         1 CPK     -0.802550
      4 C26         1.7050    0.4180    1.7070 c3        1 CPK      0.184600
      5 O27         2.8590    0.2400    0.8970 os        1 CPK     -0.396600
      6 C28         4.0670    0.0620    1.6050 c3        1 CPK      0.121900
      7 C32         1.8250    1.6000    2.6590 c3        1 CPK     -0.122600
      8 O25         1.5430   -0.8200    2.3820 os        1 CPK     -0.396600
      9 C24         2.5680   -1.1300    3.3050 c3        1 CPK      0.121900
     10 C23         3.9850   -0.9300    2.7700 c3        1 CPK      0.096600
     11 O22         4.5160   -2.1720    2.2440 os        1 CPK     -0.426900
     12 C20         4.9890   -3.0650    3.1730 c         1 CPK      0.724100
     13 O21         4.8600   -2.8090    4.3860 o         1 CPK     -0.601500
     14 N17         5.6800   -4.1590    2.6470 n         1 CPK     -0.417300
     15 C16         5.9340   -5.2730    3.5390 c3        1 CPK      0.046000
     16 C15         5.0740   -6.5220    3.2440 c3        1 CPK      0.046000
     17 C18         5.5790   -4.5010    1.2440 c3        1 CPK      0.046000
     18 C19         4.7620   -5.7820    0.9510 c3        1 CPK      0.046000
     19 N14         5.0420   -6.8920    1.8400 n         1 CPK     -0.417300
     20 C12         5.9270   -7.9080    1.4470 c         1 CPK      0.724100
     21 O13         6.4170   -8.7680    2.2010 o         1 CPK     -0.601500
     22 O11         6.1780   -7.9750    0.0980 os        1 CPK     -0.426900
     23 C3          6.9030   -9.1400   -0.3600 c3        1 CPK      0.096600
     24 C2          6.5630   -9.2760   -1.8470 c3        1 CPK      0.121900
     25 O1          7.4480  -10.1940   -2.4620 os        1 CPK     -0.396600
     26 C4          8.4080   -8.9200   -0.1960 c3        1 CPK      0.121900
     27 O5          9.1330   -9.8610   -0.9670 os        1 CPK     -0.396600
     28 C6          8.8290   -9.8720   -2.3550 c3        1 CPK      0.184600
     29 C10         9.1790   -8.5620   -3.0460 c3        1 CPK     -0.122600
     30 C7          9.6430  -11.0870   -2.9930 c         1 CPK      0.962100
     31 O8          9.3490  -12.2480   -2.6340 o         1 CPK     -0.802550
     32 O9         10.5280  -10.7570   -3.8240 o         1 CPK     -0.802550
     33 H281        4.4200    1.0490    2.0120 h1        1 CPK      0.042825
     34 H282        4.7910   -0.3080    0.8290 h1        1 CPK      0.042825
     35 H321        1.9120    2.5330    2.0520 hc        1 CPK      0.036533
     36 H322        0.8930    1.6590    3.2680 hc        1 CPK      0.036533
     37 H323        2.7070    1.5120    3.3370 hc        1 CPK      0.036533
     38 H241        2.4430   -0.5060    4.2320 h1        1 CPK      0.042825
     39 H242        2.4010   -2.2110    3.5590 h1        1 CPK      0.042825
     40 H23         4.6550   -0.5940    3.6090 h1        1 CPK      0.072700
     41 H161        5.7520   -4.9610    4.6060 h1        1 CPK      0.077325
     42 H162        7.0240   -5.5400    3.4240 h1        1 CPK      0.077325
     43 H151        4.0080   -6.3230    3.5490 h1        1 CPK      0.077325
     44 H152        5.4710   -7.3800    3.8560 h1        1 CPK      0.077325
     45 H181        5.1120   -3.6530    0.6670 h1        1 CPK      0.077325
     46 H182        6.6330   -4.6480    0.8730 h1        1 CPK      0.077325
     47 H191        3.6640   -5.5510    1.0650 h1        1 CPK      0.077325
     48 H192        4.9540   -6.0820   -0.1170 h1        1 CPK      0.077325
     49 H3          6.5760  -10.0470    0.2130 h1        1 CPK      0.072700
     50 H21         5.5450   -9.7240   -1.9840 h1        1 CPK      0.042825
     51 H22         6.6060   -8.2740   -2.3480 h1        1 CPK      0.042825
     52 H41         8.6780   -7.8700   -0.4830 h1        1 CPK      0.042825
     53 H42         8.7200   -9.1160    0.8640 h1        1 CPK      0.042825
     54 H101       10.2820   -8.4120   -2.9710 hc        1 CPK      0.036533
     55 H102        8.6520   -7.6870   -2.6010 hc        1 CPK      0.036533
     56 H103        8.9060   -8.6490   -4.1240 hc        1 CPK      0.036533
@<TRIPOS>BOND
     1    1    2 1   
     2    2    3 1   
     3    2    4 1   
     4    4    5 1   
     5    4    7 1   
     6    4    8 1   
     7    5    6 1   
     8    6   10 1   
     9    6   33 1   
    10    6   34 1   
    11    7   35 1   
    12    7   36 1   
    13    7   37 1   
    14    8    9 1   
    15    9   10 1   
    16    9   38 1   
    17    9   39 1   
    18   10   11 1   
    19   10   40 1   
    20   11   12 1   
    21   12   13 2   
    22   12   14 1   
    23   14   15 1   
    24   14   17 1   
    25   15   16 1   
    26   15   41 1   
    27   15   42 1   
    28   16   19 1   
    29   16   43 1   
    30   16   44 1   
    31   17   18 1   
    32   17   45 1   
    33   17   46 1   
    34   18   19 1   
    35   18   47 1   
    36   18   48 1   
    37   19   20 1   
    38   20   21 2   
    39   20   22 1   
    40   22   23 1   
    41   23   24 1   
    42   23   26 1   
    43   23   49 1   
    44   24   25 1   
    45   24   50 1   
    46   24   51 1   
    47   25   28 1   
    48   26   27 1   
    49   26   52 1   
    50   26   53 1   
    51   27   28 1   
    52   28   29 1   
    53   28   30 1   
    54   29   54 1   
    55   29   55 1   
    56   29   56 1   
    57   30   31 1   
    58   30   32 1   
@<TRIPOS>SUBSTRUCTURE
     1 CPK         1 TEMP              0 ****  ****    0 ROOT
