@<TRIPOS>MOLECULE
CPK
   56    58     1     0     0
SMALL
bcc


@<TRIPOS>ATOM
      1 O30        -0.0850    1.7450    0.8020 o         1 CPK     -0.802550
      2 C29         0.4740    0.6190    0.7270 c         1 CPK      0.962100
      3 O31         0.1530   -0.3280   -0.0200 o         1 CPK     -0.802550
      4 C26         1.7130    0.4230    1.7110 c3        1 CPK      0.184600
      5 O27         2.8700    0.2450    0.9050 os        1 CPK     -0.396600
      6 C28         4.0750    0.0620    1.6170 c3        1 CPK      0.121900
      7 C32         1.8330    1.6020    2.6670 c3        1 CPK     -0.122600
      8 O25         1.5460   -0.8170    2.3810 os        1 CPK     -0.396600
      9 C24         2.5670   -1.1320    3.3070 c3        1 CPK      0.121900
     10 C23         3.9870   -0.9330    2.7770 c3        1 CPK      0.096600
     11 O22         4.5170   -2.1740    2.2500 os        1 CPK     -0.426900
     12 C20         4.9850   -3.0720    3.1780 c         1 CPK      0.724100
     13 O21         4.8530   -2.8190    4.3910 o         1 CPK     -0.601500
     14 N17         5.6760   -4.1650    2.6510 n         1 CPK     -0.417300
     15 C16         5.9240   -5.2830    3.5400 c3        1 CPK      0.046000
     16 C15         5.0630   -6.5290    3.2370 c3        1 CPK      0.046000
     17 C18         5.5780   -4.5020    1.2460 c3        1 CPK      0.046000
     18 C19         4.7600   -5.7810    0.9460 c3        1 CPK      0.046000
     19 N14         5.0350   -6.8950    1.8320 n         1 CPK     -0.417300
     20 C12         5.9190   -7.9100    1.4390 c         1 CPK      0.724100
     21 O13         6.4050   -8.7740    2.1920 o         1 CPK     -0.601500
     22 O11         6.1750   -7.9740    0.0910 os        1 CPK     -0.426900
     23 C3          6.8990   -9.1390   -0.3680 c3        1 CPK      0.096600
     24 C2          6.5640   -9.2700   -1.8570 c3        1 CPK      0.121900
     25 O1          7.4490  -10.1880   -2.4710 os        1 CPK     -0.396600
     26 C4          8.4040   -8.9230   -0.1980 c3        1 CPK      0.121900
     27 O5          9.1290   -9.8630   -0.9690 os        1 CPK     -0.396600
     28 C6          8.8300   -9.8690   -2.3580 c3        1 CPK      0.184600
     29 C10         9.1850   -8.5580   -3.0450 c3        1 CPK     -0.122600
     30 C7          9.6440  -11.0840   -2.9970 c         1 CPK      0.962100
     31 O8          9.3460  -12.2450   -2.6430 o         1 CPK     -0.802550
     32 O9         10.5330  -10.7530   -3.8240 o         1 CPK     -0.802550
     33 H281        4.4280    1.0470    2.0280 h1        1 CPK      0.042825
     34 H282        4.8010   -0.3070    0.8420 h1        1 CPK      0.042825
     35 H321        2.7110    1.5090    3.3480 hc        1 CPK      0.036533
     36 H322        1.9250    2.5360    2.0630 hc        1 CPK      0.036533
     37 H323        0.8980    1.6620    3.2720 hc        1 CPK      0.036533
     38 H241        2.4410   -0.5110    4.2350 h1        1 CPK      0.042825
     39 H242        2.3980   -2.2140    3.5560 h1        1 CPK      0.042825
     40 H23         4.6550   -0.6010    3.6200 h1        1 CPK      0.072700
     41 H161        5.7400   -4.9740    4.6070 h1        1 CPK      0.077325
     42 H162        7.0140   -5.5510    3.4280 h1        1 CPK      0.077325
     43 H151        3.9960   -6.3290    3.5390 h1        1 CPK      0.077325
     44 H152        5.4560   -7.3890    3.8480 h1        1 CPK      0.077325
     45 H181        6.6340   -4.6510    0.8770 h1        1 CPK      0.077325
     46 H182        5.1150   -3.6520    0.6700 h1        1 CPK      0.077325
     47 H191        3.6620   -5.5480    1.0570 h1        1 CPK      0.077325
     48 H192        4.9550   -6.0780   -0.1220 h1        1 CPK      0.077325
     49 H3          6.5680  -10.0470    0.2020 h1        1 CPK      0.072700
     50 H21         5.5450   -9.7160   -1.9990 h1        1 CPK      0.042825
     51 H22         6.6100   -8.2670   -2.3550 h1        1 CPK      0.042825
     52 H41         8.6770   -7.8730   -0.4820 h1        1 CPK      0.042825
     53 H42         8.7110   -9.1220    0.8620 h1        1 CPK      0.042825
     54 H101       10.2880   -8.4100   -2.9660 hc        1 CPK      0.036533
     55 H102        8.6590   -7.6830   -2.5980 hc        1 CPK      0.036533
     56 H103        8.9150   -8.6410   -4.1240 hc        1 CPK      0.036533
@<TRIPOS>BOND
     1    1    2 1   
     2    2    3 1   
     3    2    4 1   
     4    4    5 1   
     5    4    7 1   
     6    4    8 1   
     7    5    6 1   
     8    6   10 1   
     9    6   33 1   
    10    6   34 1   
    11    7   35 1   
    12    7   36 1   
    13    7   37 1   
    14    8    9 1   
    15    9   10 1   
    16    9   38 1   
    17    9   39 1   
    18   10   11 1   
    19   10   40 1   
    20   11   12 1   
    21   12   13 2   
    22   12   14 1   
    23   14   15 1   
    24   14   17 1   
    25   15   16 1   
    26   15   41 1   
    27   15   42 1   
    28   16   19 1   
    29   16   43 1   
    30   16   44 1   
    31   17   18 1   
    32   17   45 1   
    33   17   46 1   
    34   18   19 1   
    35   18   47 1   
    36   18   48 1   
    37   19   20 1   
    38   20   21 2   
    39   20   22 1   
    40   22   23 1   
    41   23   24 1   
    42   23   26 1   
    43   23   49 1   
    44   24   25 1   
    45   24   50 1   
    46   24   51 1   
    47   25   28 1   
    48   26   27 1   
    49   26   52 1   
    50   26   53 1   
    51   27   28 1   
    52   28   29 1   
    53   28   30 1   
    54   29   54 1   
    55   29   55 1   
    56   29   56 1   
    57   30   31 1   
    58   30   32 1   
@<TRIPOS>SUBSTRUCTURE
     1 CPK         1 TEMP              0 ****  ****    0 ROOT
