@<TRIPOS>MOLECULE
CPK
   56    58     1     0     0
SMALL
bcc


@<TRIPOS>ATOM
      1 O30        -0.1190    1.7200    0.8240 o         1 CPK     -0.802550
      2 C29         0.4550    0.6030    0.7360 c         1 CPK      0.962100
      3 O31         0.1450   -0.3420   -0.0200 o         1 CPK     -0.802550
      4 C26         1.7010    0.4140    1.7130 c3        1 CPK      0.184600
      5 O27         2.8540    0.2370    0.9010 os        1 CPK     -0.396600
      6 C28         4.0640    0.0610    1.6070 c3        1 CPK      0.121900
      7 C32         1.8220    1.5970    2.6640 c3        1 CPK     -0.122600
      8 O25         1.5410   -0.8240    2.3880 os        1 CPK     -0.396600
      9 C24         2.5680   -1.1320    3.3090 c3        1 CPK      0.121900
     10 C23         3.9850   -0.9310    2.7720 c3        1 CPK      0.096600
     11 O22         4.5160   -2.1720    2.2450 os        1 CPK     -0.426900
     12 C20         4.9920   -3.0650    3.1740 c         1 CPK      0.724100
     13 O21         4.8660   -2.8080    4.3870 o         1 CPK     -0.601500
     14 N17         5.6840   -4.1570    2.6460 n         1 CPK     -0.417800
     15 C16         5.9410   -5.2710    3.5380 c3        1 CPK      0.046000
     16 C15         5.0820   -6.5210    3.2450 c3        1 CPK      0.046000
     17 C18         5.5790   -4.5000    1.2430 c3        1 CPK      0.046000
     18 C19         4.7640   -5.7820    0.9530 c3        1 CPK      0.046000
     19 N14         5.0470   -6.8920    1.8410 n         1 CPK     -0.417800
     20 C12         5.9320   -7.9070    1.4470 c         1 CPK      0.724100
     21 O13         6.4250   -8.7660    2.2000 o         1 CPK     -0.601500
     22 O11         6.1800   -7.9740    0.0980 os        1 CPK     -0.426900
     23 C3          6.9050   -9.1390   -0.3610 c3        1 CPK      0.096600
     24 C2          6.5610   -9.2770   -1.8480 c3        1 CPK      0.121900
     25 O1          7.4450  -10.1940   -2.4640 os        1 CPK     -0.396600
     26 C4          8.4100   -8.9170   -0.2020 c3        1 CPK      0.121900
     27 O5          9.1340   -9.8580   -0.9740 os        1 CPK     -0.396600
     28 C6          8.8260   -9.8700   -2.3610 c3        1 CPK      0.184600
     29 C10         9.1730   -8.5610   -3.0540 c3        1 CPK     -0.122600
     30 C7          9.6400  -11.0850   -3.0000 c         1 CPK      0.962100
     31 O8          9.3480  -12.2460   -2.6390 o         1 CPK     -0.802550
     32 O9         10.5230  -10.7550   -3.8340 o         1 CPK     -0.802550
     33 H281        4.7870   -0.3080    0.8300 h1        1 CPK      0.042825
     34 H282        4.4150    1.0480    2.0130 h1        1 CPK      0.042825
     35 H321        2.7030    1.5090    3.3420 hc        1 CPK      0.036533
     36 H322        1.9100    2.5290    2.0560 hc        1 CPK      0.036533
     37 H323        0.8900    1.6580    3.2720 hc        1 CPK      0.036533
     38 H241        2.4040   -2.2140    3.5630 h1        1 CPK      0.042825
     39 H242        2.4450   -0.5090    4.2370 h1        1 CPK      0.042825
     40 H23         4.6560   -0.5940    3.6100 h1        1 CPK      0.072700
     41 H161        7.0310   -5.5360    3.4210 h1        1 CPK      0.077325
     42 H162        5.7610   -4.9590    4.6050 h1        1 CPK      0.077325
     43 H151        5.4810   -7.3780    3.8560 h1        1 CPK      0.077325
     44 H152        4.0160   -6.3230    3.5520 h1        1 CPK      0.077325
     45 H181        5.1100   -3.6530    0.6670 h1        1 CPK      0.077325
     46 H182        6.6340   -4.6460    0.8700 h1        1 CPK      0.077325
     47 H191        3.6660   -5.5520    1.0690 h1        1 CPK      0.077325
     48 H192        4.9540   -6.0820   -0.1150 h1        1 CPK      0.077325
     49 H3          6.5800  -10.0460    0.2130 h1        1 CPK      0.072700
     50 H21         5.5430   -9.7260   -1.9820 h1        1 CPK      0.042825
     51 H22         6.6020   -8.2750   -2.3500 h1        1 CPK      0.042825
     52 H41         8.7250   -9.1120    0.8580 h1        1 CPK      0.042825
     53 H42         8.6780   -7.8680   -0.4910 h1        1 CPK      0.042825
     54 H101       10.2760   -8.4090   -2.9820 hc        1 CPK      0.036533
     55 H102        8.8980   -8.6490   -4.1310 hc        1 CPK      0.036533
     56 H103        8.6470   -7.6860   -2.6080 hc        1 CPK      0.036533
@<TRIPOS>BOND
     1    1    2 1   
     2    2    3 1   
     3    2    4 1   
     4    4    5 1   
     5    4    7 1   
     6    4    8 1   
     7    5    6 1   
     8    6   10 1   
     9    6   33 1   
    10    6   34 1   
    11    7   35 1   
    12    7   36 1   
    13    7   37 1   
    14    8    9 1   
    15    9   10 1   
    16    9   38 1   
    17    9   39 1   
    18   10   11 1   
    19   10   40 1   
    20   11   12 1   
    21   12   13 2   
    22   12   14 1   
    23   14   15 1   
    24   14   17 1   
    25   15   16 1   
    26   15   41 1   
    27   15   42 1   
    28   16   19 1   
    29   16   43 1   
    30   16   44 1   
    31   17   18 1   
    32   17   45 1   
    33   17   46 1   
    34   18   19 1   
    35   18   47 1   
    36   18   48 1   
    37   19   20 1   
    38   20   21 2   
    39   20   22 1   
    40   22   23 1   
    41   23   24 1   
    42   23   26 1   
    43   23   49 1   
    44   24   25 1   
    45   24   50 1   
    46   24   51 1   
    47   25   28 1   
    48   26   27 1   
    49   26   52 1   
    50   26   53 1   
    51   27   28 1   
    52   28   29 1   
    53   28   30 1   
    54   29   54 1   
    55   29   55 1   
    56   29   56 1   
    57   30   31 1   
    58   30   32 1   
@<TRIPOS>SUBSTRUCTURE
     1 CPK         1 TEMP              0 ****  ****    0 ROOT
