@<TRIPOS>MOLECULE
CPL
  132   127     1     0     0
SMALL
bcc


@<TRIPOS>ATOM
      1 C1         -1.7650    2.6120    1.2120 c3        1 CPL      0.013000
      2 C2         -0.2540    2.6560    1.0120 c3        1 CPL      0.003000
      3 C3          0.4000    3.3040    2.2230 c3        1 CPL     -0.022000
      4 C4         -5.7460    4.3090   -1.5280 c3        1 CPL      0.035000
      5 C5         -6.2210    5.6360   -2.1590 c3        1 CPL     -0.141000
      6 C6         -7.0780    4.7200   -4.1840 c3        1 CPL     -0.197667
      7 C7         -8.0640    6.6640   -3.2600 c3        1 CPL     -0.197667
      8 C8         -8.3490    4.5720   -2.1930 c3        1 CPL     -0.197667
      9 C11         2.5040    4.1820    2.9670 c1        1 CPL      0.304000
     10 C12         4.0370    4.1220    3.0750 c2        1 CPL     -0.157000
     11 C13         4.4480    4.0800    4.5670 c3        1 CPL     -0.158000
     12 C14         5.9810    4.2550    4.6840 c3        1 CPL     -0.156000
     13 C15         6.5720    3.0860    5.5040 c3        1 CPL     -0.156000
     14 C16         7.1120    3.6190    6.8450 c3        1 CPL     -0.160000
     15 C17         7.8880    2.5000    7.5690 c3        1 CPL     -0.158000
     16 C18         7.5940    2.5650    9.0800 c3        1 CPL     -0.158000
     17 C19         7.7800    1.1650    9.7010 c3        1 CPL     -0.156000
     18 C20         7.1580    1.1410   11.1170 c3        1 CPL     -0.156000
     19 C21         6.5920   -0.2670   11.4070 c3        1 CPL     -0.158000
     20 C22         5.7810   -0.2350   12.7180 c3        1 CPL     -0.158000
     21 C23         4.6990   -1.3250   12.6770 c3        1 CPL     -0.158000
     22 C24         3.8280   -1.2320   13.9440 c3        1 CPL     -0.158000
     23 C25         2.5010   -1.9650   13.7070 c3        1 CPL     -0.159000
     24 C26         1.5720   -1.7400   14.9060 c3        1 CPL     -0.210000
     25 C31         0.3880    0.9450   -0.5040 c1        1 CPL      0.330000
     26 C32         0.7940   -0.5040   -0.8350 c2        1 CPL     -0.157000
     27 C33         0.1900   -0.9100   -2.1940 c3        1 CPL     -0.156000
     28 C34         0.6490   -2.3420   -2.5560 c3        1 CPL     -0.158000
     29 C35        -0.4930   -3.0800   -3.2880 c3        1 CPL     -0.157000
     30 C36         0.1020   -4.0010   -4.3750 c3        1 CPL     -0.159000
     31 C37        -1.0300   -4.8070   -5.0410 c3        1 CPL     -0.154000
     32 C38        -0.5480   -5.3410   -6.4030 c3        1 CPL     -0.132000
     33 C39        -0.9000   -4.3290   -7.5040 c2        1 CPL     -0.171000
     34 C40        -1.4270   -4.7670   -8.7000 c1        1 CPL     -0.165000
     35 C41        -1.6640   -6.2650   -8.9320 c2        1 CPL     -0.105000
     36 C42        -1.9090   -6.5200  -10.4280 c2        1 CPL     -0.166000
     37 C43        -3.1730   -6.4130  -10.9410 c1        1 CPL     -0.164000
     38 C44        -3.4180   -6.6660  -12.4310 c2        1 CPL     -0.131000
     39 C45        -4.4300   -5.6410  -12.9650 c3        1 CPL     -0.155000
     40 C46        -4.6070   -5.8370  -14.4800 c3        1 CPL     -0.159000
     41 C47        -5.3760   -4.6410  -15.0650 c3        1 CPL     -0.159000
     42 C48        -5.5440   -4.8310  -16.5770 c3        1 CPL     -0.211000
     43 N          -7.4310    5.3970   -2.9510 n4        1 CPL      0.050000
     44 O2          0.2360    1.3490    0.8570 os        1 CPL     -0.268000
     45 O3          1.8190    3.3340    2.0420 os        1 CPL     -0.282000
     46 O11         1.8790    4.9990    3.6210 o         1 CPL     -0.354000
     47 O31         0.2650    1.7640   -1.4020 o         1 CPL     -0.385000
     48 O1P        -4.0200    4.6500    1.4050 o         1 CPL     -0.814000
     49 O2P        -4.8320    2.5050    0.4860 o         1 CPL     -0.814000
     50 O3P        -2.4130    3.1890    0.0780 os        1 CPL     -0.741000
     51 O4P        -4.3870    4.4430   -1.1030 os        1 CPL     -0.737000
     52 P          -3.9280    3.6940    0.2370 p5        1 CPL      1.904000
     53 HC11       -2.0540    1.6800    1.3140 h1        1 CPL      0.103500
     54 HC12       -2.0030    3.1190    2.0180 h1        1 CPL      0.103500
     55 HC2        -0.0450    3.1810    0.2070 h1        1 CPL      0.138000
     56 HC31        0.0640    4.2220    2.3250 h1        1 CPL      0.110000
     57 HC32        0.1840    2.7840    3.0300 h1        1 CPL      0.110000
     58 HC41       -6.3110    4.0950   -0.7540 h1        1 CPL      0.111000
     59 HC42       -5.8130    3.5890   -2.1920 h1        1 CPL      0.111000
     60 HC51       -5.5130    5.9930   -2.7420 hx        1 CPL      0.119500
     61 HC52       -6.4180    6.2870   -1.4460 hx        1 CPL      0.119500
     62 HC61       -6.9170    3.7690   -4.0010 hx        1 CPL      0.138333
     63 HC62       -6.2630    5.1240   -4.5570 hx        1 CPL      0.138333
     64 HC63       -7.8150    4.8090   -4.8310 hx        1 CPL      0.138333
     65 HC71       -8.3720    7.0890   -2.4280 hx        1 CPL      0.138333
     66 HC72       -7.4170    7.2520   -3.7100 hx        1 CPL      0.138333
     67 HC73       -8.8360    6.5090   -3.8550 hx        1 CPL      0.138333
     68 HC81       -8.3740    4.8820   -1.2610 hx        1 CPL      0.138333
     69 HC82       -9.2510    4.6380   -2.5860 hx        1 CPL      0.138333
     70 HC83       -8.0480    3.6380   -2.2200 hx        1 CPL      0.138333
     71 H121        4.3650    3.3150    2.6220 ha        1 CPL      0.116500
     72 H122        4.4270    4.9190    2.6490 ha        1 CPL      0.116500
     73 H131        3.9970    4.8080    5.0520 hc        1 CPL      0.097500
     74 H132        4.1870    3.2170    4.9540 hc        1 CPL      0.097500
     75 H141        6.1800    5.1050    5.1360 hc        1 CPL      0.079000
     76 H142        6.3800    4.2590    3.7850 hc        1 CPL      0.079000
     77 H151        5.8730    2.4200    5.6740 hc        1 CPL      0.079500
     78 H152        7.3050    2.6680    4.9980 hc        1 CPL      0.079500
     79 H161        7.7150    4.3820    6.6770 hc        1 CPL      0.082000
     80 H162        6.3600    3.9140    7.4080 hc        1 CPL      0.082000
     81 H171        7.6060    1.6270    7.2180 hc        1 CPL      0.078000
     82 H172        8.8530    2.6190    7.4170 hc        1 CPL      0.078000
     83 H181        8.2130    3.1980    9.5080 hc        1 CPL      0.080500
     84 H182        6.6710    2.8640    9.2210 hc        1 CPL      0.080500
     85 H191        7.3360    0.4940    9.1370 hc        1 CPL      0.078000
     86 H192        8.7400    0.9580    9.7620 hc        1 CPL      0.078000
     87 H201        7.8480    1.3600   11.7820 hc        1 CPL      0.078000
     88 H202        6.4330    1.8030   11.1670 hc        1 CPL      0.078000
     89 H211        6.0070   -0.5440   10.6660 hc        1 CPL      0.080000
     90 H212        7.3340   -0.9060   11.4960 hc        1 CPL      0.080000
     91 H221        5.3570    0.6440   12.8200 hc        1 CPL      0.078500
     92 H222        6.3820   -0.3990   13.4790 hc        1 CPL      0.078500
     93 H231        5.1260   -2.2100   12.6380 hc        1 CPL      0.079500
     94 H232        4.1360   -1.1980   11.8830 hc        1 CPL      0.079500
     95 H241        4.3010   -1.6460   14.6980 hc        1 CPL      0.078500
     96 H242        3.6480   -0.2860   14.1490 hc        1 CPL      0.078500
     97 H251        2.6730   -2.9270   13.6020 hc        1 CPL      0.078500
     98 H252        2.0760   -1.6170   12.8930 hc        1 CPL      0.078500
     99 H261        0.6020   -1.8880   15.0200 hc        1 CPL      0.071667
    100 H262        1.5490   -2.7220   14.8610 hc        1 CPL      0.071667
    101 H263        1.2260   -1.0520   14.2970 hc        1 CPL      0.071667
    102 H321        1.7730   -0.5680   -0.8810 ha        1 CPL      0.115000
    103 H322        0.4590   -1.1060   -0.1350 ha        1 CPL      0.115000
    104 H331       -0.7920   -0.8850   -2.1360 hc        1 CPL      0.095500
    105 H332        0.4940   -0.2820   -2.8890 hc        1 CPL      0.095500
    106 H341        1.4370   -2.2950   -3.1400 hc        1 CPL      0.081000
    107 H342        0.8800   -2.8290   -1.7340 hc        1 CPL      0.081000
    108 H351       -1.0920   -2.4230   -3.7080 hc        1 CPL      0.080000
    109 H352       -1.0010   -3.6210   -2.6430 hc        1 CPL      0.080000
    110 H361        0.7480   -4.6210   -3.9630 hc        1 CPL      0.081500
    111 H362        0.5570   -3.4570   -5.0510 hc        1 CPL      0.081500
    112 H371       -1.8100   -4.2270   -5.1750 hc        1 CPL      0.079500
    113 H372       -1.2800   -5.5640   -4.4610 hc        1 CPL      0.079500
    114 H381       -0.9890   -6.1970   -6.5930 hc        1 CPL      0.087500
    115 H382        0.4260   -5.4720   -6.3770 hc        1 CPL      0.087500
    116 H39        -0.7490   -3.3700   -7.3560 ha        1 CPL      0.122000
    117 H40        -1.6520   -4.1190   -9.4030 ha        1 CPL      0.124000
    118 H411       -0.8730   -6.7710   -8.6390 ha        1 CPL      0.093000
    119 H412       -2.4480   -6.5560   -8.4170 ha        1 CPL      0.093000
    120 H42        -1.1690   -6.8220  -11.0040 ha        1 CPL      0.121000
    121 H43        -3.9270   -6.2160  -10.3480 ha        1 CPL      0.120000
    122 H441       -2.5720   -6.5780  -12.9220 ha        1 CPL      0.085000
    123 H442       -3.7750   -7.5750  -12.5550 ha        1 CPL      0.085000
    124 H451       -5.2960   -5.7700  -12.5150 hc        1 CPL      0.081000
    125 H452       -4.1010   -4.7330  -12.7880 hc        1 CPL      0.081000
    126 H461       -3.7240   -5.8990  -14.9080 hc        1 CPL      0.079000
    127 H462       -5.1120   -6.6650  -14.6480 hc        1 CPL      0.079000
    128 H471       -4.8740   -3.8140  -14.8930 hc        1 CPL      0.078000
    129 H472       -6.2590   -4.5820  -14.6420 hc        1 CPL      0.078000
    130 H481       -5.9010   -4.0070  -16.9730 hc        1 CPL      0.072000
    131 H482       -4.6710   -5.0380  -16.9810 hc        1 CPL      0.072000
    132 H483       -6.1670   -5.5710  -16.7460 hc        1 CPL      0.072000
@<TRIPOS>BOND
     1    1    2 1   
     2    1   50 1   
     3    1   53 1   
     4    1   54 1   
     5    2    3 1   
     6    2   44 1   
     7    2   55 1   
     8    3   45 1   
     9    3   56 1   
    10    3   57 1   
    11    4    5 1   
    12    4   51 1   
    13    4   58 1   
    14    4   59 1   
    15    5   43 1   
    16    5   60 1   
    17    5   61 1   
    18    6   43 1   
    19    6   62 1   
    20    6   63 1   
    21    6   64 1   
    22    7   43 1   
    23    7   65 1   
    24    7   66 1   
    25    7   67 1   
    26    8   43 1   
    27    8   68 1   
    28    8   69 1   
    29    8   70 1   
    30    9   45 1   
    31    9   46 1   
    32   10   11 1   
    33   10   71 1   
    34   10   72 1   
    35   11   12 1   
    36   11   73 1   
    37   11   74 1   
    38   12   13 1   
    39   12   75 1   
    40   12   76 1   
    41   13   14 1   
    42   13   77 1   
    43   13   78 1   
    44   14   15 1   
    45   14   79 1   
    46   14   80 1   
    47   15   16 1   
    48   15   81 1   
    49   15   82 1   
    50   16   17 1   
    51   16   83 1   
    52   16   84 1   
    53   17   18 1   
    54   17   85 1   
    55   17   86 1   
    56   18   19 1   
    57   18   87 1   
    58   18   88 1   
    59   19   20 1   
    60   19   89 1   
    61   19   90 1   
    62   20   21 1   
    63   20   91 1   
    64   20   92 1   
    65   21   22 1   
    66   21   93 1   
    67   21   94 1   
    68   22   23 1   
    69   22   95 1   
    70   22   96 1   
    71   23   24 1   
    72   23   97 1   
    73   23   98 1   
    74   24   99 1   
    75   24  100 1   
    76   24  101 1   
    77   25   44 1   
    78   25   47 1   
    79   26   27 1   
    80   26  102 1   
    81   26  103 1   
    82   27   28 1   
    83   27  104 1   
    84   27  105 1   
    85   28   29 1   
    86   28  106 1   
    87   28  107 1   
    88   29   30 1   
    89   29  108 1   
    90   29  109 1   
    91   30   31 1   
    92   30  110 1   
    93   30  111 1   
    94   31   32 1   
    95   31  112 1   
    96   31  113 1   
    97   32   33 1   
    98   32  114 1   
    99   32  115 1   
   100   33   34 1   
   101   33  116 1   
   102   34  117 1   
   103   35   36 1   
   104   35  118 1   
   105   35  119 1   
   106   36   37 1   
   107   36  120 1   
   108   37  121 1   
   109   38   39 1   
   110   38  122 1   
   111   38  123 1   
   112   39   40 1   
   113   39  124 1   
   114   39  125 1   
   115   40   41 1   
   116   40  126 1   
   117   40  127 1   
   118   41   42 1   
   119   41  128 1   
   120   41  129 1   
   121   42  130 1   
   122   42  131 1   
   123   42  132 1   
   124   48   52 1   
   125   49   52 1   
   126   50   52 1   
   127   51   52 1   
@<TRIPOS>SUBSTRUCTURE
     1 CPL         1 TEMP              0 ****  ****    0 ROOT
