@<TRIPOS>MOLECULE
CPL
  132   131     1     0     0
SMALL
bcc


@<TRIPOS>ATOM
      1 C1         -0.3580   -4.9550   -1.4790 c3        1 CPL      0.175400
      2 C2         -0.9240   -4.5750   -0.1060 c3        1 CPL      0.135100
      3 C3          0.1690   -4.1980    0.8920 c3        1 CPL      0.112400
      4 C4          3.7420   -5.9820   -2.4200 c3        1 CPL      0.197400
      5 C5          4.4580   -5.9500   -1.0550 c3        1 CPL      0.079800
      6 C6          4.4970   -8.4170   -0.8470 c3        1 CPL      0.075433
      7 C7          5.2660   -6.9970    0.9710 c3        1 CPL      0.075433
      8 C8          2.9040   -7.1270    0.4700 c3        1 CPL      0.075433
      9 C11         2.2100   -3.0030    0.4430 c         1 CPL      0.664100
     10 C12         2.7660   -1.7810   -0.2230 c3        1 CPL     -0.135400
     11 C13         4.0250   -1.3020    0.4670 c3        1 CPL     -0.075400
     12 C14         4.6510   -0.1550   -0.2970 c3        1 CPL     -0.080400
     13 C15         5.9020    0.3430    0.3960 c3        1 CPL     -0.078400
     14 C16         6.5340    1.4860   -0.3690 c3        1 CPL     -0.079400
     15 C17         7.7840    1.9860    0.3240 c3        1 CPL     -0.078400
     16 C18         8.4160    3.1280   -0.4420 c3        1 CPL     -0.079400
     17 C19         9.6660    3.6280    0.2500 c3        1 CPL     -0.078400
     18 C20        10.2990    4.7690   -0.5160 c3        1 CPL     -0.079400
     19 C21        11.5480    5.2700    0.1760 c3        1 CPL     -0.078400
     20 C22        12.1810    6.4110   -0.5900 c3        1 CPL     -0.079400
     21 C23        13.4310    6.9120    0.1020 c3        1 CPL     -0.079400
     22 C24        14.0640    8.0530   -0.6640 c3        1 CPL     -0.079400
     23 C25        15.3140    8.5550    0.0270 c3        1 CPL     -0.080400
     24 C26        15.9480    9.6920   -0.7320 c3        1 CPL     -0.093100
     25 C32        -3.6310   -2.0420    0.1930 c3        1 CPL     -0.127400
     26 C33        -5.0600   -2.2640    0.6390 c3        1 CPL     -0.079400
     27 C34        -5.9060   -1.0400    0.3590 c3        1 CPL     -0.078400
     28 C35        -7.3410   -1.2610    0.7880 c3        1 CPL     -0.079400
     29 C36        -8.1890   -0.0380    0.5120 c3        1 CPL     -0.079400
     30 C37        -9.6230   -0.2580    0.9440 c3        1 CPL     -0.077400
     31 C38       -10.4720    0.9660    0.6670 c3        1 CPL     -0.049200
     32 C39       -11.8810    0.7800    1.0840 c2        1 CPL     -0.175200
     33 C40       -12.8150    1.7330    0.9950 c2        1 CPL     -0.170200
     34 C41       -12.5480    3.0930    0.4700 c3        1 CPL     -0.019000
     35 C42       -13.7550    3.9490    0.3860 c2        1 CPL     -0.169200
     36 C43       -13.7230    5.2380    0.0280 c2        1 CPL     -0.175200
     37 C44       -12.4800    5.9650   -0.3190 c3        1 CPL     -0.049200
     38 C45       -12.7520    7.3880   -0.7620 c3        1 CPL     -0.077400
     39 C46       -11.4660    8.1070   -1.1120 c3        1 CPL     -0.079400
     40 C47       -11.7340    9.5300   -1.5550 c3        1 CPL     -0.080400
     41 C48       -10.4570   10.2490   -1.9050 c3        1 CPL     -0.093100
     42 N           4.2690   -7.1280   -0.1340 n4        1 CPL     -0.576800
     43 O2         -1.8080   -3.4710   -0.3530 os        1 CPL     -0.426900
     44 O3          0.8510   -3.0300    0.4150 os        1 CPL     -0.419900
     45 O11         2.8300   -3.9330    0.9770 o         1 CPL     -0.609000
     46 O31        -2.7920   -3.8700    1.6190 o         1 CPL     -0.555000
     47 O1P         1.8370   -7.8810   -2.3140 o         1 CPL     -0.814500
     48 O2P         0.5220   -6.1570   -3.8740 o         1 CPL     -0.814500
     49 O3P         0.3310   -6.1660   -1.3310 os        1 CPL     -0.580200
     50 O4P         2.4480   -5.5160   -2.3120 os        1 CPL     -0.577200
     51 P           1.2040   -6.5850   -2.6540 p5        1 CPL      1.438800
     52 HC11       -1.1840   -5.0880   -2.2280 h1        1 CPL      0.056700
     53 HC12        0.3520   -4.1640   -1.8450 h1        1 CPL      0.056700
     54 HC2        -1.5030   -5.4370    0.3310 h1        1 CPL      0.087700
     55 HC31        0.8710   -5.0660    1.0010 h1        1 CPL      0.074700
     56 HC32       -0.2800   -3.9140    1.8810 h1        1 CPL      0.074700
     57 HC41        3.7760   -7.0070   -2.8820 h1        1 CPL      0.053200
     58 HC42        4.3240   -5.2600   -3.0660 h1        1 CPL      0.053200
     59 HC51        5.5640   -5.8710   -1.2500 hx        1 CPL      0.091200
     60 HC52        4.0980   -5.0370   -0.4940 hx        1 CPL      0.091200
     61 HC61        5.4320   -8.3390   -1.4580 hx        1 CPL      0.100811
     62 HC62        4.6020   -9.2380   -0.0910 hx        1 CPL      0.100811
     63 HC63        3.6110   -8.6450   -1.5170 hx        1 CPL      0.100811
     64 HC71        5.1280   -6.0030    1.4730 hx        1 CPL      0.100811
     65 HC72        5.1050   -7.8180    1.7160 hx        1 CPL      0.100811
     66 HC73        6.3030   -7.0710    0.5520 hx        1 CPL      0.100811
     67 HC81        2.1360   -7.2220   -0.3590 hx        1 CPL      0.100811
     68 HC82        2.8140   -8.0010    1.1640 hx        1 CPL      0.100811
     69 HC83        2.7440   -6.1630    1.0230 hx        1 CPL      0.100811
     70 H121        1.9880   -0.9720   -0.2320 hc        1 CPL      0.088700
     71 H122        2.9800   -2.0590   -1.2910 hc        1 CPL      0.088700
     72 H131        4.7530   -2.1510    0.5490 hc        1 CPL      0.049700
     73 H132        3.7810   -0.9740    1.5120 hc        1 CPL      0.049700
     74 H141        3.9120    0.6850   -0.3880 hc        1 CPL      0.044700
     75 H142        4.9040   -0.4870   -1.3380 hc        1 CPL      0.044700
     76 H151        6.6380   -0.4970    0.4930 hc        1 CPL      0.039700
     77 H152        5.6470    0.6810    1.4350 hc        1 CPL      0.039700
     78 H161        5.7970    2.3260   -0.4670 hc        1 CPL      0.041700
     79 H162        6.7890    1.1480   -1.4080 hc        1 CPL      0.041700
     80 H171        8.5200    1.1450    0.4220 hc        1 CPL      0.039200
     81 H172        7.5280    2.3250    1.3620 hc        1 CPL      0.039200
     82 H181        7.6790    3.9680   -0.5410 hc        1 CPL      0.040200
     83 H182        8.6720    2.7880   -1.4810 hc        1 CPL      0.040200
     84 H191       10.4030    2.7880    0.3500 hc        1 CPL      0.039200
     85 H192        9.4100    3.9680    1.2880 hc        1 CPL      0.039200
     86 H201        9.5620    5.6100   -0.6160 hc        1 CPL      0.040200
     87 H202       10.5550    4.4300   -1.5540 hc        1 CPL      0.040200
     88 H211       12.2850    4.4300    0.2760 hc        1 CPL      0.039200
     89 H212       11.2930    5.6100    1.2140 hc        1 CPL      0.039200
     90 H221       11.4440    7.2520   -0.6900 hc        1 CPL      0.039700
     91 H222       12.4370    6.0710   -1.6280 hc        1 CPL      0.039700
     92 H231       14.1680    6.0720    0.2030 hc        1 CPL      0.039200
     93 H232       13.1750    7.2520    1.1400 hc        1 CPL      0.039200
     94 H241       13.3270    8.8940   -0.7640 hc        1 CPL      0.039700
     95 H242       14.3200    7.7130   -1.7020 hc        1 CPL      0.039700
     96 H251       16.0490    7.7130    0.1280 hc        1 CPL      0.038200
     97 H252       15.0560    8.8930    1.0660 hc        1 CPL      0.038200
     98 H261       16.8660   10.0460   -0.2060 hc        1 CPL      0.032700
     99 H262       16.2340    9.3670   -1.7620 hc        1 CPL      0.032700
    100 H263       15.2390   10.5500   -0.8220 hc        1 CPL      0.032700
    101 H321       -3.2070   -1.1210    0.6780 hc        1 CPL      0.079200
    102 H322       -3.5820   -1.8970   -0.9190 hc        1 CPL      0.079200
    103 H331       -5.4880   -3.1510    0.1030 hc        1 CPL      0.057700
    104 H332       -5.0770   -2.5000    1.7360 hc        1 CPL      0.057700
    105 H341       -5.4830   -0.1550    0.9030 hc        1 CPL      0.040700
    106 H342       -5.8730   -0.8020   -0.7370 hc        1 CPL      0.040700
    107 H351       -7.7650   -2.1450    0.2420 hc        1 CPL      0.043200
    108 H352       -7.3730   -1.5030    1.8830 hc        1 CPL      0.043200
    109 H361       -7.7640    0.8460    1.0570 hc        1 CPL      0.039700
    110 H362       -8.1590    0.2020   -0.5830 hc        1 CPL      0.039700
    111 H371      -10.0490   -1.1420    0.4000 hc        1 CPL      0.042700
    112 H372       -9.6550   -0.4970    2.0400 hc        1 CPL      0.042700
    113 H381      -10.0360    1.8540    1.2020 hc        1 CPL      0.047200
    114 H382      -10.4370    1.2050   -0.4320 hc        1 CPL      0.047200
    115 H39       -12.1380   -0.2140    1.4860 ha        1 CPL      0.123000
    116 H40       -13.8480    1.5290    1.3220 ha        1 CPL      0.123000
    117 H411      -11.7790    3.5960    1.1250 hc        1 CPL      0.056200
    118 H412      -12.0810    3.0130   -0.5540 hc        1 CPL      0.056200
    119 H42       -14.7150    3.4670    0.6330 ha        1 CPL      0.123000
    120 H43       -14.6550    5.8240   -0.0210 ha        1 CPL      0.123000
    121 H441      -11.7930    5.9740    0.5710 hc        1 CPL      0.047200
    122 H442      -11.9390    5.4140   -1.1370 hc        1 CPL      0.047200
    123 H451      -13.4340    7.3820   -1.6520 hc        1 CPL      0.041700
    124 H452      -13.2810    7.9430    0.0570 hc        1 CPL      0.041700
    125 H461      -10.7830    8.1130   -0.2220 hc        1 CPL      0.039700
    126 H462      -10.9360    7.5530   -1.9310 hc        1 CPL      0.039700
    127 H471      -12.4180    9.5220   -2.4440 hc        1 CPL      0.038700
    128 H472      -12.2650   10.0820   -0.7350 hc        1 CPL      0.038700
    129 H481       -9.7720   10.2890   -1.0240 hc        1 CPL      0.032700
    130 H482       -9.9260    9.7270   -2.7370 hc        1 CPL      0.032700
    131 H483      -10.6770   11.2950   -2.2280 hc        1 CPL      0.032700
    132 C31        -2.7600   -3.1940    0.5890 c         1 CPL      0.638100
@<TRIPOS>BOND
     1    1    2 1   
     2    1   49 1   
     3    1   52 1   
     4    1   53 1   
     5    2    3 1   
     6    2   43 1   
     7    2   54 1   
     8    3   44 1   
     9    3   55 1   
    10    3   56 1   
    11    4    5 1   
    12    4   50 1   
    13    4   57 1   
    14    4   58 1   
    15    5   42 1   
    16    5   59 1   
    17    5   60 1   
    18    6   42 1   
    19    6   61 1   
    20    6   62 1   
    21    6   63 1   
    22    7   42 1   
    23    7   64 1   
    24    7   65 1   
    25    7   66 1   
    26    8   42 1   
    27    8   67 1   
    28    8   68 1   
    29    8   69 1   
    30    9   10 1   
    31    9   44 1   
    32    9   45 2   
    33   10   11 1   
    34   10   70 1   
    35   10   71 1   
    36   11   12 1   
    37   11   72 1   
    38   11   73 1   
    39   12   13 1   
    40   12   74 1   
    41   12   75 1   
    42   13   14 1   
    43   13   76 1   
    44   13   77 1   
    45   14   15 1   
    46   14   78 1   
    47   14   79 1   
    48   15   16 1   
    49   15   80 1   
    50   15   81 1   
    51   16   17 1   
    52   16   82 1   
    53   16   83 1   
    54   17   18 1   
    55   17   84 1   
    56   17   85 1   
    57   18   19 1   
    58   18   86 1   
    59   18   87 1   
    60   19   20 1   
    61   19   88 1   
    62   19   89 1   
    63   20   21 1   
    64   20   90 1   
    65   20   91 1   
    66   21   22 1   
    67   21   92 1   
    68   21   93 1   
    69   22   23 1   
    70   22   94 1   
    71   22   95 1   
    72   23   24 1   
    73   23   96 1   
    74   23   97 1   
    75   24   98 1   
    76   24   99 1   
    77   24  100 1   
    78   25   26 1   
    79   25  101 1   
    80   25  102 1   
    81   25  132 1   
    82   26   27 1   
    83   26  103 1   
    84   26  104 1   
    85   27   28 1   
    86   27  105 1   
    87   27  106 1   
    88   28   29 1   
    89   28  107 1   
    90   28  108 1   
    91   29   30 1   
    92   29  109 1   
    93   29  110 1   
    94   30   31 1   
    95   30  111 1   
    96   30  112 1   
    97   31   32 1   
    98   31  113 1   
    99   31  114 1   
   100   32   33 2   
   101   32  115 1   
   102   33   34 1   
   103   33  116 1   
   104   34   35 1   
   105   34  117 1   
   106   34  118 1   
   107   35   36 2   
   108   35  119 1   
   109   36   37 1   
   110   36  120 1   
   111   37   38 1   
   112   37  121 1   
   113   37  122 1   
   114   38   39 1   
   115   38  123 1   
   116   38  124 1   
   117   39   40 1   
   118   39  125 1   
   119   39  126 1   
   120   40   41 1   
   121   40  127 1   
   122   40  128 1   
   123   41  129 1   
   124   41  130 1   
   125   41  131 1   
   126   43  132 1   
   127   46  132 2   
   128   47   51 1   
   129   48   51 1   
   130   49   51 1   
   131   50   51 1   
@<TRIPOS>SUBSTRUCTURE
     1 CPL         1 TEMP              0 ****  ****    0 ROOT
