@<TRIPOS>MOLECULE
CPL
  132   131     1     0     0
SMALL
bcc


@<TRIPOS>ATOM
      1 C1         -2.3930   -2.3330   -0.5360 c3        1 CPL      0.176400
      2 C2         -1.1840   -1.4060   -0.7060 c3        1 CPL      0.135100
      3 C3         -0.6770   -0.8570    0.6260 c3        1 CPL      0.113400
      4 C4         -4.9470   -2.6780    2.9460 c3        1 CPL      0.197400
      5 C5         -4.4080   -1.6100    3.9170 c3        1 CPL      0.079800
      6 C6         -6.2480   -0.0250    3.4370 c3        1 CPL      0.075433
      7 C7         -4.3880    0.6160    4.8650 c3        1 CPL      0.075433
      8 C8         -4.0420    0.3750    2.4830 c3        1 CPL      0.075433
      9 C11        -0.6170   -2.0000    2.7440 c         1 CPL      0.664100
     10 C12        -0.2040   -3.2780    3.4080 c3        1 CPL     -0.135400
     11 C13         0.0590   -3.0750    4.8840 c3        1 CPL     -0.075400
     12 C14         0.3390   -4.3970    5.5660 c3        1 CPL     -0.081400
     13 C15         0.6160   -4.2020    7.0410 c3        1 CPL     -0.077400
     14 C16         0.8860   -5.5230    7.7280 c3        1 CPL     -0.079400
     15 C17         1.1620   -5.3290    9.2040 c3        1 CPL     -0.078400
     16 C18         1.4290   -6.6510    9.8910 c3        1 CPL     -0.079400
     17 C19         1.7040   -6.4570   11.3670 c3        1 CPL     -0.078400
     18 C20         1.9690   -7.7790   12.0550 c3        1 CPL     -0.079400
     19 C21         2.2420   -7.5850   13.5310 c3        1 CPL     -0.078400
     20 C22         2.5060   -8.9080   14.2180 c3        1 CPL     -0.079400
     21 C23         2.7790   -8.7150   15.6950 c3        1 CPL     -0.079400
     22 C24         3.0430  -10.0370   16.3820 c3        1 CPL     -0.079400
     23 C25         3.3160   -9.8450   17.8590 c3        1 CPL     -0.080400
     24 C26         3.5790  -11.1590   18.5480 c3        1 CPL     -0.093100
     25 C32         1.7810   -2.4990   -2.6680 c3        1 CPL     -0.127400
     26 C33         2.2330   -1.9640   -4.0110 c3        1 CPL     -0.079400
     27 C34         3.3000   -2.8540   -4.6110 c3        1 CPL     -0.078400
     28 C35         3.7430   -2.3360   -5.9630 c3        1 CPL     -0.079400
     29 C36         4.8150   -3.2190   -6.5640 c3        1 CPL     -0.079400
     30 C37         5.2560   -2.7010   -7.9160 c3        1 CPL     -0.077400
     31 C38         6.3300   -3.5840   -8.5170 c3        1 CPL     -0.049200
     32 C39         6.7830   -3.0980   -9.8410 c2        1 CPL     -0.174200
     33 C40         7.7860   -3.6490  -10.5330 c2        1 CPL     -0.170200
     34 C41         8.5720   -4.8090  -10.0520 c3        1 CPL     -0.020000
     35 C42         9.5290   -5.3380  -11.0530 c2        1 CPL     -0.169200
     36 C43        10.4290   -6.2910  -10.7830 c2        1 CPL     -0.175200
     37 C44        10.5860   -6.9250   -9.4530 c3        1 CPL     -0.049200
     38 C45        11.6070   -8.0430   -9.4660 c3        1 CPL     -0.077400
     39 C46        11.7450   -8.6730   -8.0970 c3        1 CPL     -0.079400
     40 C47        12.7660   -9.7910   -8.1060 c3        1 CPL     -0.080400
     41 C48        12.9080  -10.4220   -6.7450 c3        1 CPL     -0.092100
     42 N          -4.7820   -0.1730    3.6590 n4        1 CPL     -0.576800
     43 O2         -0.1820   -2.2040   -1.3560 os        1 CPL     -0.426900
     44 O3         -0.2330   -1.9510    1.4410 os        1 CPL     -0.420900
     45 O11        -1.2380   -1.0480    3.2360 o         1 CPL     -0.609000
     46 O31         0.8590   -0.3200   -1.9750 o         1 CPL     -0.555000
     47 O1P        -5.8090   -1.4270    0.7240 o         1 CPL     -0.814000
     48 O2P        -4.8890   -3.6400   -0.4560 o         1 CPL     -0.814000
     49 O3P        -3.4740   -1.5450   -0.1210 os        1 CPL     -0.580200
     50 O4P        -4.1300   -2.8040    1.8420 os        1 CPL     -0.578200
     51 P          -4.7780   -2.4220    0.3460 p5        1 CPL      1.438800
     52 HC11       -2.6510   -2.8340   -1.5080 h1        1 CPL      0.056700
     53 HC12       -2.1820   -3.1160    0.2410 h1        1 CPL      0.056700
     54 HC2        -1.4530   -0.5270   -1.3570 h1        1 CPL      0.087700
     55 HC31       -1.5080   -0.2900    1.1210 h1        1 CPL      0.074700
     56 HC32        0.2210   -0.2020    0.4680 h1        1 CPL      0.074700
     57 HC41       -6.0130   -2.4710    2.6520 h1        1 CPL      0.053200
     58 HC42       -4.9010   -3.6460    3.5300 h1        1 CPL      0.053200
     59 HC51       -4.7880   -1.8580    4.9470 hx        1 CPL      0.091200
     60 HC52       -3.2790   -1.6610    3.9000 hx        1 CPL      0.091200
     61 HC61       -6.8000   -0.6050    4.2200 hx        1 CPL      0.100811
     62 HC62       -6.5200    1.0610    3.5040 hx        1 CPL      0.100811
     63 HC63       -6.5190   -0.4080    2.4040 hx        1 CPL      0.100811
     64 HC71       -3.2930    0.4630    5.0610 hx        1 CPL      0.100811
     65 HC72       -4.5840    1.7040    4.6780 hx        1 CPL      0.100811
     66 HC73       -4.9850    0.2750    5.7490 hx        1 CPL      0.100811
     67 HC81       -4.3310   -0.2170    1.5600 hx        1 CPL      0.100811
     68 HC82       -4.3270    1.4480    2.3430 hx        1 CPL      0.100811
     69 HC83       -2.9380    0.2780    2.6630 hx        1 CPL      0.100811
     70 H121        0.7080   -3.6880    2.8960 hc        1 CPL      0.088700
     71 H122       -1.0400   -4.0140    3.2510 hc        1 CPL      0.088700
     72 H131       -0.8300   -2.5800    5.3570 hc        1 CPL      0.048700
     73 H132        0.9330   -2.3850    5.0210 hc        1 CPL      0.048700
     74 H141        1.2200   -4.8930    5.0800 hc        1 CPL      0.044700
     75 H142       -0.5400   -5.0830    5.4360 hc        1 CPL      0.044700
     76 H151       -0.2620   -3.6990    7.5260 hc        1 CPL      0.039200
     77 H152        1.4990   -3.5220    7.1710 hc        1 CPL      0.039200
     78 H161        1.7650   -6.0250    7.2440 hc        1 CPL      0.041700
     79 H162        0.0040   -6.2030    7.5970 hc        1 CPL      0.041700
     80 H171        0.2850   -4.8240    9.6870 hc        1 CPL      0.038700
     81 H172        2.0470   -4.6510    9.3350 hc        1 CPL      0.038700
     82 H181        2.3080   -7.1550    9.4080 hc        1 CPL      0.040700
     83 H182        0.5450   -7.3290    9.7580 hc        1 CPL      0.040700
     84 H191        0.8260   -5.9510   11.8500 hc        1 CPL      0.039200
     85 H192        2.5880   -5.7800   11.4990 hc        1 CPL      0.039200
     86 H201        2.8470   -8.2840   11.5720 hc        1 CPL      0.040200
     87 H202        1.0850   -8.4560   11.9210 hc        1 CPL      0.040200
     88 H211        1.3640   -7.0800   14.0130 hc        1 CPL      0.039200
     89 H212        3.1270   -6.9090   13.6640 hc        1 CPL      0.039200
     90 H221        3.3850   -9.4130   13.7370 hc        1 CPL      0.039700
     91 H222        1.6220   -9.5850   14.0850 hc        1 CPL      0.039700
     92 H231        1.9010   -8.2090   16.1760 hc        1 CPL      0.039200
     93 H232        3.6640   -8.0380   15.8280 hc        1 CPL      0.039200
     94 H241        3.9210  -10.5420   15.9010 hc        1 CPL      0.039700
     95 H242        2.1590  -10.7140   16.2490 hc        1 CPL      0.039700
     96 H251        2.4370   -9.3380   18.3380 hc        1 CPL      0.038200
     97 H252        4.2000   -9.1670   17.9910 hc        1 CPL      0.038200
     98 H261        3.7770  -10.9950   19.6340 hc        1 CPL      0.032700
     99 H262        2.6990  -11.8400   18.4490 hc        1 CPL      0.032700
    100 H263        4.4670  -11.6680   18.1000 hc        1 CPL      0.032700
    101 H321        2.6600   -2.6220   -1.9790 hc        1 CPL      0.078700
    102 H322        1.2950   -3.5030   -2.7870 hc        1 CPL      0.078700
    103 H331        1.3550   -1.9040   -4.7060 hc        1 CPL      0.057700
    104 H332        2.6280   -0.9210   -3.8840 hc        1 CPL      0.057700
    105 H341        4.1830   -2.9040   -3.9200 hc        1 CPL      0.040700
    106 H342        2.9040   -3.8980   -4.7190 hc        1 CPL      0.040700
    107 H351        2.8610   -2.2900   -6.6550 hc        1 CPL      0.043200
    108 H352        4.1330   -1.2900   -5.8550 hc        1 CPL      0.043200
    109 H361        5.6970   -3.2640   -5.8720 hc        1 CPL      0.039700
    110 H362        4.4240   -4.2650   -6.6710 hc        1 CPL      0.039700
    111 H371        4.3740   -2.6570   -8.6090 hc        1 CPL      0.042700
    112 H372        5.6460   -1.6540   -7.8100 hc        1 CPL      0.042700
    113 H381        7.2080   -3.6380   -7.8150 hc        1 CPL      0.046700
    114 H382        5.9370   -4.6340   -8.6210 hc        1 CPL      0.046700
    115 H39         6.2370   -2.2310  -10.2490 ha        1 CPL      0.123000
    116 H40         8.0720   -3.2390  -11.5150 ha        1 CPL      0.123000
    117 H411        9.1330   -4.5120   -9.1180 hc        1 CPL      0.056200
    118 H412        7.8690   -5.6360   -9.7430 hc        1 CPL      0.056200
    119 H42         9.4650   -4.9070  -12.0650 ha        1 CPL      0.123000
    120 H43        11.1110   -6.6490  -11.5720 ha        1 CPL      0.122000
    121 H441       10.8940   -6.1440   -8.7040 hc        1 CPL      0.047200
    122 H442        9.5930   -7.3260   -9.1090 hc        1 CPL      0.047200
    123 H451       11.3000   -8.8240  -10.2110 hc        1 CPL      0.041200
    124 H452       12.6010   -7.6420   -9.7980 hc        1 CPL      0.041200
    125 H461       12.0510   -7.8920   -7.3520 hc        1 CPL      0.039700
    126 H462       10.7520   -9.0750   -7.7650 hc        1 CPL      0.039700
    127 H471       12.4600  -10.5710   -8.8530 hc        1 CPL      0.038700
    128 H472       13.7590   -9.3880   -8.4400 hc        1 CPL      0.038700
    129 H481       13.2370   -9.6650   -5.9920 hc        1 CPL      0.032700
    130 H482       11.9340  -10.8510   -6.4060 hc        1 CPL      0.032700
    131 H483       13.6640  -11.2420   -6.7740 hc        1 CPL      0.032700
    132 C31         0.8270   -1.5520   -2.0080 c         1 CPL      0.637100
@<TRIPOS>BOND
     1    1    2 1   
     2    1   49 1   
     3    1   52 1   
     4    1   53 1   
     5    2    3 1   
     6    2   43 1   
     7    2   54 1   
     8    3   44 1   
     9    3   55 1   
    10    3   56 1   
    11    4    5 1   
    12    4   50 1   
    13    4   57 1   
    14    4   58 1   
    15    5   42 1   
    16    5   59 1   
    17    5   60 1   
    18    6   42 1   
    19    6   61 1   
    20    6   62 1   
    21    6   63 1   
    22    7   42 1   
    23    7   64 1   
    24    7   65 1   
    25    7   66 1   
    26    8   42 1   
    27    8   67 1   
    28    8   68 1   
    29    8   69 1   
    30    9   10 1   
    31    9   44 1   
    32    9   45 2   
    33   10   11 1   
    34   10   70 1   
    35   10   71 1   
    36   11   12 1   
    37   11   72 1   
    38   11   73 1   
    39   12   13 1   
    40   12   74 1   
    41   12   75 1   
    42   13   14 1   
    43   13   76 1   
    44   13   77 1   
    45   14   15 1   
    46   14   78 1   
    47   14   79 1   
    48   15   16 1   
    49   15   80 1   
    50   15   81 1   
    51   16   17 1   
    52   16   82 1   
    53   16   83 1   
    54   17   18 1   
    55   17   84 1   
    56   17   85 1   
    57   18   19 1   
    58   18   86 1   
    59   18   87 1   
    60   19   20 1   
    61   19   88 1   
    62   19   89 1   
    63   20   21 1   
    64   20   90 1   
    65   20   91 1   
    66   21   22 1   
    67   21   92 1   
    68   21   93 1   
    69   22   23 1   
    70   22   94 1   
    71   22   95 1   
    72   23   24 1   
    73   23   96 1   
    74   23   97 1   
    75   24   98 1   
    76   24   99 1   
    77   24  100 1   
    78   25   26 1   
    79   25  101 1   
    80   25  102 1   
    81   25  132 1   
    82   26   27 1   
    83   26  103 1   
    84   26  104 1   
    85   27   28 1   
    86   27  105 1   
    87   27  106 1   
    88   28   29 1   
    89   28  107 1   
    90   28  108 1   
    91   29   30 1   
    92   29  109 1   
    93   29  110 1   
    94   30   31 1   
    95   30  111 1   
    96   30  112 1   
    97   31   32 1   
    98   31  113 1   
    99   31  114 1   
   100   32   33 2   
   101   32  115 1   
   102   33   34 1   
   103   33  116 1   
   104   34   35 1   
   105   34  117 1   
   106   34  118 1   
   107   35   36 2   
   108   35  119 1   
   109   36   37 1   
   110   36  120 1   
   111   37   38 1   
   112   37  121 1   
   113   37  122 1   
   114   38   39 1   
   115   38  123 1   
   116   38  124 1   
   117   39   40 1   
   118   39  125 1   
   119   39  126 1   
   120   40   41 1   
   121   40  127 1   
   122   40  128 1   
   123   41  129 1   
   124   41  130 1   
   125   41  131 1   
   126   43  132 1   
   127   46  132 2   
   128   47   51 1   
   129   48   51 1   
   130   49   51 1   
   131   50   51 1   
@<TRIPOS>SUBSTRUCTURE
     1 CPL         1 TEMP              0 ****  ****    0 ROOT
