@<TRIPOS>MOLECULE
CPM
   31    31     1     0     0
SMALL
bcc


@<TRIPOS>ATOM
      1 CA1        -0.7550   -0.3420    1.8640 c3        1 CPM     -0.288600
      2 CA         -0.9920   -0.2320    0.3720 c3        1 CPM     -0.152700
      3 C          -2.5150   -0.3700    0.0620 c         1 CPM      0.916600
      4 O          -2.8620   -0.9150   -1.0240 o         1 CPM     -0.838300
      5 CB         -0.1700   -1.2540   -0.4050 c3        1 CPM     -0.033100
      6 CG          0.4640   -0.6750   -1.6230 ca        1 CPM     -0.054300
      7 CD1         1.8540   -0.5640   -1.7330 ca        1 CPM     -0.130000
      8 CD2        -0.3450   -0.2520   -2.6890 ca        1 CPM     -0.130000
      9 CE1         2.4300   -0.0430   -2.8910 ca        1 CPM     -0.147500
     10 CE2         0.2350    0.2680   -3.8420 ca        1 CPM     -0.147500
     11 CZ          1.6230    0.3730   -3.9480 ca        1 CPM     -0.157000
     12 OXT        -3.3300    0.1030    0.9030 o         1 CPM     -0.838300
     13 S           0.5980    0.5710    2.4760 s6        1 CPM      1.403400
     14 N1          0.4370    1.9070    2.2800 n2        1 CPM     -1.222400
     15 N2          1.7660   -0.0720    2.2090 n2        1 CPM     -1.222400
     16 CM          0.2150    0.2390    4.1830 c3        1 CPM     -0.285300
     17 HA11       -0.6700   -1.4230    2.1380 h1        1 CPM      0.111200
     18 HA12       -1.7070    0.0180    2.3570 h1        1 CPM      0.111200
     19 HA         -0.7260    0.8060    0.0280 hc        1 CPM      0.043700
     20 HB1         0.6240   -1.7030    0.2490 hc        1 CPM      0.051700
     21 HB2        -0.8580   -2.0850   -0.7270 hc        1 CPM      0.051700
     22 HD1         2.4950   -0.8830   -0.8970 ha        1 CPM      0.161000
     23 HD2        -1.4450   -0.3420   -2.5750 ha        1 CPM      0.161000
     24 HE1         3.5230    0.0430   -2.9680 ha        1 CPM      0.112500
     25 HE2        -0.4050    0.6000   -4.6730 ha        1 CPM      0.112500
     26 HZ          2.0770    0.7840   -4.8600 ha        1 CPM      0.107000
     27 HN1         0.1530    2.7900    2.0530 hn        1 CPM      0.540900
     28 HN2         2.5920   -0.4520    1.9250 hn        1 CPM      0.540900
     29 HM1         0.9690    0.6890    4.8660 h1        1 CPM      0.074033
     30 HM2        -0.7800    0.6560    4.4540 h1        1 CPM      0.074033
     31 HM3         0.1870   -0.8550    4.3810 h1        1 CPM      0.074033
@<TRIPOS>BOND
     1    1    2 1   
     2    1   13 1   
     3    1   17 1   
     4    1   18 1   
     5    2    3 1   
     6    2    5 1   
     7    2   19 1   
     8    3    4 1   
     9    3   12 1   
    10    5    6 1   
    11    5   20 1   
    12    5   21 1   
    13    6    7 ar  
    14    6    8 ar  
    15    7    9 ar  
    16    7   22 1   
    17    8   10 ar  
    18    8   23 1   
    19    9   11 ar  
    20    9   24 1   
    21   10   11 ar  
    22   10   25 1   
    23   11   26 1   
    24   13   14 2   
    25   13   15 2   
    26   13   16 1   
    27   14   27 1   
    28   15   28 1   
    29   16   29 1   
    30   16   30 1   
    31   16   31 1   
@<TRIPOS>SUBSTRUCTURE
     1 CPM         1 TEMP              0 ****  ****    0 ROOT
