@<TRIPOS>MOLECULE
CPM
   31    31     1     0     0
SMALL
bcc


@<TRIPOS>ATOM
      1 CA1        -0.0360    0.1920   -0.2810 c3        1 CPM     -0.288600
      2 CA          1.3430    0.4350    0.2950 c3        1 CPM     -0.152700
      3 C           1.2640    0.5250    1.8500 c         1 CPM      0.916600
      4 O           2.0670    1.2930    2.4510 o         1 CPM     -0.838300
      5 CB          1.9920    1.6780   -0.3040 c3        1 CPM     -0.033100
      6 CG          3.4270    1.4690   -0.6470 ca        1 CPM     -0.054300
      7 CD1         3.8650    1.4970   -1.9750 ca        1 CPM     -0.130000
      8 CD2         4.3600    1.2610    0.3800 ca        1 CPM     -0.130000
      9 CE1         5.2160    1.3250   -2.2750 ca        1 CPM     -0.147500
     10 CE2         5.7070    1.0890    0.0760 ca        1 CPM     -0.147500
     11 CZ          6.1400    1.1220   -1.2510 ca        1 CPM     -0.157000
     12 OXT         0.4160   -0.2040    2.4380 o         1 CPM     -0.838300
     13 S          -0.0790   -0.7350   -1.7570 s6        1 CPM      1.403400
     14 N1          0.4150   -1.9890   -1.5810 n2        1 CPM     -1.222400
     15 N2          0.2630    0.0430   -2.8180 n2        1 CPM     -1.222400
     16 CM         -1.8550   -0.8650   -1.7750 c3        1 CPM     -0.285300
     17 HA11       -0.5540    1.1750   -0.4060 h1        1 CPM      0.111200
     18 HA12       -0.6170   -0.3520    0.5230 h1        1 CPM      0.111200
     19 HA          1.9930   -0.4620    0.0960 hc        1 CPM      0.043700
     20 HB1         1.4350    2.0120   -1.2190 hc        1 CPM      0.051700
     21 HB2         1.9280    2.5070    0.4560 hc        1 CPM      0.051700
     22 HD1         3.1380    1.6490   -2.7870 ha        1 CPM      0.161000
     23 HD2         3.9870    1.2340    1.4250 ha        1 CPM      0.161000
     24 HE1         5.5510    1.3460   -3.3210 ha        1 CPM      0.112500
     25 HE2         6.4330    0.9240    0.8850 ha        1 CPM      0.112500
     26 HZ          7.2040    0.9850   -1.4880 ha        1 CPM      0.107000
     27 HN1         0.7940   -2.8080   -1.2690 hn        1 CPM      0.540900
     28 HN2         0.6140    0.5460   -3.5470 hn        1 CPM      0.540900
     29 HM1        -2.3300    0.1400   -1.7720 h1        1 CPM      0.074033
     30 HM2        -2.2210   -1.4130   -0.8790 h1        1 CPM      0.074033
     31 HM3        -2.2150   -1.4090   -2.6760 h1        1 CPM      0.074033
@<TRIPOS>BOND
     1    1    2 1   
     2    1   13 1   
     3    1   17 1   
     4    1   18 1   
     5    2    3 1   
     6    2    5 1   
     7    2   19 1   
     8    3    4 1   
     9    3   12 1   
    10    5    6 1   
    11    5   20 1   
    12    5   21 1   
    13    6    7 ar  
    14    6    8 ar  
    15    7    9 ar  
    16    7   22 1   
    17    8   10 ar  
    18    8   23 1   
    19    9   11 ar  
    20    9   24 1   
    21   10   11 ar  
    22   10   25 1   
    23   11   26 1   
    24   13   14 2   
    25   13   15 2   
    26   13   16 1   
    27   14   27 1   
    28   15   28 1   
    29   16   29 1   
    30   16   30 1   
    31   16   31 1   
@<TRIPOS>SUBSTRUCTURE
     1 CPM         1 TEMP              0 ****  ****    0 ROOT
