@<TRIPOS>MOLECULE
CPM
   31    31     1     0     0
SMALL
bcc


@<TRIPOS>ATOM
      1 CA1        -0.0450    0.2320   -0.3410 c3        1 CPM     -0.288600
      2 CA          1.3400    0.4180    0.2440 c3        1 CPM     -0.152700
      3 C           1.2640    0.4300    1.8020 c         1 CPM      0.916600
      4 O           2.0850    1.1490    2.4400 o         1 CPM     -0.838300
      5 CB          2.0130    1.6770   -0.2920 c3        1 CPM     -0.033100
      6 CG          3.4420    1.4570   -0.6490 ca        1 CPM     -0.054300
      7 CD1         3.8790    1.5450   -1.9750 ca        1 CPM     -0.130000
      8 CD2         4.3730    1.1770    0.3640 ca        1 CPM     -0.130000
      9 CE1         5.2270    1.3610   -2.2870 ca        1 CPM     -0.147500
     10 CE2         5.7160    0.9950    0.0480 ca        1 CPM     -0.147500
     11 CZ          6.1470    1.0870   -1.2770 ca        1 CPM     -0.157000
     12 OXT         0.4030   -0.3100    2.3540 o         1 CPM     -0.838300
     13 S          -0.1070   -0.6180   -1.8610 s6        1 CPM      1.403400
     14 N1          0.3620   -1.8890   -1.7510 n2        1 CPM     -1.222400
     15 N2          0.2490    0.2070   -2.8820 n2        1 CPM     -1.222400
     16 CM         -1.8850   -0.7110   -1.8830 c3        1 CPM     -0.285300
     17 HA11       -0.5430    1.2300   -0.4140 h1        1 CPM      0.111200
     18 HA12       -0.6350   -0.3410    0.4360 h1        1 CPM      0.111200
     19 HA          1.9720   -0.4800   -0.0020 hc        1 CPM      0.043700
     20 HB1         1.4610    2.0690   -1.1880 hc        1 CPM      0.051700
     21 HB2         1.9660    2.4670    0.5100 hc        1 CPM      0.051700
     22 HD1         3.1540    1.7530   -2.7760 ha        1 CPM      0.161000
     23 HD2         4.0010    1.1040    1.4070 ha        1 CPM      0.161000
     24 HE1         5.5600    1.4310   -3.3310 ha        1 CPM      0.112500
     25 HE2         6.4390    0.7740    0.8450 ha        1 CPM      0.112500
     26 HZ          7.2070    0.9420   -1.5230 ha        1 CPM      0.107000
     27 HN1         0.7240   -2.7300   -1.4820 hn        1 CPM      0.540900
     28 HN2         0.6100    0.7390   -3.5860 hn        1 CPM      0.540900
     29 HM1        -2.2570   -1.2010   -2.8100 h1        1 CPM      0.074033
     30 HM2        -2.2620   -1.2970   -1.0150 h1        1 CPM      0.074033
     31 HM3        -2.3400    0.3020   -1.8280 h1        1 CPM      0.074033
@<TRIPOS>BOND
     1    1    2 1   
     2    1   13 1   
     3    1   17 1   
     4    1   18 1   
     5    2    3 1   
     6    2    5 1   
     7    2   19 1   
     8    3    4 1   
     9    3   12 1   
    10    5    6 1   
    11    5   20 1   
    12    5   21 1   
    13    6    7 ar  
    14    6    8 ar  
    15    7    9 ar  
    16    7   22 1   
    17    8   10 ar  
    18    8   23 1   
    19    9   11 ar  
    20    9   24 1   
    21   10   11 ar  
    22   10   25 1   
    23   11   26 1   
    24   13   14 2   
    25   13   15 2   
    26   13   16 1   
    27   14   27 1   
    28   15   28 1   
    29   16   29 1   
    30   16   30 1   
    31   16   31 1   
@<TRIPOS>SUBSTRUCTURE
     1 CPM         1 TEMP              0 ****  ****    0 ROOT
