@<TRIPOS>MOLECULE
CPM
   31    31     1     0     0
SMALL
bcc


@<TRIPOS>ATOM
      1 CA1        -0.0360    0.1980   -0.3250 c3        1 CPM     -0.288600
      2 CA          1.3480    0.4160    0.2490 c3        1 CPM     -0.152700
      3 C           1.2830    0.4420    1.8070 c         1 CPM      0.916600
      4 O           2.0940    1.1830    2.4320 o         1 CPM     -0.838300
      5 CB          1.9930    1.6830   -0.3040 c3        1 CPM     -0.033100
      6 CG          3.4240    1.4880   -0.6690 ca        1 CPM     -0.054300
      7 CD1         3.8500    1.5720   -1.9980 ca        1 CPM     -0.130000
      8 CD2         4.3670    1.2350    0.3400 ca        1 CPM     -0.130000
      9 CE1         5.1990    1.4110   -2.3180 ca        1 CPM     -0.147500
     10 CE2         5.7110    1.0750    0.0160 ca        1 CPM     -0.147500
     11 CZ          6.1310    1.1640   -1.3120 ca        1 CPM     -0.157000
     12 OXT         0.4400   -0.3100    2.3720 o         1 CPM     -0.838300
     13 S          -0.0930   -0.6660   -1.8370 s6        1 CPM      1.403400
     14 N1          0.4010   -1.9270   -1.7180 n2        1 CPM     -1.222400
     15 N2          0.2400    0.1560   -2.8680 n2        1 CPM     -1.222400
     16 CM         -1.8690   -0.7940   -1.8460 c3        1 CPM     -0.285300
     17 HA11       -0.6100   -0.3780    0.4610 h1        1 CPM      0.111200
     18 HA12       -0.5550    1.1860   -0.4040 h1        1 CPM      0.111200
     19 HA          1.9960   -0.4720    0.0070 hc        1 CPM      0.043700
     20 HB1         1.9370    2.4790    0.4910 hc        1 CPM      0.051700
     21 HB2         1.4280    2.0550   -1.1990 hc        1 CPM      0.051700
     22 HD1         3.1160    1.7580   -2.7960 ha        1 CPM      0.161000
     23 HD2         4.0030    1.1640    1.3860 ha        1 CPM      0.161000
     24 HE1         5.5240    1.4770   -3.3650 ha        1 CPM      0.112500
     25 HE2         6.4440    0.8760    0.8110 ha        1 CPM      0.112500
     26 HZ          7.1930    1.0370   -1.5640 ha        1 CPM      0.107000
     27 HN1         0.7810   -2.7590   -1.4440 hn        1 CPM      0.540900
     28 HN2         0.5860    0.6880   -3.5790 hn        1 CPM      0.540900
     29 HM1        -2.3420    0.2110   -1.7970 h1        1 CPM      0.074033
     30 HM2        -2.2380   -1.3000   -2.7650 h1        1 CPM      0.074033
     31 HM3        -2.2280   -1.3780   -0.9700 h1        1 CPM      0.074033
@<TRIPOS>BOND
     1    1    2 1   
     2    1   13 1   
     3    1   17 1   
     4    1   18 1   
     5    2    3 1   
     6    2    5 1   
     7    2   19 1   
     8    3    4 1   
     9    3   12 1   
    10    5    6 1   
    11    5   20 1   
    12    5   21 1   
    13    6    7 ar  
    14    6    8 ar  
    15    7    9 ar  
    16    7   22 1   
    17    8   10 ar  
    18    8   23 1   
    19    9   11 ar  
    20    9   24 1   
    21   10   11 ar  
    22   10   25 1   
    23   11   26 1   
    24   13   14 2   
    25   13   15 2   
    26   13   16 1   
    27   14   27 1   
    28   15   28 1   
    29   16   29 1   
    30   16   30 1   
    31   16   31 1   
@<TRIPOS>SUBSTRUCTURE
     1 CPM         1 TEMP              0 ****  ****    0 ROOT
