@<TRIPOS>MOLECULE
CPN
   34    34     1     0     0
SMALL
bcc


@<TRIPOS>ATOM
      1 C8'         0.3300    0.4760    0.6780 c3        1 CPN      0.021000
      2 C7'        -0.5250   -0.5320   -0.1020 c         1 CPN      0.645100
      3 O7'        -0.1170   -1.6880   -0.3560 o         1 CPN     -0.647100
      4 C5'        -2.4960    1.0020    0.0030 c3        1 CPN     -0.033000
      5 C'         -3.7790    0.5250    0.7170 c         1 CPN      0.879600
      6 O1'        -3.6760    0.0600    1.8910 o         1 CPN     -0.834300
      7 OXT        -4.8460    0.4340    0.0380 o         1 CPN     -0.834300
      8 N4'        -1.7850   -0.1460   -0.5310 n         1 CPN     -0.457800
      9 C3'        -2.5290   -1.0320   -1.3880 c3        1 CPN      0.084000
     10 C2'        -2.9940   -2.3700   -0.7640 c3        1 CPN      0.075800
     11 N1'        -4.0130   -2.2220    0.3000 n4        1 CPN     -0.869600
     12 N1          1.7400    0.1880    0.6750 n         1 CPN     -0.378000
     13 C2          2.6780    1.1340    0.0910 c         1 CPN      0.840900
     14 N3          4.0450    0.8470    0.0760 nc        1 CPN     -0.724100
     15 C4          4.4770   -0.3140    0.6030 cd        1 CPN      0.758500
     16 C5          3.5540   -1.3040    1.1570 cd        1 CPN     -0.432600
     17 C6          2.2160   -1.0080    1.1540 cc        1 CPN      0.086600
     18 O2          2.2050    2.1910   -0.3720 o         1 CPN     -0.621500
     19 N4          5.8290   -0.5770    0.6580 nh        1 CPN     -0.918800
     20 H8'1        0.1920    1.5120    0.2410 h1        1 CPN      0.108700
     21 H8'2       -0.0500    0.4730    1.7420 h1        1 CPN      0.108700
     22 H5'1       -2.7670    1.6860   -0.8480 h1        1 CPN      0.070200
     23 H5'2       -1.8580    1.5620    0.7350 h1        1 CPN      0.070200
     24 H3'1       -3.4300   -0.4720   -1.7780 h1        1 CPN      0.095200
     25 H3'2       -1.8670   -1.3340   -2.2530 h1        1 CPN      0.095200
     26 H2'1       -3.4420   -2.9900   -1.5920 hx        1 CPN      0.097700
     27 H2'2       -2.1020   -2.9130   -0.3350 hx        1 CPN      0.097700
     28 H1'1       -4.4220   -3.1220    0.5340 hn        1 CPN      0.474133
     29 H1'2       -3.5960   -1.7940    1.1540 hn        1 CPN      0.474133
     30 H1'3       -4.7590   -1.5550   -0.0010 hn        1 CPN      0.474133
     31 H5          3.9190   -2.2540    1.5590 ha        1 CPN      0.154000
     32 H6          1.4620   -1.7280    1.5270 h4        1 CPN      0.166000
     33 HN41        6.4690    0.0270    0.2000 hn        1 CPN      0.437300
     34 HN42        6.1120   -1.5030    0.8550 hn        1 CPN      0.437300
@<TRIPOS>BOND
     1    1    2 1   
     2    1   12 1   
     3    1   20 1   
     4    1   21 1   
     5    2    3 2   
     6    2    8 1   
     7    4    5 1   
     8    4    8 1   
     9    4   22 1   
    10    4   23 1   
    11    5    6 1   
    12    5    7 1   
    13    8    9 1   
    14    9   10 1   
    15    9   24 1   
    16    9   25 1   
    17   10   11 1   
    18   10   26 1   
    19   10   27 1   
    20   11   28 1   
    21   11   29 1   
    22   11   30 1   
    23   12   13 1   
    24   12   17 1   
    25   13   14 1   
    26   13   18 2   
    27   14   15 2   
    28   15   16 1   
    29   15   19 1   
    30   16   17 2   
    31   16   31 1   
    32   17   32 1   
    33   19   33 1   
    34   19   34 1   
@<TRIPOS>SUBSTRUCTURE
     1 CPN         1 TEMP              0 ****  ****    0 ROOT
