@<TRIPOS>MOLECULE
CPN
   34    33     1     0     0
SMALL
bcc


@<TRIPOS>ATOM
      1 C8'        -1.0220    0.0620   -0.0090 c3        1 CPN     -0.041000
      2 C7'         0.4730   -0.2900   -0.0600 c2        1 CPN      0.288000
      3 O7'         1.0450   -0.6490    0.9490 o         1 CPN     -0.402000
      4 C5'         2.0970   -1.3660   -1.6110 c3        1 CPN     -0.072000
      5 C'          1.3540   -2.7110   -1.6650 c2        1 CPN      0.296000
      6 O1'         0.5820   -2.9720   -2.6460 o         1 CPN     -0.304000
      7 OXT         1.5820   -3.5900   -0.7940 o         1 CPN     -0.304000
      8 N4'         1.1640   -0.3170   -1.3290 n         1 CPN     -0.288000
      9 C3'         1.0060    0.7760   -2.2620 c3        1 CPN     -0.047000
     10 C2'         2.3240    1.5690   -2.3530 c3        1 CPN     -0.097000
     11 N1'         2.1980    2.6050   -3.3430 n4        1 CPN     -0.370000
     12 N1         -1.5230   -0.1650    1.3200 n         1 CPN     -0.280000
     13 C2         -2.0540   -1.4840    1.6830 c2        1 CPN      0.361000
     14 N3         -2.6050   -1.7120    3.0270 n2        1 CPN     -0.300000
     15 C4         -2.6680   -0.6500    3.9530 c1        1 CPN      0.240000
     16 C5         -2.2760    0.7100    3.5370 c1        1 CPN     -0.337000
     17 C6         -1.6750    0.9250    2.2090 c2        1 CPN      0.067000
     18 O2         -2.0000   -2.3960    0.8890 o         1 CPN     -0.362000
     19 N4         -3.2200   -0.8660    5.2390 n3        1 CPN     -0.364000
     20 H8'1       -1.1440    1.0020   -0.2460 h1        1 CPN      0.139000
     21 H8'2       -1.5080   -0.4960   -0.6380 h1        1 CPN      0.139000
     22 H5'1        2.5300   -1.1950   -2.4810 h1        1 CPN      0.128500
     23 H5'2        2.7760   -1.3960   -0.9100 h1        1 CPN      0.128500
     24 H3'1        0.7780    0.4180   -3.1480 h1        1 CPN      0.118500
     25 H3'2        0.2910    1.3660   -1.9540 h1        1 CPN      0.118500
     26 H2'1        3.0540    0.9620   -2.6070 hx        1 CPN      0.073500
     27 H2'2        2.5220    1.9720   -1.4810 hx        1 CPN      0.073500
     28 H1'1        1.5750    3.2220   -3.0640 hn        1 CPN      0.192667
     29 H1'2        1.9290    2.2380   -4.1380 hn        1 CPN      0.192667
     30 H1'3        3.0160    3.0230   -3.4570 hn        1 CPN      0.192667
     31 H5         -2.3830    1.4590    4.1520 ha        1 CPN      0.158000
     32 H6         -1.4140    1.8250    1.9290 h4        1 CPN      0.177000
     33 HN41       -3.4730   -1.7130    5.4960 hn        1 CPN      0.241500
     34 HN42       -3.3300   -0.1640    5.8100 hn        1 CPN      0.241500
@<TRIPOS>BOND
     1    1    2 1   
     2    1   12 1   
     3    1   20 1   
     4    1   21 1   
     5    2    3 1   
     6    2    8 1   
     7    4    5 1   
     8    4    8 1   
     9    4   22 1   
    10    4   23 1   
    11    5    6 1   
    12    5    7 1   
    13    8    9 1   
    14    9   10 1   
    15    9   24 1   
    16    9   25 1   
    17   10   11 1   
    18   10   26 1   
    19   10   27 1   
    20   11   28 1   
    21   11   29 1   
    22   11   30 1   
    23   12   13 1   
    24   12   17 1   
    25   13   14 1   
    26   13   18 1   
    27   14   15 1   
    28   15   19 1   
    29   16   17 1   
    30   16   31 1   
    31   17   32 1   
    32   19   33 1   
    33   19   34 1   
@<TRIPOS>SUBSTRUCTURE
     1 CPN         1 TEMP              0 ****  ****    0 ROOT
