@<TRIPOS>MOLECULE
CPP
   20    20     1     0     0
SMALL
bcc


@<TRIPOS>ATOM
      1 C1         -0.4060   -0.3240    2.0400 c         1 CPP      0.566900
      2 C2          0.3160    0.2040    0.8260 c3        1 CPP     -0.184700
      3 C3          1.8020    0.2470    1.1120 c3        1 CPP     -0.087100
      4 C1'         0.3190   -0.0170   -1.6670 cx        1 CPP     -0.127700
      5 C2'        -0.3320   -0.5150   -2.9310 cx        1 CPP     -0.129900
      6 C3'        -0.7210    0.8190   -2.3670 cx        1 CPP     -0.129900
      7 C4'        -0.0080   -0.6840   -0.3700 c3        1 CPP     -0.043400
      8 O1         -1.2160    0.3410    2.6830 o         1 CPP     -0.523100
      9 H1         -0.1520   -1.3710    2.3200 h4        1 CPP     -0.005800
     10 H2         -0.0470    1.2490    0.6090 hc        1 CPP      0.081700
     11 H31         2.1910   -0.7750    1.3390 hc        1 CPP      0.041367
     12 H32         2.3520    0.6450    0.2260 hc        1 CPP      0.041367
     13 H33         2.0090    0.9110    1.9850 hc        1 CPP      0.041367
     14 H1'         1.3740    0.3170   -1.7240 hc        1 CPP      0.079700
     15 H2'1        0.2670   -0.5550   -3.8570 hc        1 CPP      0.071450
     16 H2'2       -1.0500   -1.3520   -2.8680 hc        1 CPP      0.071450
     17 H3'1       -1.7160    0.9350   -1.9020 hc        1 CPP      0.071450
     18 H3'2       -0.4010    1.7380   -2.8890 hc        1 CPP      0.071450
     19 H4'1        0.5710   -1.6420   -0.2920 hc        1 CPP      0.046200
     20 H4'2       -1.1000   -0.9490   -0.3460 hc        1 CPP      0.046200
@<TRIPOS>BOND
     1    1    2 1   
     2    1    8 2   
     3    1    9 1   
     4    2    3 1   
     5    2    7 1   
     6    2   10 1   
     7    3   11 1   
     8    3   12 1   
     9    3   13 1   
    10    4    5 1   
    11    4    6 1   
    12    4    7 1   
    13    4   14 1   
    14    5    6 1   
    15    5   15 1   
    16    5   16 1   
    17    6   17 1   
    18    6   18 1   
    19    7   19 1   
    20    7   20 1   
@<TRIPOS>SUBSTRUCTURE
     1 CPP         1 TEMP              0 ****  ****    0 ROOT
