@<TRIPOS>MOLECULE
CPP
   20    20     1     0     0
SMALL
bcc


@<TRIPOS>ATOM
      1 C1          0.0900   -0.0400   -0.1490 c         1 CPP      0.566900
      2 C2          1.5850   -0.0780    0.0500 c3        1 CPP     -0.184700
      3 C3          1.8930    0.0950    1.5220 c3        1 CPP     -0.087100
      4 C1'         3.6020   -1.3470   -0.7120 cx        1 CPP     -0.127700
      5 C2'         4.2380   -2.3470   -1.6430 cx        1 CPP     -0.129900
      6 C3'         4.1520   -0.9040   -2.0430 cx        1 CPP     -0.129900
      7 C4'         2.1250   -1.3960   -0.4930 c3        1 CPP     -0.043400
      8 O1         -0.4790    0.8320   -0.8040 o         1 CPP     -0.523100
      9 H1         -0.4720   -0.8650    0.3440 h4        1 CPP     -0.005800
     10 H2          2.0540    0.7700   -0.5260 hc        1 CPP      0.082700
     11 H31         1.4940    1.0710    1.8890 hc        1 CPP      0.041367
     12 H32         2.9970    0.0780    1.6880 hc        1 CPP      0.041367
     13 H33         1.4330   -0.7270    2.1230 hc        1 CPP      0.041367
     14 H1'         4.1630   -1.0590    0.2000 hc        1 CPP      0.079700
     15 H2'1        3.5940   -3.0840   -2.1560 hc        1 CPP      0.071450
     16 H2'2        5.2190   -2.7750   -1.3740 hc        1 CPP      0.071450
     17 H3'1        5.0730   -0.2960   -2.0620 hc        1 CPP      0.071450
     18 H3'2        3.4480   -0.6100   -2.8410 hc        1 CPP      0.071450
     19 H4'1        1.6070   -1.6340   -1.4610 hc        1 CPP      0.046200
     20 H4'2        1.8860   -2.2240    0.2270 hc        1 CPP      0.046200
@<TRIPOS>BOND
     1    1    2 1   
     2    1    8 2   
     3    1    9 1   
     4    2    3 1   
     5    2    7 1   
     6    2   10 1   
     7    3   11 1   
     8    3   12 1   
     9    3   13 1   
    10    4    5 1   
    11    4    6 1   
    12    4    7 1   
    13    4   14 1   
    14    5    6 1   
    15    5   15 1   
    16    5   16 1   
    17    6   17 1   
    18    6   18 1   
    19    7   19 1   
    20    7   20 1   
@<TRIPOS>SUBSTRUCTURE
     1 CPP         1 TEMP              0 ****  ****    0 ROOT
