@<TRIPOS>MOLECULE
CPP
   20    20     1     0     0
SMALL
bcc


@<TRIPOS>ATOM
      1 C1          0.0850   -0.0530   -0.1620 c         1 CPP      0.566900
      2 C2          1.5790   -0.0830    0.0440 c3        1 CPP     -0.184700
      3 C3          1.8810    0.0950    1.5170 c3        1 CPP     -0.087100
      4 C1'         3.6060   -1.3440   -0.7070 cx        1 CPP     -0.127700
      5 C2'         4.2500   -2.3400   -1.6350 cx        1 CPP     -0.129900
      6 C3'         4.1600   -0.8990   -2.0350 cx        1 CPP     -0.129900
      7 C4'         2.1270   -1.3990   -0.4940 c3        1 CPP     -0.043400
      8 O1         -0.4860    0.8140   -0.8220 o         1 CPP     -0.523100
      9 H1         -0.4750   -0.8780    0.3330 h4        1 CPP     -0.005800
     10 H2          2.0460    0.7660   -0.5320 hc        1 CPP      0.081700
     11 H31         1.4760    1.0710    1.8800 hc        1 CPP      0.041367
     12 H32         2.9840    0.0850    1.6860 hc        1 CPP      0.041367
     13 H33         1.4230   -0.7270    2.1180 hc        1 CPP      0.041367
     14 H1'         4.1610   -1.0530    0.2080 hc        1 CPP      0.079700
     15 H2'1        3.6120   -3.0800   -2.1500 hc        1 CPP      0.071450
     16 H2'2        5.2320   -2.7640   -1.3610 hc        1 CPP      0.071450
     17 H3'1        3.4580   -0.6070   -2.8370 hc        1 CPP      0.071450
     18 H3'2        5.0780   -0.2860   -2.0500 hc        1 CPP      0.071450
     19 H4'1        1.6150   -1.6410   -1.4640 hc        1 CPP      0.046200
     20 H4'2        1.8900   -2.2260    0.2270 hc        1 CPP      0.046200
@<TRIPOS>BOND
     1    1    2 1   
     2    1    8 2   
     3    1    9 1   
     4    2    3 1   
     5    2    7 1   
     6    2   10 1   
     7    3   11 1   
     8    3   12 1   
     9    3   13 1   
    10    4    5 1   
    11    4    6 1   
    12    4    7 1   
    13    4   14 1   
    14    5    6 1   
    15    5   15 1   
    16    5   16 1   
    17    6   17 1   
    18    6   18 1   
    19    7   19 1   
    20    7   20 1   
@<TRIPOS>SUBSTRUCTURE
     1 CPP         1 TEMP              0 ****  ****    0 ROOT
