@<TRIPOS>MOLECULE
CPR
   34    36     1     0     0
SMALL
bcc


@<TRIPOS>ATOM
      1 P           0.0000    0.0000    0.0000 p5        1 CPR      0.796900
      2 O1P         1.4800    0.0000    0.0000 o         1 CPR     -0.529167
      3 O2P        -0.5360    0.0000    1.5180 o         1 CPR     -0.529167
      4 O3P        -0.5360   -1.3150   -0.7580 o         1 CPR     -0.529167
      5 O5'        -0.5370    1.3140   -0.7580 os        1 CPR     -0.445200
      6 C5'         0.0640    2.4390   -0.1140 c3        1 CPR      0.239400
      7 C4'        -0.4070    3.7270   -0.7900 c3        1 CPR      0.154100
      8 O4'        -1.8230    3.9220   -0.5690 os        1 CPR     -0.371600
      9 C3'         0.2650    4.9590   -0.1440 c3        1 CPR      0.130100
     10 O3'         1.3810    5.3890   -0.9250 oh        1 CPR     -0.555800
     11 C2'        -0.8430    6.0370   -0.1430 c3        1 CPR      0.120100
     12 O2'        -0.4420    7.1670   -0.9230 oh        1 CPR     -0.548800
     13 C1'        -2.0540    5.3310   -0.7920 c3        1 CPR      0.125800
     14 N9         -3.2980    5.7550   -0.1440 na        1 CPR      0.336500
     15 C8         -3.9380    5.1100    0.8720 cc        1 CPR      0.260700
     16 N7         -5.0140    5.7610    1.2070 nd        1 CPR     -0.535100
     17 C5         -5.1340    6.8640    0.4300 cd        1 CPR      0.048100
     18 C6         -6.0600    7.9070    0.3380 cc        1 CPR     -0.407900
     19 Cl         -7.4400    7.9610    1.3880 cl        1 CPR      0.035600
     20 N1         -5.8600    8.8530   -0.5670 na        1 CPR      0.337100
     21 C2         -4.8140    8.8230   -1.3720 cc        1 CPR      0.297400
     22 N3         -3.9140    7.8620   -1.3240 nd        1 CPR     -0.602000
     23 C4         -4.0290    6.8750   -0.4450 cd        1 CPR      0.085300
     24 H5'1       -0.2240    2.4530    0.9310 h1        1 CPR      0.011700
     25 H5'2        1.1420    2.3650   -0.1900 h1        1 CPR      0.011700
     26 H4'        -0.1950    3.7000   -1.8520 h1        1 CPR      0.043700
     27 H3'         0.5700    4.7320    0.8710 h1        1 CPR      0.019700
     28 HO3'        2.1380    5.4780   -0.3700 ho        1 CPR      0.383000
     29 H2'        -1.0780    6.3340    0.8710 h1        1 CPR      0.011700
     30 HO2'       -0.1860    7.8700   -0.3490 ho        1 CPR      0.382000
     31 H1'        -2.0860    5.5420   -1.8540 h2        1 CPR      0.064700
     32 H8         -3.6010    4.1890    1.3320 h5        1 CPR      0.057800
     33 HN1        -6.5160    9.6050   -0.6420 hn        1 CPR      0.101700
     34 H2         -4.6900    9.6180   -2.0970 h5        1 CPR     -0.001900
@<TRIPOS>BOND
     1    1    2 1   
     2    1    3 1   
     3    1    4 1   
     4    1    5 1   
     5    5    6 1   
     6    6    7 1   
     7    6   24 1   
     8    6   25 1   
     9    7    8 1   
    10    7    9 1   
    11    7   26 1   
    12    8   13 1   
    13    9   10 1   
    14    9   11 1   
    15    9   27 1   
    16   10   28 1   
    17   11   12 1   
    18   11   13 1   
    19   11   29 1   
    20   12   30 1   
    21   13   14 1   
    22   13   31 1   
    23   14   15 1   
    24   14   23 2   
    25   15   16 2   
    26   15   32 1   
    27   16   17 1   
    28   17   18 2   
    29   17   23 1   
    30   18   19 1   
    31   18   20 1   
    32   20   21 1   
    33   20   33 1   
    34   21   22 2   
    35   21   34 1   
    36   22   23 1   
@<TRIPOS>SUBSTRUCTURE
     1 CPR         1 TEMP              0 ****  ****    0 ROOT
