@<TRIPOS>MOLECULE
CPU
   43    41     1     0     0
SMALL
bcc


@<TRIPOS>ATOM
      1 C1          5.3030    2.2350   -1.1230 c1        1 CPU     -0.067500
      2 C2          6.6960    2.2350   -1.1540 c1        1 CPU     -0.071250
      3 C3          7.4170    2.1800    0.0280 c1        1 CPU     -0.071250
      4 C4          6.7520    2.1250    1.2450 c1        1 CPU     -0.071250
      5 C5          5.3270    2.1240    1.2770 c1        1 CPU     -0.071250
      6 C6          4.6220    2.1780    0.1090 c1        1 CPU     -0.046100
      7 N1          0.1330    0.0560    0.1690 n         1 CPU     -0.546900
      8 C7          3.0720    2.4400    0.0480 c3        1 CPU     -0.069300
      9 C8          2.3210    1.0790    0.0670 c3        1 CPU     -0.086400
     10 C9          0.8220    1.3180    0.0360 c3        1 CPU      0.079000
     11 C10        -1.3260   -0.0110   -0.0150 c         1 CPU      0.733100
     12 O1         -1.9810    1.0230   -0.1000 o         1 CPU     -0.632100
     13 N2         -2.0140   -1.3240    0.0020 n         1 CPU     -0.533900
     14 C11        -3.2470   -1.3700   -0.0690 c3        1 CPU      0.086700
     15 C12        -3.7460   -2.3180   -1.2440 c3        1 CPU     -0.091400
     16 C13        -5.2640   -2.4010   -1.3300 c3        1 CPU     -0.072400
     17 C14        -5.8660   -2.0020   -0.1220 c3        1 CPU     -0.079400
     18 C15        -5.4060   -2.2990    1.1250 c3        1 CPU     -0.072400
     19 C16        -3.9280   -2.2400    1.1940 c3        1 CPU     -0.091400
     20 H1          4.8170    2.2690   -1.9220 ha        1 CPU      0.074500
     21 H2          7.1650    2.2750   -2.0110 ha        1 CPU      0.073250
     22 H3          8.3390    2.1810    0.0060 ha        1 CPU      0.073250
     23 H4          7.2620    2.0840    2.0800 ha        1 CPU      0.073250
     24 H5          4.8760    2.0860    2.0980 ha        1 CPU      0.073250
     25 HN1         0.6350   -0.7550    0.3700 hn        1 CPU      0.289500
     26 H72         2.8520    2.9190   -0.7720 hc        1 CPU      0.052700
     27 H71         2.7780    3.0250    0.8900 hc        1 CPU      0.052700
     28 H82         2.5620    0.5930   -0.6660 hc        1 CPU      0.049700
     29 H81         2.5580    0.5790    0.8810 hc        1 CPU      0.049700
     30 H92         0.5660    1.9200    0.7950 h1        1 CPU      0.053700
     31 H91         0.5550    1.7680   -0.8780 h1        1 CPU      0.053700
     32 HN2        -1.5810   -2.0070   -0.0150 hn        1 CPU      0.285500
     33 H11        -3.6680   -0.4110   -0.1460 h1        1 CPU      0.093700
     34 H121       -3.4100   -3.1600   -1.1090 hc        1 CPU      0.045700
     35 H122       -3.3810   -1.9550   -2.1380 hc        1 CPU      0.045700
     36 H131       -5.5470   -3.3720   -1.5430 hc        1 CPU      0.040450
     37 H132       -5.5770   -1.8110   -2.0490 hc        1 CPU      0.040450
     38 H141       -6.8660   -2.3550   -0.1570 hc        1 CPU      0.043200
     39 H142       -5.9110   -1.0420   -0.1570 hc        1 CPU      0.043200
     40 H151       -5.7720   -1.6580    1.7540 hc        1 CPU      0.040450
     41 H152       -5.6970   -3.1710    1.3650 hc        1 CPU      0.040450
     42 H161       -3.5560   -3.1950    1.1740 hc        1 CPU      0.045700
     43 H162       -3.6830   -1.8360    2.0060 hc        1 CPU      0.045700
@<TRIPOS>BOND
     1    1    6 3   
     2    1   20 1   
     3    2    3 3   
     4    2   21 1   
     5    3   22 1   
     6    4    5 3   
     7    4   23 1   
     8    5   24 1   
     9    6    8 1   
    10    7   10 1   
    11    7   11 1   
    12    7   25 1   
    13    8    9 1   
    14    8   26 1   
    15    8   27 1   
    16    9   10 1   
    17    9   28 1   
    18    9   29 1   
    19   10   30 1   
    20   10   31 1   
    21   11   12 2   
    22   11   13 1   
    23   13   14 1   
    24   13   32 1   
    25   14   15 1   
    26   14   19 1   
    27   14   33 1   
    28   15   16 1   
    29   15   34 1   
    30   15   35 1   
    31   16   17 1   
    32   16   36 1   
    33   16   37 1   
    34   17   18 1   
    35   17   38 1   
    36   17   39 1   
    37   18   19 1   
    38   18   40 1   
    39   18   41 1   
    40   19   42 1   
    41   19   43 1   
@<TRIPOS>SUBSTRUCTURE
     1 CPU         1 TEMP              0 ****  ****    0 ROOT
