@<TRIPOS>MOLECULE
CPU
   45    46     1     0     0
SMALL
bcc


@<TRIPOS>ATOM
      1 C1          0.1320   -0.3290    0.5600 ca        1 CPU     -0.118000
      2 C2          1.4190   -0.2370    1.0870 ca        1 CPU     -0.115000
      3 C3          1.6020    0.0500    2.4410 ca        1 CPU     -0.092000
      4 C4          0.4950    0.2470    3.2680 ca        1 CPU     -0.115000
      5 C5         -0.7930    0.1550    2.7440 ca        1 CPU     -0.118000
      6 C6         -0.9810   -0.1340    1.3870 ca        1 CPU     -0.137300
      7 N1         -4.8370   -3.0830    0.3360 n4        1 CPU     -0.654800
      8 C7         -2.3530   -0.1970    0.8190 c3        1 CPU     -0.012100
      9 C8         -2.8700   -1.6350    0.8880 c3        1 CPU     -0.121400
     10 C9         -4.2690   -1.6680    0.2980 c3        1 CPU      0.120800
     11 C10        -6.2070   -3.1480   -0.2510 c         1 CPU      0.485100
     12 O1         -6.7530   -2.1490   -0.6890 o         1 CPU     -0.288100
     13 N2         -6.9140   -4.4580   -0.2840 n4        1 CPU     -0.669800
     14 C11        -7.9680   -4.5740    0.8410 c3        1 CPU      0.137500
     15 C12        -8.9220   -5.7270    0.5120 c3        1 CPU     -0.107400
     16 C13        -9.9930   -5.7870    1.5910 c3        1 CPU     -0.078400
     17 C14        -9.3870   -5.9550    2.9660 c3        1 CPU     -0.100400
     18 C15        -8.3880   -4.8590    3.2670 c3        1 CPU     -0.078400
     19 C16        -7.3050   -4.7870    2.1980 c3        1 CPU     -0.107400
     20 H1         -0.0050   -0.5360   -0.5110 ha        1 CPU      0.128500
     21 H2          2.2930   -0.3810    0.4310 ha        1 CPU      0.155500
     22 H3          2.6210    0.1290    2.8540 ha        1 CPU      0.160000
     23 H4          0.6390    0.4860    4.3330 ha        1 CPU      0.155500
     24 H5         -1.6610    0.3310    3.3970 ha        1 CPU      0.128500
     25 HN1        -4.8600   -3.3970    1.3220 hn        1 CPU      0.487800
     26 H72        -3.0410    0.4780    1.3950 hc        1 CPU      0.068200
     27 H71        -2.3440    0.1490   -0.2490 hc        1 CPU      0.068200
     28 H82        -2.1690   -2.2970    0.3130 hc        1 CPU      0.082700
     29 H81        -2.8720   -1.9670    1.9600 hc        1 CPU      0.082700
     30 H92        -4.2610   -1.3360   -0.7810 hx        1 CPU      0.129700
     31 H91        -4.9720   -1.0060    0.8820 hx        1 CPU      0.129700
     32 HN2        -6.2760   -5.2610   -0.2240 hn        1 CPU      0.491300
     33 H11        -8.5360   -3.5940    0.8250 hx        1 CPU      0.131700
     34 H121       -8.3680   -6.7020    0.4860 hc        1 CPU      0.066700
     35 H122       -9.4150   -5.5660   -0.4840 hc        1 CPU      0.066700
     36 H131      -10.6690   -6.6570    1.3640 hc        1 CPU      0.087700
     37 H132      -10.6230   -4.8580    1.5550 hc        1 CPU      0.087700
     38 H141       -8.8910   -6.9590    3.0460 hc        1 CPU      0.087700
     39 H142      -10.2050   -5.9290    3.7370 hc        1 CPU      0.087700
     40 H151       -8.9120   -3.8700    3.3410 hc        1 CPU      0.087700
     41 H152       -7.8950   -5.0560    4.2580 hc        1 CPU      0.087700
     42 H161       -6.6140   -3.9380    2.4420 hc        1 CPU      0.066700
     43 H162       -6.7210   -5.7460    2.2100 hc        1 CPU      0.066700
     44 H12        -4.1930   -3.6990   -0.1870 hn        1 CPU      0.487800
     45 H22        -7.4260   -4.5130   -1.1870 hn        1 CPU      0.491300
@<TRIPOS>BOND
     1    1    2 ar  
     2    1    6 ar  
     3    1   20 1   
     4    2    3 ar  
     5    2   21 1   
     6    3    4 ar  
     7    3   22 1   
     8    4    5 ar  
     9    4   23 1   
    10    5    6 ar  
    11    5   24 1   
    12    6    8 1   
    13    7   10 1   
    14    7   11 1   
    15    7   25 1   
    16    7   44 1   
    17    8    9 1   
    18    8   26 1   
    19    8   27 1   
    20    9   10 1   
    21    9   28 1   
    22    9   29 1   
    23   10   30 1   
    24   10   31 1   
    25   11   12 2   
    26   11   13 1   
    27   13   14 1   
    28   13   32 1   
    29   13   45 1   
    30   14   15 1   
    31   14   19 1   
    32   14   33 1   
    33   15   16 1   
    34   15   34 1   
    35   15   35 1   
    36   16   17 1   
    37   16   36 1   
    38   16   37 1   
    39   17   18 1   
    40   17   38 1   
    41   17   39 1   
    42   18   19 1   
    43   18   40 1   
    44   18   41 1   
    45   19   42 1   
    46   19   43 1   
@<TRIPOS>SUBSTRUCTURE
     1 CPU         1 TEMP              0 ****  ****    0 ROOT
