@<TRIPOS>MOLECULE
CPU
   43    44     1     0     0
SMALL
bcc


@<TRIPOS>ATOM
      1 C1          0.8570    0.6920    5.5200 ca        1 CPU     -0.127000
      2 C2          0.9170    0.0890    6.7750 ca        1 CPU     -0.128000
      3 C3         -0.0390   -0.8570    7.1440 ca        1 CPU     -0.131000
      4 C4         -1.0570   -1.1980    6.2530 ca        1 CPU     -0.128000
      5 C5         -1.1190   -0.5970    4.9980 ca        1 CPU     -0.127000
      6 C6         -0.1610    0.3530    4.6220 ca        1 CPU     -0.080300
      7 N1          0.3960   -0.1200   -0.2800 n         1 CPU     -0.545900
      8 C7         -0.2370    1.0010    3.2840 c3        1 CPU     -0.036100
      9 C8          0.1690    0.0430    2.1790 c3        1 CPU     -0.086400
     10 C9          0.0500    0.7430    0.8260 c3        1 CPU      0.079000
     11 C10         0.2010    0.3920   -1.5810 c         1 CPU      0.732100
     12 O1         -0.4990    1.4170   -1.7600 o         1 CPU     -0.632100
     13 N2          0.8190   -0.2710   -2.6650 n         1 CPU     -0.532900
     14 C11         0.3340    0.0190   -4.0050 c3        1 CPU      0.084700
     15 C12         1.4070   -0.3120   -5.0560 c3        1 CPU     -0.091900
     16 C13         0.9270    0.0870   -6.4350 c3        1 CPU     -0.074900
     17 C14        -0.3750   -0.5990   -6.7920 c3        1 CPU     -0.079400
     18 C15        -1.4370   -0.3270   -5.7470 c3        1 CPU     -0.074900
     19 C16        -0.9680   -0.7200   -4.3630 c3        1 CPU     -0.091900
     20 H1          1.6130    1.4390    5.2350 ha        1 CPU      0.131500
     21 H2          1.7200    0.3610    7.4760 ha        1 CPU      0.131000
     22 H3          0.0080   -1.3320    8.1350 ha        1 CPU      0.131000
     23 H4         -1.8140   -1.9430    6.5420 ha        1 CPU      0.131000
     24 H5         -1.9230   -0.8650    4.2970 ha        1 CPU      0.131500
     25 HN1         1.1940   -0.6970   -0.1290 hn        1 CPU      0.289500
     26 H72         0.4270    1.9060    3.2550 hc        1 CPU      0.052700
     27 H71        -1.2880    1.3550    3.1020 hc        1 CPU      0.052700
     28 H82        -0.4910   -0.8630    2.2070 hc        1 CPU      0.049700
     29 H81         1.2220   -0.3020    2.3480 hc        1 CPU      0.049700
     30 H92         0.7020    1.6650    0.8310 h1        1 CPU      0.053200
     31 H91        -1.0130    1.0890    0.6690 h1        1 CPU      0.053200
     32 HN2         1.0690   -1.2250   -2.5230 hn        1 CPU      0.284500
     33 H11         0.1240    1.1310   -4.0460 h1        1 CPU      0.092700
     34 H121        2.3560    0.2350   -4.8180 hc        1 CPU      0.045450
     35 H122        1.6320   -1.4110   -5.0390 hc        1 CPU      0.045450
     36 H131        0.7870    1.2000   -6.4750 hc        1 CPU      0.044200
     37 H132        1.7120   -0.1800   -7.1900 hc        1 CPU      0.044200
     38 H141       -0.7300   -0.2370   -7.7920 hc        1 CPU      0.040200
     39 H142       -0.2060   -1.7050   -6.8740 hc        1 CPU      0.040200
     40 H151       -1.7000    0.7640   -5.7550 hc        1 CPU      0.044200
     41 H152       -2.3680   -0.8990   -5.9990 hc        1 CPU      0.044200
     42 H161       -0.8010   -1.8280   -4.3220 hc        1 CPU      0.045450
     43 H162       -1.7600   -0.4610   -3.6120 hc        1 CPU      0.045450
@<TRIPOS>BOND
     1    1    2 ar  
     2    1    6 ar  
     3    1   20 1   
     4    2    3 ar  
     5    2   21 1   
     6    3    4 ar  
     7    3   22 1   
     8    4    5 ar  
     9    4   23 1   
    10    5    6 ar  
    11    5   24 1   
    12    6    8 1   
    13    7   10 1   
    14    7   11 1   
    15    7   25 1   
    16    8    9 1   
    17    8   26 1   
    18    8   27 1   
    19    9   10 1   
    20    9   28 1   
    21    9   29 1   
    22   10   30 1   
    23   10   31 1   
    24   11   12 2   
    25   11   13 1   
    26   13   14 1   
    27   13   32 1   
    28   14   15 1   
    29   14   19 1   
    30   14   33 1   
    31   15   16 1   
    32   15   34 1   
    33   15   35 1   
    34   16   17 1   
    35   16   36 1   
    36   16   37 1   
    37   17   18 1   
    38   17   38 1   
    39   17   39 1   
    40   18   19 1   
    41   18   40 1   
    42   18   41 1   
    43   19   42 1   
    44   19   43 1   
@<TRIPOS>SUBSTRUCTURE
     1 CPU         1 TEMP              0 ****  ****    0 ROOT
