@<TRIPOS>MOLECULE
CPU
   45    46     1     0     0
SMALL
bcc


@<TRIPOS>ATOM
      1 C1          0.0000    0.0000    0.0000 ca        1 CPU     -0.090500
      2 C2          1.3830    0.0000    0.0000 ca        1 CPU     -0.080000
      3 C3          2.0730    0.0000    1.1970 ca        1 CPU     -0.060000
      4 C4          1.3820   -0.0010    2.3940 ca        1 CPU     -0.080000
      5 C5         -0.0010    0.0030    2.3930 ca        1 CPU     -0.090500
      6 C6         -0.6910   -0.0020    1.1950 ca        1 CPU     -0.153300
      7 N1         -4.7260   -2.8250    1.1930 ny        1 CPU      0.146200
      8 C7         -2.1980   -0.0020    1.1960 c3        1 CPU      0.065900
      9 C8         -2.7080   -1.4450    1.1940 c3        1 CPU     -0.031400
     10 C9         -4.2380   -1.4450    1.1940 c3        1 CPU     -0.020200
     11 C10        -6.0500   -3.0730    1.1920 c         1 CPU      0.123100
     12 O1         -6.8410   -2.1490    1.1930 o         1 CPU     -0.269100
     13 N2         -6.5000   -4.3420    1.1970 ny        1 CPU      0.132200
     14 C11        -7.9390   -4.6110    1.2030 c3        1 CPU     -0.058500
     15 C12        -8.2150   -5.9340    0.4850 c3        1 CPU     -0.024900
     16 C13        -9.7200   -6.2140    0.4910 c3        1 CPU     -0.007400
     17 C14       -10.2160   -6.3040    1.9350 c3        1 CPU     -0.034400
     18 C15        -9.9400   -4.9810    2.6520 c3        1 CPU     -0.007400
     19 C16        -8.4360   -4.7020    2.6460 c3        1 CPU     -0.024900
     20 H1         -0.5410   -0.0020   -0.9380 ha        1 CPU      0.101000
     21 H2          1.9240    0.0010   -0.9380 ha        1 CPU      0.121000
     22 H3          3.1560    0.0000    1.1970 ha        1 CPU      0.123000
     23 H4          1.9230    0.0010    3.3320 ha        1 CPU      0.121000
     24 H5         -0.5430    0.0020    3.3310 ha        1 CPU      0.101000
     25 HN1        -4.3470   -3.2660    0.3780 hn        1 CPU      0.272800
     26 H72        -2.5600    0.5100    0.3120 hc        1 CPU      0.032700
     27 H71        -2.5590    0.5070    2.0810 hc        1 CPU      0.032700
     28 H82        -2.3470   -1.9550    0.3090 hc        1 CPU      0.039700
     29 H81        -2.3470   -1.9570    2.0780 hc        1 CPU      0.039700
     30 H92        -4.5990   -0.9340    0.3100 hx        1 CPU      0.102700
     31 H91        -4.5980   -0.9350    2.0790 hx        1 CPU      0.102700
     32 HN2        -6.1180   -4.7830    2.0100 hn        1 CPU      0.275800
     33 H11        -8.4620   -3.8110    0.6940 hx        1 CPU      0.115700
     34 H121       -7.6980   -6.7360    0.9980 hc        1 CPU      0.034200
     35 H122       -7.8660   -5.8670   -0.5380 hc        1 CPU      0.034200
     36 H131       -9.9130   -7.1520   -0.0150 hc        1 CPU      0.049700
     37 H132      -10.2370   -5.4100   -0.0180 hc        1 CPU      0.049700
     38 H141       -9.6960   -7.1050    2.4450 hc        1 CPU      0.048200
     39 H142      -11.2820   -6.4980    1.9370 hc        1 CPU      0.048200
     40 H151      -10.4570   -4.1790    2.1390 hc        1 CPU      0.049700
     41 H152      -10.2900   -5.0470    3.6750 hc        1 CPU      0.049700
     42 H161       -8.2430   -3.7640    3.1530 hc        1 CPU      0.034200
     43 H162       -7.9190   -5.5060    3.1550 hc        1 CPU      0.034200
     44 H12        -4.3490   -3.2670    2.0080 hn        1 CPU      0.272800
     45 H22        -6.1260   -4.7860    0.3820 hn        1 CPU      0.275800
@<TRIPOS>BOND
     1    1    2 ar  
     2    1    6 ar  
     3    1   20 1   
     4    2    3 ar  
     5    2   21 1   
     6    3    4 ar  
     7    3   22 1   
     8    4    5 ar  
     9    4   23 1   
    10    5    6 ar  
    11    5   24 1   
    12    6    8 1   
    13    7   10 1   
    14    7   11 1   
    15    7   25 1   
    16    7   44 1   
    17    8    9 1   
    18    8   26 1   
    19    8   27 1   
    20    9   10 1   
    21    9   28 1   
    22    9   29 1   
    23   10   30 1   
    24   10   31 1   
    25   11   12 2   
    26   11   13 1   
    27   13   14 1   
    28   13   32 1   
    29   13   45 1   
    30   14   15 1   
    31   14   19 1   
    32   14   33 1   
    33   15   16 1   
    34   15   34 1   
    35   15   35 1   
    36   16   17 1   
    37   16   36 1   
    38   16   37 1   
    39   17   18 1   
    40   17   38 1   
    41   17   39 1   
    42   18   19 1   
    43   18   40 1   
    44   18   41 1   
    45   19   42 1   
    46   19   43 1   
@<TRIPOS>SUBSTRUCTURE
     1 CPU         1 TEMP              0 ****  ****    0 ROOT
