@<TRIPOS>MOLECULE
CPU
   45    46     1     0     0
SMALL
bcc


@<TRIPOS>ATOM
      1 C1          0.1370   -0.3290    0.5690 ca        1 CPU     -0.118000
      2 C2          1.4210   -0.2340    1.1020 ca        1 CPU     -0.115000
      3 C3          1.5960    0.0510    2.4580 ca        1 CPU     -0.092000
      4 C4          0.4840    0.2430    3.2790 ca        1 CPU     -0.115000
      5 C5         -0.8010    0.1490    2.7490 ca        1 CPU     -0.118000
      6 C6         -0.9810   -0.1370    1.3900 ca        1 CPU     -0.137300
      7 N1         -4.8320   -3.0910    0.3320 n4        1 CPU     -0.654800
      8 C7         -2.3500   -0.2030    0.8150 c3        1 CPU     -0.012100
      9 C8         -2.8670   -1.6410    0.8870 c3        1 CPU     -0.121400
     10 C9         -4.2640   -1.6760    0.2910 c3        1 CPU      0.120800
     11 C10        -6.1990   -3.1580   -0.2600 c         1 CPU      0.485100
     12 O1         -6.7420   -2.1610   -0.7070 o         1 CPU     -0.288100
     13 N2         -6.9090   -4.4670   -0.2860 n4        1 CPU     -0.669800
     14 C11        -7.9660   -4.5740    0.8360 c3        1 CPU      0.137500
     15 C12        -8.9210   -5.7270    0.5120 c3        1 CPU     -0.107400
     16 C13        -9.9960   -5.7780    1.5880 c3        1 CPU     -0.078400
     17 C14        -9.3940   -5.9390    2.9660 c3        1 CPU     -0.100400
     18 C15        -8.3940   -4.8430    3.2630 c3        1 CPU     -0.078400
     19 C16        -7.3070   -4.7790    2.1970 c3        1 CPU     -0.107400
     20 H1          0.0060   -0.5340   -0.5040 ha        1 CPU      0.128500
     21 H2          2.2980   -0.3740    0.4510 ha        1 CPU      0.155500
     22 H3          2.6120    0.1320    2.8770 ha        1 CPU      0.160000
     23 H4          0.6230    0.4800    4.3460 ha        1 CPU      0.155500
     24 H5         -1.6730    0.3220    3.3970 ha        1 CPU      0.128500
     25 HN1        -4.1860   -3.7080   -0.1870 hn        1 CPU      0.487800
     26 H72        -2.3360    0.1390   -0.2550 hc        1 CPU      0.068200
     27 H71        -3.0410    0.4740    1.3840 hc        1 CPU      0.068200
     28 H82        -2.1640   -2.3050    0.3170 hc        1 CPU      0.082700
     29 H81        -2.8740   -1.9690    1.9600 hc        1 CPU      0.082700
     30 H92        -4.2510   -1.3480   -0.7900 hx        1 CPU      0.129700
     31 H91        -4.9690   -1.0120    0.8690 hx        1 CPU      0.129700
     32 HN2        -6.2720   -5.2700   -0.2190 hn        1 CPU      0.491300
     33 H11        -8.5330   -3.5930    0.8120 hx        1 CPU      0.131700
     34 H121       -9.4110   -5.5720   -0.4860 hc        1 CPU      0.066700
     35 H122       -8.3690   -6.7040    0.4940 hc        1 CPU      0.066700
     36 H131      -10.6230   -4.8490    1.5440 hc        1 CPU      0.087700
     37 H132      -10.6720   -6.6490    1.3640 hc        1 CPU      0.087700
     38 H141      -10.2140   -5.9060    3.7340 hc        1 CPU      0.087700
     39 H142       -8.9000   -6.9430    3.0540 hc        1 CPU      0.087700
     40 H151       -7.9050   -5.0340    4.2560 hc        1 CPU      0.087700
     41 H152       -8.9160   -3.8520    3.3290 hc        1 CPU      0.087700
     42 H161       -6.6160   -3.9300    2.4370 hc        1 CPU      0.066700
     43 H162       -6.7250   -5.7390    2.2160 hc        1 CPU      0.066700
     44 H12        -4.8590   -3.4010    1.3190 hn        1 CPU      0.487800
     45 H22        -7.4180   -4.5270   -1.1910 hn        1 CPU      0.491300
@<TRIPOS>BOND
     1    1    2 ar  
     2    1    6 ar  
     3    1   20 1   
     4    2    3 ar  
     5    2   21 1   
     6    3    4 ar  
     7    3   22 1   
     8    4    5 ar  
     9    4   23 1   
    10    5    6 ar  
    11    5   24 1   
    12    6    8 1   
    13    7   10 1   
    14    7   11 1   
    15    7   25 1   
    16    7   44 1   
    17    8    9 1   
    18    8   26 1   
    19    8   27 1   
    20    9   10 1   
    21    9   28 1   
    22    9   29 1   
    23   10   30 1   
    24   10   31 1   
    25   11   12 2   
    26   11   13 1   
    27   13   14 1   
    28   13   32 1   
    29   13   45 1   
    30   14   15 1   
    31   14   19 1   
    32   14   33 1   
    33   15   16 1   
    34   15   34 1   
    35   15   35 1   
    36   16   17 1   
    37   16   36 1   
    38   16   37 1   
    39   17   18 1   
    40   17   38 1   
    41   17   39 1   
    42   18   19 1   
    43   18   40 1   
    44   18   41 1   
    45   19   42 1   
    46   19   43 1   
@<TRIPOS>SUBSTRUCTURE
     1 CPU         1 TEMP              0 ****  ****    0 ROOT
