@<TRIPOS>MOLECULE
CPV
   48    48     1     0     0
SMALL
bcc


@<TRIPOS>ATOM
      1 C          -1.5440   -0.2680   -0.0940 c         1 CPV      0.628100
      2 N          -5.4100    0.7990    1.2540 n3        1 CPV     -0.909800
      3 O          -1.0530    0.3000   -1.0700 o         1 CPV     -0.498000
      4 CA         -4.3380    1.4080    0.4930 c3        1 CPV      0.168500
      5 CB         -4.7040    2.6720   -0.3010 c3        1 CPV     -0.114400
      6 CG         -5.8820    2.5070   -1.2460 c3        1 CPV     -0.061700
      7 CH         -3.1150    1.7610    1.3850 c3        1 CPV      0.137100
      8 OH         -3.5680    2.6950    2.3570 oh        1 CPV     -0.599800
      9 CZ         -7.0630    2.6300   -3.9350 c3        1 CPV     -0.077400
     10 CA'        -1.2520    0.0360    1.3560 c3        1 CPV     -0.156700
     11 CB'        -0.6680   -1.1970    2.0520 c3        1 CPV     -0.062700
     12 CB1        -2.5050    0.5330    2.0620 c3        1 CPV     -0.117400
     13 CD1        -5.6360    1.4130   -2.2750 c3        1 CPV     -0.075900
     14 CD2        -6.1510    3.8360   -1.9450 c3        1 CPV     -0.075900
     15 CE1        -6.7850    1.3060   -3.2560 c3        1 CPV     -0.075900
     16 CE2        -7.3070    3.7250   -2.9170 c3        1 CPV     -0.075900
     17 CG1        -0.1670   -0.8540    3.4390 c3        1 CPV     -0.098600
     18 CG2         0.4590   -1.7900    1.2280 c3        1 CPV     -0.098600
     19 OXT        -2.4280   -1.2560   -0.4260 oh        1 CPV     -0.581100
     20 HN         -2.8210   -1.6270    0.3770 ho        1 CPV      0.432000
     21 H2         -6.2110    0.6670    0.6680 hn        1 CPV      0.356300
     22 H3         -3.9750    0.6230   -0.2410 h1        1 CPV      0.068700
     23 HB         -4.9300    3.4990    0.4240 hc        1 CPV      0.054200
     24 HBA        -3.8040    2.9810   -0.8950 hc        1 CPV      0.054200
     25 HG         -6.8030    2.2400   -0.6560 hc        1 CPV      0.039700
     26 HH         -2.3410    2.2540    0.7280 h1        1 CPV      0.046700
     27 HOH        -2.7920    2.9850    2.8500 ho        1 CPV      0.402000
     28 HZ         -6.1900    2.9090   -4.5810 hc        1 CPV      0.039700
     29 HZA        -7.9580    2.5310   -4.6030 hc        1 CPV      0.039700
     30 HA'        -0.4740    0.8530    1.3670 hc        1 CPV      0.088700
     31 H12        -1.4850   -1.9680    2.1480 hc        1 CPV      0.046700
     32 HB1        -3.2570   -0.2960    2.1260 hc        1 CPV      0.067700
     33 HB1A       -2.2330    0.8040    3.1180 hc        1 CPV      0.067700
     34 HD1        -5.5040    0.4280   -1.7540 hc        1 CPV      0.043450
     35 HD1A       -4.6850    1.6310   -2.8290 hc        1 CPV      0.043450
     36 HD2        -6.3800    4.6200   -1.1770 hc        1 CPV      0.043450
     37 HD2A       -5.2290    4.1590   -2.4940 hc        1 CPV      0.043450
     38 HE1        -7.7070    0.9650   -2.7150 hc        1 CPV      0.038450
     39 HE1A       -6.5430    0.5310   -4.0290 hc        1 CPV      0.038450
     40 HE2        -7.4470    4.7040   -3.4430 hc        1 CPV      0.038450
     41 HE2A       -8.2520    3.5070   -2.3530 hc        1 CPV      0.038450
     42 HG1         0.5490    0.0020    3.4000 hc        1 CPV      0.043533
     43 HG1A        0.3600   -1.7340    3.8810 hc        1 CPV      0.043533
     44 H25        -1.0140   -0.5810    4.1130 hc        1 CPV      0.043533
     45 HG2         0.8700   -2.6950    1.7370 hc        1 CPV      0.043533
     46 HG2A        1.2840   -1.0480    1.1020 hc        1 CPV      0.043533
     47 HG2B        0.0920   -2.0880    0.2150 hc        1 CPV      0.043533
     48 HN3        -5.6620    1.3830    2.0280 hn        1 CPV      0.356300
@<TRIPOS>BOND
     1    1    3 2   
     2    1   10 1   
     3    1   19 1   
     4    2    4 1   
     5    2   21 1   
     6    2   48 1   
     7    4    5 1   
     8    4    7 1   
     9    4   22 1   
    10    5    6 1   
    11    5   23 1   
    12    5   24 1   
    13    6   13 1   
    14    6   14 1   
    15    6   25 1   
    16    7    8 1   
    17    7   12 1   
    18    7   26 1   
    19    8   27 1   
    20    9   15 1   
    21    9   16 1   
    22    9   28 1   
    23    9   29 1   
    24   10   11 1   
    25   10   12 1   
    26   10   30 1   
    27   11   17 1   
    28   11   18 1   
    29   11   31 1   
    30   12   32 1   
    31   12   33 1   
    32   13   15 1   
    33   13   34 1   
    34   13   35 1   
    35   14   16 1   
    36   14   36 1   
    37   14   37 1   
    38   15   38 1   
    39   15   39 1   
    40   16   40 1   
    41   16   41 1   
    42   17   42 1   
    43   17   43 1   
    44   17   44 1   
    45   18   45 1   
    46   18   46 1   
    47   18   47 1   
    48   19   20 1   
@<TRIPOS>SUBSTRUCTURE
     1 CPV         1 TEMP              0 ****  ****    0 ROOT
