@<TRIPOS>MOLECULE
CPV
   47    47     1     0     0
SMALL
bcc


@<TRIPOS>ATOM
      1 C          -3.0530    1.0660   -0.8320 c         1 CPV      0.909600
      2 N           1.0390   -2.2390   -0.1640 n3        1 CPV     -0.893800
      3 O          -3.3980    2.0480   -0.1210 o         1 CPV     -0.845300
      4 CA          0.8060   -0.8070   -0.0580 c3        1 CPV      0.157500
      5 CB          1.9010    0.0210   -0.7450 c3        1 CPV     -0.070400
      6 CG          3.2960   -0.2050   -0.1850 c3        1 CPV     -0.060700
      7 CH         -0.5660   -0.3280   -0.6120 c3        1 CPV      0.114100
      8 OH         -0.7370   -0.9200   -1.8910 oh        1 CPV     -0.656800
      9 CZ          5.8740    0.8210    0.7940 c3        1 CPV     -0.074400
     10 CA'        -3.0680   -0.3630   -0.2330 c3        1 CPV     -0.185700
     11 CB'        -4.1650   -0.5000    0.8170 c3        1 CPV     -0.052700
     12 CB1        -1.7020   -0.7040    0.3380 c3        1 CPV     -0.080400
     13 CD1         3.4410    0.4010    1.2040 c3        1 CPV     -0.074900
     14 CD2         4.3290    0.4030   -1.1280 c3        1 CPV     -0.074900
     15 CE1         4.8480    0.2300    1.7390 c3        1 CPV     -0.073900
     16 CE2         5.7360    0.2330   -0.5950 c3        1 CPV     -0.073900
     17 CG1        -5.5250   -0.3170    0.1730 c3        1 CPV     -0.084100
     18 CG2        -4.1100   -1.8300    1.5400 c3        1 CPV     -0.084100
     19 OXT        -2.6710    1.1720   -2.0390 o         1 CPV     -0.845300
     20 HN          0.2280   -2.7220    0.1800 hn        1 CPV      0.341300
     21 H2          1.1430   -2.4820   -1.1330 hn        1 CPV      0.341300
     22 H3          0.8120   -0.5600    1.0460 h1        1 CPV      0.047700
     23 HB          1.8930   -0.2160   -1.8420 hc        1 CPV      0.049700
     24 HBA         1.6340    1.1060   -0.6360 hc        1 CPV      0.049700
     25 HG          3.4960   -1.3100   -0.1120 hc        1 CPV      0.062700
     26 HH         -0.5530    0.7950   -0.7210 h1        1 CPV      0.071700
     27 HOH        -1.4600   -0.4230   -2.3190 ho        1 CPV      0.460000
     28 HZ          5.7380    1.9330    0.7430 hc        1 CPV      0.029700
     29 HZA         6.9060    0.6250    1.1860 hc        1 CPV      0.029700
     30 HA'        -3.2830   -1.0750   -1.0780 hc        1 CPV      0.039700
     31 H12        -4.0180    0.3330    1.5640 hc        1 CPV      0.067700
     32 HB1        -1.6610   -1.8030    0.5590 hc        1 CPV      0.023200
     33 HB1A       -1.5520   -0.1530    1.3020 hc        1 CPV      0.023200
     34 HD1         3.1840    1.4920    1.1650 hc        1 CPV      0.040450
     35 HD1A        2.7160   -0.0930    1.9030 hc        1 CPV      0.040450
     36 HD2         4.2480   -0.0860   -2.1330 hc        1 CPV      0.040450
     37 HD2A        4.1080    1.4940   -1.2660 hc        1 CPV      0.040450
     38 HE1         5.0610   -0.8620    1.8850 hc        1 CPV      0.030950
     39 HE1A        4.9320    0.7260    2.7410 hc        1 CPV      0.030950
     40 HE2         6.4630    0.7310   -1.2880 hc        1 CPV      0.030950
     41 HE2A        5.9930   -0.8590   -0.5640 hc        1 CPV      0.030950
     42 HG1        -5.7230   -1.1250   -0.5710 hc        1 CPV      0.021033
     43 HG1A       -6.3300   -0.3410    0.9460 hc        1 CPV      0.021033
     44 H25        -5.5530    0.6710   -0.3510 hc        1 CPV      0.021033
     45 HG2        -3.2020   -1.8910    2.1860 hc        1 CPV      0.021033
     46 HG2A       -5.0100   -1.9570    2.1900 hc        1 CPV      0.021033
     47 HG2B       -4.0810   -2.6740    0.8090 hc        1 CPV      0.021033
@<TRIPOS>BOND
     1    1    3 1   
     2    1   10 1   
     3    1   19 1   
     4    2    4 1   
     5    2   20 1   
     6    2   21 1   
     7    4    5 1   
     8    4    7 1   
     9    4   22 1   
    10    5    6 1   
    11    5   23 1   
    12    5   24 1   
    13    6   13 1   
    14    6   14 1   
    15    6   25 1   
    16    7    8 1   
    17    7   12 1   
    18    7   26 1   
    19    8   27 1   
    20    9   15 1   
    21    9   16 1   
    22    9   28 1   
    23    9   29 1   
    24   10   11 1   
    25   10   12 1   
    26   10   30 1   
    27   11   17 1   
    28   11   18 1   
    29   11   31 1   
    30   12   32 1   
    31   12   33 1   
    32   13   15 1   
    33   13   34 1   
    34   13   35 1   
    35   14   16 1   
    36   14   36 1   
    37   14   37 1   
    38   15   38 1   
    39   15   39 1   
    40   16   40 1   
    41   16   41 1   
    42   17   42 1   
    43   17   43 1   
    44   17   44 1   
    45   18   45 1   
    46   18   46 1   
    47   18   47 1   
@<TRIPOS>SUBSTRUCTURE
     1 CPV         1 TEMP              0 ****  ****    0 ROOT
