@<TRIPOS>MOLECULE
CPV
   48    48     1     0     0
SMALL
bcc


@<TRIPOS>ATOM
      1 C          -1.5430   -0.2680   -0.1150 c         1 CPV      0.628100
      2 N          -5.3840    0.8220    1.2900 n3        1 CPV     -0.909800
      3 O          -1.0690    0.2860   -1.1080 o         1 CPV     -0.498000
      4 CA         -4.3270    1.4170    0.4990 c3        1 CPV      0.168500
      5 CB         -4.7070    2.6700   -0.3080 c3        1 CPV     -0.114400
      6 CG         -5.9030    2.4910   -1.2270 c3        1 CPV     -0.061700
      7 CH         -3.0870    1.7830    1.3610 c3        1 CPV      0.137100
      8 OH         -3.5190    2.7330    2.3270 oh        1 CPV     -0.599800
      9 CZ         -7.1380    2.5710   -3.8930 c3        1 CPV     -0.077400
     10 CA'        -1.2250    0.0570    1.3250 c3        1 CPV     -0.156700
     11 CB'        -0.6290   -1.1670    2.0270 c3        1 CPV     -0.062700
     12 CB1        -2.4650    0.5650    2.0460 c3        1 CPV     -0.117400
     13 CD1        -5.6800    1.3790   -2.2420 c3        1 CPV     -0.075900
     14 CD2        -6.1840    3.8080   -1.9420 c3        1 CPV     -0.075900
     15 CE1        -6.8490    1.2580   -3.1970 c3        1 CPV     -0.075900
     16 CE2        -7.3590    3.6830   -2.8890 c3        1 CPV     -0.075900
     17 CG1        -0.1040   -0.8040    3.4010 c3        1 CPV     -0.098600
     18 CG2         0.4830   -1.7720    1.1930 c3        1 CPV     -0.098600
     19 OXT        -2.4330   -1.2600   -0.4170 oh        1 CPV     -0.581100
     20 HN         -5.6200    1.4190    2.0600 hn        1 CPV      0.356300
     21 H2         -6.1970    0.6820    0.7220 hn        1 CPV      0.356300
     22 H3         -3.9790    0.6200   -0.2300 h1        1 CPV      0.068700
     23 HB         -3.8180    2.9660   -0.9250 hc        1 CPV      0.054200
     24 HBA        -4.9170    3.5090    0.4080 hc        1 CPV      0.054200
     25 HG         -6.8140    2.2360   -0.6140 hc        1 CPV      0.039700
     26 HH         -2.3250    2.2640    0.6810 h1        1 CPV      0.046700
     27 HOH        -2.7330    3.0300    2.8000 ho        1 CPV      0.402000
     28 HZ         -8.0470    2.4630   -4.5410 hc        1 CPV      0.039700
     29 HZA        -6.2770    2.8370   -4.5620 hc        1 CPV      0.039700
     30 HA'        -0.4460    0.8730    1.3100 hc        1 CPV      0.088700
     31 H12        -1.4440   -1.9360    2.1490 hc        1 CPV      0.046700
     32 HB1        -2.1740    0.8510    3.0930 hc        1 CPV      0.067700
     33 HB1A       -3.2150   -0.2620    2.1360 hc        1 CPV      0.067700
     34 HD1        -5.5400    0.4030   -1.7080 hc        1 CPV      0.043450
     35 HD1A       -4.7400    1.5860   -2.8190 hc        1 CPV      0.043450
     36 HD2        -5.2720    4.1200   -2.5160 hc        1 CPV      0.043450
     37 HD2A       -6.3960    4.6060   -1.1830 hc        1 CPV      0.043450
     38 HE1        -6.6240    0.4690   -3.9620 hc        1 CPV      0.038450
     39 HE1A       -7.7610    0.9280   -2.6320 hc        1 CPV      0.038450
     40 HE2        -8.2930    3.4770   -2.3020 hc        1 CPV      0.038450
     41 HE2A       -7.5090    4.6540   -3.4290 hc        1 CPV      0.038450
     42 HG1         0.6120    0.0510    3.3370 hc        1 CPV      0.043533
     43 HG1A       -0.9390   -0.5210    4.0860 hc        1 CPV      0.043533
     44 H25         0.4310   -1.6790    3.8460 hc        1 CPV      0.043533
     45 HG2         0.0980   -2.0840    0.1910 hc        1 CPV      0.043533
     46 HG2A        0.9020   -2.6710    1.7070 hc        1 CPV      0.043533
     47 HG2B        1.3060   -1.0330    1.0420 hc        1 CPV      0.043533
     48 HN3        -2.8120   -1.6190    0.3980 ho        1 CPV      0.432000
@<TRIPOS>BOND
     1    1    3 2   
     2    1   10 1   
     3    1   19 1   
     4    2    4 1   
     5    2   20 1   
     6    2   21 1   
     7    4    5 1   
     8    4    7 1   
     9    4   22 1   
    10    5    6 1   
    11    5   23 1   
    12    5   24 1   
    13    6   13 1   
    14    6   14 1   
    15    6   25 1   
    16    7    8 1   
    17    7   12 1   
    18    7   26 1   
    19    8   27 1   
    20    9   15 1   
    21    9   16 1   
    22    9   28 1   
    23    9   29 1   
    24   10   11 1   
    25   10   12 1   
    26   10   30 1   
    27   11   17 1   
    28   11   18 1   
    29   11   31 1   
    30   12   32 1   
    31   12   33 1   
    32   13   15 1   
    33   13   34 1   
    34   13   35 1   
    35   14   16 1   
    36   14   36 1   
    37   14   37 1   
    38   15   38 1   
    39   15   39 1   
    40   16   40 1   
    41   16   41 1   
    42   17   42 1   
    43   17   43 1   
    44   17   44 1   
    45   18   45 1   
    46   18   46 1   
    47   18   47 1   
    48   19   48 1   
@<TRIPOS>SUBSTRUCTURE
     1 CPV         1 TEMP              0 ****  ****    0 ROOT
