@<TRIPOS>MOLECULE
CPV
   47    46     1     0     0
SMALL
bcc


@<TRIPOS>ATOM
      1 C           0.9450   -3.4410   -1.2970 c1        1 CPV      0.329000
      2 N           1.2070    1.3320    1.0340 n3        1 CPV     -0.326000
      3 O           1.7750   -3.4790   -2.2430 o         1 CPV     -0.580000
      4 CA          0.2900    0.5560    0.2720 c3        1 CPV     -0.041000
      5 CB         -0.2340    1.3820   -0.8800 c3        1 CPV     -0.149000
      6 CG         -0.9510    2.4150   -0.4010 c3        1 CPV     -0.096000
      7 CH          0.9920   -0.6700   -0.2650 c3        1 CPV      0.003000
      8 OH          2.3850   -0.4660   -0.2280 oh        1 CPV     -0.384000
      9 CZ         -2.5130    4.5620    0.0050 c3        1 CPV     -0.151000
     10 CA'         1.4040   -3.0780    0.0980 c2        1 CPV     -0.175000
     11 CB'         1.1530   -4.2430    1.0300 c3        1 CPV     -0.092000
     12 CB1         0.6350   -1.8690    0.5840 c3        1 CPV     -0.159000
     13 CD1        -0.5810    3.7970   -1.1400 c3        1 CPV     -0.153000
     14 CD2        -2.4670    2.3530   -0.8720 c3        1 CPV     -0.153000
     15 CE1        -1.3880    4.9690   -0.6400 c3        1 CPV     -0.151000
     16 CE2        -3.2960    3.5250   -0.3700 c3        1 CPV     -0.151000
     17 CG1         1.4670   -5.5380    0.3140 c3        1 CPV     -0.202000
     18 CG2         2.0400   -4.1130    2.2490 c3        1 CPV     -0.202000
     19 OXT        -0.2680   -3.7020   -1.5130 o         1 CPV     -0.580000
     20 HN          0.7450    1.8650    1.6180 hn        1 CPV      0.136000
     21 H2          1.7620    0.7750    1.5040 hn        1 CPV      0.136000
     22 H3         -0.4550    0.2800    0.8410 h1        1 CPV      0.087000
     23 HB         -0.8040    0.8240   -1.4490 hc        1 CPV      0.088500
     24 HBA         0.5190    1.7230   -1.4060 hc        1 CPV      0.088500
     25 HG         -0.8780    2.4940    0.5710 hc        1 CPV      0.098000
     26 HH          0.7110   -0.8280   -1.1880 h1        1 CPV      0.110000
     27 HOH         2.6700   -0.2200   -1.0330 ho        1 CPV      0.259000
     28 HZ         -3.1030    5.3460    0.0390 hc        1 CPV      0.070000
     29 HZA        -2.2400    4.3730    0.9290 hc        1 CPV      0.070000
     30 HA'         2.3580   -2.8720    0.0840 ha        1 CPV      0.079000
     31 H12         0.2180   -4.2420    1.3080 hc        1 CPV      0.107000
     32 HB1        -0.3250   -2.0430    0.5140 hc        1 CPV      0.062500
     33 HB1A        0.8660   -1.6880    1.5170 hc        1 CPV      0.062500
     34 HD1        -0.7400    3.6930   -2.1000 hc        1 CPV      0.080250
     35 HD1A        0.3680    3.9860   -0.9970 hc        1 CPV      0.080250
     36 HD2        -2.4920    2.3480   -1.8500 hc        1 CPV      0.080250
     37 HD2A       -2.8650    1.5230   -0.5420 hc        1 CPV      0.080250
     38 HE1        -1.6420    5.5300   -1.4020 hc        1 CPV      0.068000
     39 HE1A       -0.8380    5.4960   -0.0240 hc        1 CPV      0.068000
     40 HE2        -3.8980    3.8200   -1.0840 hc        1 CPV      0.068000
     41 HE2A       -3.8290    3.2320    0.3990 hc        1 CPV      0.068000
     42 HG1         1.4630   -6.2760    0.9590 hc        1 CPV      0.060333
     43 HG1A        0.7890   -5.7020   -0.3750 hc        1 CPV      0.060333
     44 H25         2.3500   -5.4740   -0.1050 hc        1 CPV      0.060333
     45 HG2         2.0990   -4.9790    2.7040 hc        1 CPV      0.060333
     46 HG2A        2.9370   -3.8290    1.9720 hc        1 CPV      0.060333
     47 HG2B        1.6610   -3.4470    2.8600 hc        1 CPV      0.060333
@<TRIPOS>BOND
     1    1    3 1   
     2    1   19 1   
     3    2    4 1   
     4    2   20 1   
     5    2   21 1   
     6    4    5 1   
     7    4    7 1   
     8    4   22 1   
     9    5    6 1   
    10    5   23 1   
    11    5   24 1   
    12    6   13 1   
    13    6   14 1   
    14    6   25 1   
    15    7    8 1   
    16    7   12 1   
    17    7   26 1   
    18    8   27 1   
    19    9   15 1   
    20    9   16 1   
    21    9   28 1   
    22    9   29 1   
    23   10   11 1   
    24   10   12 1   
    25   10   30 1   
    26   11   17 1   
    27   11   18 1   
    28   11   31 1   
    29   12   32 1   
    30   12   33 1   
    31   13   15 1   
    32   13   34 1   
    33   13   35 1   
    34   14   16 1   
    35   14   36 1   
    36   14   37 1   
    37   15   38 1   
    38   15   39 1   
    39   16   40 1   
    40   16   41 1   
    41   17   42 1   
    42   17   43 1   
    43   17   44 1   
    44   18   45 1   
    45   18   46 1   
    46   18   47 1   
@<TRIPOS>SUBSTRUCTURE
     1 CPV         1 TEMP              0 ****  ****    0 ROOT
