@<TRIPOS>MOLECULE
CPV
   48    48     1     0     0
SMALL
bcc


@<TRIPOS>ATOM
      1 C          -1.5380   -0.2550   -0.0970 c         1 CPV      0.628100
      2 N          -5.3970    0.8010    1.2700 n8        1 CPV     -0.909800
      3 O          -1.0600    0.3050   -1.0840 o         1 CPV     -0.498000
      4 CA         -4.3360    1.4100    0.4950 c3        1 CPV      0.168500
      5 CB         -4.7170    2.6640   -0.3090 c3        1 CPV     -0.114400
      6 CG         -5.9010    2.4800   -1.2430 c3        1 CPV     -0.061700
      7 CH         -3.1090    1.7800    1.3730 c3        1 CPV      0.137100
      8 OH         -3.5610    2.7210    2.3400 oh        1 CPV     -0.599800
      9 CZ         -7.1030    2.5680   -3.9250 c3        1 CPV     -0.077400
     10 CA'        -1.2350    0.0680    1.3470 c3        1 CPV     -0.156700
     11 CB'        -0.6360   -1.1540    2.0510 c3        1 CPV     -0.062700
     12 CB1        -2.4850    0.5640    2.0590 c3        1 CPV     -0.117400
     13 CD1        -5.6540    1.3780   -2.2630 c3        1 CPV     -0.075900
     14 CD2        -6.1850    3.8000   -1.9530 c3        1 CPV     -0.075900
     15 CE1        -6.8110    1.2520   -3.2340 c3        1 CPV     -0.075900
     16 CE2        -7.3470    3.6710   -2.9150 c3        1 CPV     -0.075900
     17 CG1        -0.1230   -0.7900    3.4290 c3        1 CPV     -0.098600
     18 CG2         0.4870   -1.7490    1.2230 c3        1 CPV     -0.098600
     19 OXT        -2.4170   -1.2530   -0.4100 oh        1 CPV     -0.581100
     20 HN         -6.2020    0.6570    0.6920 hn        1 CPV      0.356300
     21 H2         -5.6480    1.3910    2.0400 hn        1 CPV      0.356300
     22 H3         -3.9730    0.6200   -0.2340 h1        1 CPV      0.068700
     23 HB         -3.8230    2.9730   -0.9130 hc        1 CPV      0.054200
     24 HBA        -4.9430    3.4960    0.4100 hc        1 CPV      0.054200
     25 HG         -6.8160    2.2120   -0.6440 hc        1 CPV      0.039700
     26 HH         -2.3440    2.2720    0.7060 h1        1 CPV      0.046700
     27 HOH        -2.7830    3.0210    2.8240 ho        1 CPV      0.402000
     28 HZ         -6.2360    2.8460   -4.5800 hc        1 CPV      0.039700
     29 HZA        -8.0020    2.4550   -4.5850 hc        1 CPV      0.039700
     30 HA'        -0.4620    0.8900    1.3410 hc        1 CPV      0.088700
     31 H12        -1.4470   -1.9290    2.1650 hc        1 CPV      0.046700
     32 HB1        -3.2310   -0.2690    2.1380 hc        1 CPV      0.067700
     33 HB1A       -2.2060    0.8470    3.1090 hc        1 CPV      0.067700
     34 HD1        -5.5120    0.3990   -1.7340 hc        1 CPV      0.043450
     35 HD1A       -4.7100    1.5970   -2.8270 hc        1 CPV      0.043450
     36 HD2        -6.4140    4.5900   -1.1920 hc        1 CPV      0.043450
     37 HD2A       -5.2690    4.1250   -2.5130 hc        1 CPV      0.043450
     38 HE1        -7.7260    0.9100   -2.6830 hc        1 CPV      0.038450
     39 HE1A       -6.5680    0.4710   -4.0010 hc        1 CPV      0.038450
     40 HE2        -7.4990    4.6440   -3.4510 hc        1 CPV      0.038450
     41 HE2A       -8.2860    3.4520   -2.3420 hc        1 CPV      0.038450
     42 HG1         0.4140   -1.6630    3.8760 hc        1 CPV      0.043533
     43 HG1A       -0.9650   -0.5140    4.1080 hc        1 CPV      0.043533
     44 H25         0.5880    0.0690    3.3720 hc        1 CPV      0.043533
     45 HG2         0.9090   -2.6450    1.7390 hc        1 CPV      0.043533
     46 HG2A        0.1110   -2.0630    0.2180 hc        1 CPV      0.043533
     47 HG2B        1.3060   -1.0040    1.0790 hc        1 CPV      0.043533
     48 HN3        -2.8010   -1.6170    0.4010 ho        1 CPV      0.432000
@<TRIPOS>BOND
     1    1    3 2   
     2    1   10 1   
     3    1   19 1   
     4    2    4 1   
     5    2   20 1   
     6    2   21 1   
     7    4    5 1   
     8    4    7 1   
     9    4   22 1   
    10    5    6 1   
    11    5   23 1   
    12    5   24 1   
    13    6   13 1   
    14    6   14 1   
    15    6   25 1   
    16    7    8 1   
    17    7   12 1   
    18    7   26 1   
    19    8   27 1   
    20    9   15 1   
    21    9   16 1   
    22    9   28 1   
    23    9   29 1   
    24   10   11 1   
    25   10   12 1   
    26   10   30 1   
    27   11   17 1   
    28   11   18 1   
    29   11   31 1   
    30   12   32 1   
    31   12   33 1   
    32   13   15 1   
    33   13   34 1   
    34   13   35 1   
    35   14   16 1   
    36   14   36 1   
    37   14   37 1   
    38   15   38 1   
    39   15   39 1   
    40   16   40 1   
    41   16   41 1   
    42   17   42 1   
    43   17   43 1   
    44   17   44 1   
    45   18   45 1   
    46   18   46 1   
    47   18   47 1   
    48   19   48 1   
@<TRIPOS>SUBSTRUCTURE
     1 CPV         1 TEMP              0 ****  ****    0 ROOT
