@<TRIPOS>MOLECULE
CPW
   29    30     1     0     0
SMALL
bcc


@<TRIPOS>ATOM
      1 C1          0.1070   -0.8400    1.1860 c3        1 CPW      0.087000
      2 N1          0.3300   -0.6530   -0.2410 n         1 CPW     -0.324000
      3 C2          1.6610   -0.4920   -0.7210 c         1 CPW      0.809500
      4 N2          1.8650   -0.1060   -2.0610 n         1 CPW     -0.591500
      5 C3         -0.7030   -0.3190   -1.0850 cc        1 CPW      0.122400
      6 O1          2.6530   -0.7440   -0.0020 o         1 CPW     -0.647500
      7 C4         -0.5130    0.0640   -2.3990 cd        1 CPW     -0.334400
      8 C5          0.8190    0.2060   -2.9530 c         1 CPW      0.742700
      9 O2          1.1110    0.5630   -4.1120 o         1 CPW     -0.660500
     10 C6         -2.1700   -0.3580   -0.7390 c3        1 CPW     -0.054200
     11 C7         -2.8800    0.0630   -2.0330 c3        1 CPW     -0.081400
     12 C8         -1.8000    0.3190   -3.0970 c3        1 CPW      0.005800
     13 C9         -0.0190    0.4610    1.9990 c3        1 CPW     -0.002500
     14 C10        -0.5520    0.0460    3.4170 c         1 CPW      0.896600
     15 O3         -1.5530   -0.7240    3.4370 o         1 CPW     -0.830300
     16 O4          0.0280    0.5180    4.4290 o         1 CPW     -0.830300
     17 N3          1.1880    1.2670    1.9840 n3        1 CPW     -0.902800
     18 H11        -0.8560   -1.4160    1.3140 h1        1 CPW      0.087200
     19 H12         0.9600   -1.4590    1.5830 h1        1 CPW      0.087200
     20 HN2         2.8090    0.0140   -2.3530 hn        1 CPW      0.337500
     21 H61        -2.3920    0.3410    0.1080 hc        1 CPW      0.084200
     22 H62        -2.4730   -1.3870   -0.4180 hc        1 CPW      0.084200
     23 H71        -3.4810    0.9880   -1.8580 hc        1 CPW      0.041700
     24 H72        -3.5780   -0.7410   -2.3700 hc        1 CPW      0.041700
     25 H81        -1.8470    1.3700   -3.4780 hc        1 CPW      0.046700
     26 H82        -1.9240   -0.3660   -3.9740 hc        1 CPW      0.046700
     27 H9         -0.8320    1.1020    1.5460 h1        1 CPW      0.043700
     28 HN31        1.2070    1.8040    2.8360 hn        1 CPW      0.346800
     29 HN32        1.9940    0.6670    1.9940 hn        1 CPW      0.346800
@<TRIPOS>BOND
     1    1    2 1   
     2    1   13 1   
     3    1   18 1   
     4    1   19 1   
     5    2    3 1   
     6    2    5 1   
     7    3    4 1   
     8    3    6 2   
     9    4    8 1   
    10    4   20 1   
    11    5    7 2   
    12    5   10 1   
    13    7    8 1   
    14    7   12 1   
    15    8    9 2   
    16   10   11 1   
    17   10   21 1   
    18   10   22 1   
    19   11   12 1   
    20   11   23 1   
    21   11   24 1   
    22   12   25 1   
    23   12   26 1   
    24   13   14 1   
    25   13   17 1   
    26   13   27 1   
    27   14   15 1   
    28   14   16 1   
    29   17   28 1   
    30   17   29 1   
@<TRIPOS>SUBSTRUCTURE
     1 CPW         1 TEMP              0 ****  ****    0 ROOT
