@<TRIPOS>MOLECULE
CPW
   30    31     1     0     0
SMALL
bcc


@<TRIPOS>ATOM
      1 C1          0.1540    0.0020   -0.1560 c3        1 CPW      0.089000
      2 N1         -0.3450    0.0550   -1.5150 n         1 CPW     -0.365000
      3 C2         -0.5330   -1.1480   -2.2440 c         1 CPW      0.811500
      4 N2         -1.1470   -1.1130   -3.4960 ns        1 CPW     -0.577500
      5 C3         -0.7700    1.2410   -2.0930 cc        1 CPW      0.086400
      6 O1         -0.1200   -2.2410   -1.7720 o         1 CPW     -0.718500
      7 C4         -1.3570    1.2870   -3.3360 cd        1 CPW     -0.275400
      8 C5         -1.5950    0.0820   -4.1140 c         1 CPW      0.733700
      9 O2         -2.1310    0.0010   -5.2280 o         1 CPW     -0.593500
     10 C6         -0.6580    2.6180   -1.4890 c3        1 CPW     -0.051200
     11 C7         -1.2320    3.5510   -2.5650 c3        1 CPW     -0.082400
     12 C8         -1.7010    2.6780   -3.7400 c3        1 CPW     -0.009200
     13 C9          1.6640   -0.2010   -0.0220 c3        1 CPW     -0.104500
     14 C10         2.1070    0.2810    1.4600 c         1 CPW      0.943600
     15 O3          1.6420    1.3810    1.8000 o         1 CPW     -0.751800
     16 O4          2.8770   -0.5120    2.0520 o         1 CPW     -0.751800
     17 N3          2.0960   -1.6080   -0.2430 nz        1 CPW     -0.825600
     18 H11        -0.4000   -0.8140    0.3940 h1        1 CPW      0.107700
     19 H12        -0.0720    0.9880    0.3570 h1        1 CPW      0.107700
     20 HN2        -1.2820   -1.9880   -3.9590 hn        1 CPW      0.355500
     21 H61        -1.2470    2.6830   -0.5390 hc        1 CPW      0.082200
     22 H62         0.4080    2.8660   -1.2510 hc        1 CPW      0.082200
     23 H71        -0.4510    4.2750   -2.9040 hc        1 CPW      0.058200
     24 H72        -2.0870    4.1390   -2.1490 hc        1 CPW      0.058200
     25 H81        -2.8020    2.7820   -3.9130 hc        1 CPW      0.066700
     26 H82        -1.1790    2.9590   -4.6900 hc        1 CPW      0.066700
     27 H9          2.2320    0.4580   -0.7340 hx        1 CPW      0.095700
     28 HN31        2.7810   -1.8310    0.5110 hn        1 CPW      0.453800
     29 HN32        2.5230   -1.7260   -1.1570 hn        1 CPW      0.453800
     30 H33         1.2930   -2.2430   -0.1750 hn        1 CPW      0.453800
@<TRIPOS>BOND
     1    1    2 1   
     2    1   13 1   
     3    1   18 1   
     4    1   19 1   
     5    2    3 1   
     6    2    5 1   
     7    3    4 1   
     8    3    6 2   
     9    4    8 1   
    10    4   20 1   
    11    5    7 2   
    12    5   10 1   
    13    7    8 1   
    14    7   12 1   
    15    8    9 2   
    16   10   11 1   
    17   10   21 1   
    18   10   22 1   
    19   11   12 1   
    20   11   23 1   
    21   11   24 1   
    22   12   25 1   
    23   12   26 1   
    24   13   14 1   
    25   13   17 1   
    26   13   27 1   
    27   14   15 1   
    28   14   16 1   
    29   17   28 1   
    30   17   29 1   
    31   17   30 1   
@<TRIPOS>SUBSTRUCTURE
     1 CPW         1 TEMP              0 ****  ****    0 ROOT
