@<TRIPOS>MOLECULE
CPW
   29    28     1     0     0
SMALL
bcc


@<TRIPOS>ATOM
      1 C1          0.0150   -1.4530    0.6980 c3        1 CPW      0.096000
      2 N1         -0.4330   -0.1030    0.4240 n         1 CPW     -0.320400
      3 C2         -1.1180    0.6040    1.3910 c2        1 CPW      0.728300
      4 N2         -1.6370    1.8600    1.1000 n2        1 CPW     -0.617400
      5 C3         -0.2660    0.4260   -0.8090 c1        1 CPW      0.166900
      6 O1         -1.3430    0.0910    2.4700 o         1 CPW     -0.650300
      7 C4         -0.7910    1.6970   -1.1040 c1        1 CPW     -0.298100
      8 C5         -1.4700    2.3960   -0.1410 c1        1 CPW      0.634900
      9 O2         -1.9410    3.4900   -0.4000 o         1 CPW     -0.644900
     10 C6          0.3400   -0.1560   -2.1110 c3        1 CPW     -0.107300
     11 C7          0.2620    0.8790   -3.1500 c3        1 CPW     -0.077400
     12 C8         -0.4130    2.0440   -2.5660 c3        1 CPW     -0.025300
     13 C9          1.0710   -1.4260    1.7940 c3        1 CPW      0.000500
     14 C10         0.4710   -1.9290    3.0840 c         1 CPW      0.876600
     15 O3          0.4700   -1.1950    4.1040 o         1 CPW     -0.836800
     16 O4         -0.0590   -3.0710    3.1280 o         1 CPW     -0.836800
     17 N3          2.1620   -2.2600    1.4220 n3        1 CPW     -0.877800
     18 H11        -0.7470   -1.9970    0.9920 h1        1 CPW      0.082200
     19 H12         0.3990   -1.8400   -0.1150 h1        1 CPW      0.082200
     20 HN2        -2.0900    2.3270    1.7420 hn        1 CPW      0.493400
     21 H61         1.2730   -0.4020   -1.9600 hc        1 CPW      0.117200
     22 H62        -0.1690   -0.9440   -2.3900 hc        1 CPW      0.117200
     23 H71        -0.2700    0.5420   -3.9030 hc        1 CPW      0.041700
     24 H72         1.1660    1.1340   -3.4200 hc        1 CPW      0.041700
     25 H81         0.1890    2.8160   -2.5770 hc        1 CPW      0.042200
     26 H82        -1.2240    2.2490   -3.0780 hc        1 CPW      0.042200
     27 H9          1.3880   -0.5120    1.9180 h1        1 CPW      0.056700
     28 HN31        2.8620   -2.1250    2.0000 hn        1 CPW      0.336300
     29 HN32        1.9010   -3.1400    1.4570 hn        1 CPW      0.336300
@<TRIPOS>BOND
     1    1    2 1   
     2    1   13 1   
     3    1   18 1   
     4    1   19 1   
     5    2    3 1   
     6    2    5 3   
     7    3    4 2   
     8    3    6 1   
     9    4   20 1   
    10    5   10 1   
    11    7    8 3   
    12    7   12 1   
    13    8    9 1   
    14   10   11 1   
    15   10   21 1   
    16   10   22 1   
    17   11   12 1   
    18   11   23 1   
    19   11   24 1   
    20   12   25 1   
    21   12   26 1   
    22   13   14 1   
    23   13   17 1   
    24   13   27 1   
    25   14   15 1   
    26   14   16 1   
    27   17   28 1   
    28   17   29 1   
@<TRIPOS>SUBSTRUCTURE
     1 CPW         1 TEMP              0 ****  ****    0 ROOT
