@<TRIPOS>MOLECULE
CPW
   30    31     1     0     0
SMALL
bcc


@<TRIPOS>ATOM
      1 C1          0.1500   -0.0120   -0.1620 c3        1 CPW      0.089000
      2 N1         -0.3410    0.0530   -1.5230 n         1 CPW     -0.365000
      3 C2         -0.5160   -1.1440   -2.2670 c         1 CPW      0.811500
      4 N2         -1.1220   -1.0990   -3.5220 n         1 CPW     -0.577500
      5 C3         -0.7720    1.2420   -2.0900 cc        1 CPW      0.086400
      6 O1         -0.0980   -2.2380   -1.8040 o         1 CPW     -0.718500
      7 C4         -1.3520    1.2980   -3.3370 cd        1 CPW     -0.275400
      8 C5         -1.5760    0.0990   -4.1290 c         1 CPW      0.733700
      9 O2         -2.1050    0.0280   -5.2480 o         1 CPW     -0.593500
     10 C6         -0.6730    2.6130   -1.4700 c3        1 CPW     -0.051200
     11 C7         -1.2480    3.5540   -2.5390 c3        1 CPW     -0.082400
     12 C8         -1.7030    2.6910   -3.7270 c3        1 CPW     -0.009200
     13 C9          1.6610   -0.2060   -0.0220 c3        1 CPW     -0.104500
     14 C10         2.0920    0.2630    1.4680 c         1 CPW      0.943600
     15 O3          1.6170    1.3550    1.8180 o         1 CPW     -0.751800
     16 O4          2.8640   -0.5310    2.0560 o         1 CPW     -0.751800
     17 N3          2.1050   -1.6070   -0.2560 n4        1 CPW     -0.825600
     18 H11        -0.0860    0.9670    0.3610 h1        1 CPW      0.107700
     19 H12        -0.4010   -0.8390    0.3750 h1        1 CPW      0.107700
     20 HN2        -1.2480   -1.9690   -3.9960 hn        1 CPW      0.355500
     21 H61        -1.2680    2.6630   -0.5230 hc        1 CPW      0.082200
     22 H62         0.3890    2.8660   -1.2230 hc        1 CPW      0.082200
     23 H71        -2.1090    4.1310   -2.1220 hc        1 CPW      0.058200
     24 H72        -0.4700    4.2870   -2.8650 hc        1 CPW      0.058200
     25 H81        -1.1780    2.9860   -4.6710 hc        1 CPW      0.066700
     26 H82        -2.8040    2.7890   -3.9050 hc        1 CPW      0.066700
     27 H9          2.2280    0.4650   -0.7230 hx        1 CPW      0.095700
     28 HN31        1.3060   -2.2480   -0.1990 hn        1 CPW      0.453800
     29 HN32        2.7860   -1.8330    0.5000 hn        1 CPW      0.453800
     30 H33         2.5380   -1.7120   -1.1680 hn        1 CPW      0.453800
@<TRIPOS>BOND
     1    1    2 1   
     2    1   13 1   
     3    1   18 1   
     4    1   19 1   
     5    2    3 1   
     6    2    5 1   
     7    3    4 1   
     8    3    6 2   
     9    4    8 1   
    10    4   20 1   
    11    5    7 2   
    12    5   10 1   
    13    7    8 1   
    14    7   12 1   
    15    8    9 2   
    16   10   11 1   
    17   10   21 1   
    18   10   22 1   
    19   11   12 1   
    20   11   23 1   
    21   11   24 1   
    22   12   25 1   
    23   12   26 1   
    24   13   14 1   
    25   13   17 1   
    26   13   27 1   
    27   14   15 1   
    28   14   16 1   
    29   17   28 1   
    30   17   29 1   
    31   17   30 1   
@<TRIPOS>SUBSTRUCTURE
     1 CPW         1 TEMP              0 ****  ****    0 ROOT
