@<TRIPOS>MOLECULE
CPX
   73    76     1     0     0
SMALL
bcc


@<TRIPOS>ATOM
      1 O27         0.7180   -1.8250   -0.3960 o         1 CPX     -0.321100
      2 C17         0.8040   -7.1170   -8.7290 cx        1 CPX     -0.048400
      3 C16         1.4490   -6.2580   -9.7550 cx        1 CPX     -0.048400
      4 C12         1.6540   -5.9320   -8.2760 cx        1 CPX     -0.311700
      5 C26         1.4780   -0.9390   -0.0370 c         1 CPX      0.503100
      6 N4          1.9670   -0.9010    1.3690 n4        1 CPX     -0.663800
      7 C29         0.8710   -0.4440    2.3560 c3        1 CPX      0.136500
      8 C30         1.3480   -0.7010    3.7960 c3        1 CPX     -0.115900
      9 C32         2.0060    0.5870    4.2710 c3        1 CPX     -0.103400
     10 C31         1.6010    1.6920    3.3030 c3        1 CPX     -0.103400
     11 C28         0.6480    1.0710    2.2890 c3        1 CPX     -0.115900
     12 N3          1.9340    0.1180   -0.9790 n4        1 CPX     -0.671800
     13 C13         1.1450    0.1670   -2.2990 c3        1 CPX      0.074500
     14 C19         0.9200    1.6450   -2.7140 c3        1 CPX     -0.079700
     15 C22        -0.0660    1.6990   -3.8670 c3        1 CPX     -0.130600
     16 C18         0.3880    2.4890   -1.5700 c3        1 CPX     -0.130600
     17 C14         2.0010   -0.5790   -3.3750 c         1 CPX      0.656100
     18 O15         3.2410   -0.5870   -3.1800 o         1 CPX     -0.619100
     19 N2          1.4130   -1.1870   -4.4370 n         1 CPX     -0.423800
     20 C6          2.1730   -1.6760   -5.6000 c3        1 CPX      0.130700
     21 C8          1.1830   -2.6320   -6.3720 c3        1 CPX      0.107500
     22 C9         -0.1040   -2.7000   -5.5290 c3        1 CPX     -0.097400
     23 C7          0.0020   -1.5480   -4.5230 c3        1 CPX      0.076000
     24 N1          1.7620   -3.9720   -6.6800 n4        1 CPX     -0.690800
     25 C10         0.9520   -4.7640   -7.7370 c         1 CPX      0.601100
     26 O11        -0.1550   -4.3200   -7.9790 o         1 CPX     -0.405100
     27 C25         2.6760   -0.5910   -6.5580 cy        1 CPX     -0.253000
     28 C24         1.6230    0.3390   -7.0980 c         1 CPX      0.583900
     29 O5          0.4270    0.2360   -6.8220 o         1 CPX     -0.538100
     30 C23         3.9220    0.2080   -6.0580 cy        1 CPX     -0.075400
     31 C21         4.7520   -0.3110   -7.2460 cy        1 CPX     -0.084400
     32 C20         3.5560   -1.1550   -7.7220 cy        1 CPX     -0.075400
     33 H161        2.3310   -6.6280  -10.3150 hc        1 CPX      0.119700
     34 H162        0.8190   -5.5810  -10.3650 hc        1 CPX      0.119700
     35 H12         2.6470   -6.1520   -7.8350 hc        1 CPX      0.121700
     36 HN4         2.2330   -1.8710    1.6330 hn        1 CPX      0.496300
     37 H29        -0.0460   -1.0440    2.0910 hx        1 CPX      0.131700
     38 H301        0.4260   -0.9230    4.4060 hc        1 CPX      0.097700
     39 H302        2.0220   -1.5880    3.9060 hc        1 CPX      0.097700
     40 H321        1.6700    0.8270    5.3150 hc        1 CPX      0.092700
     41 H322        3.1200    0.4790    4.3130 hc        1 CPX      0.092700
     42 H311        2.5000    2.1260    2.7960 hc        1 CPX      0.092700
     43 H312        1.0980    2.5350    3.8470 hc        1 CPX      0.092700
     44 H281        0.7700    1.5030    1.2660 hc        1 CPX      0.097700
     45 H282       -0.4190    1.2620    2.6010 hc        1 CPX      0.097700
     46 HN3         1.8700    1.0490   -0.5290 hn        1 CPX      0.509300
     47 H13         0.1500   -0.3390   -2.1300 hx        1 CPX      0.137700
     48 H19         1.9060    2.0700   -3.0620 hc        1 CPX      0.101700
     49 H221       -0.3090    2.7710   -4.0900 hc        1 CPX      0.074867
     50 H222        0.3660    1.2610   -4.7990 hc        1 CPX      0.074867
     51 H223       -1.0190    1.1770   -3.6110 hc        1 CPX      0.074867
     52 H181        1.1960    2.8300   -0.8760 hc        1 CPX      0.074867
     53 H182       -0.0740    3.4260   -1.9850 hc        1 CPX      0.074867
     54 H183       -0.4090    1.9550   -0.9990 hc        1 CPX      0.074867
     55 H6          3.0780   -2.2290   -5.2070 h1        1 CPX      0.088700
     56 H8          0.9340   -2.1540   -7.3720 hx        1 CPX      0.148700
     57 H91        -1.0010   -2.5630   -6.1910 hc        1 CPX      0.104700
     58 H92        -0.2210   -3.6770   -4.9950 hc        1 CPX      0.104700
     59 H71        -0.5980   -0.6650   -4.8930 h1        1 CPX      0.087700
     60 H72        -0.3830   -1.8680   -3.5170 h1        1 CPX      0.087700
     61 HN1         2.7170   -3.8540   -7.0390 hn        1 CPX      0.455800
     62 H24         2.0120    1.1320   -7.7770 h4        1 CPX      0.059200
     63 H231        4.3010   -0.1260   -5.0680 hc        1 CPX      0.067700
     64 H232        3.7720    1.3090   -6.0540 hc        1 CPX      0.067700
     65 H211        5.6450   -0.9060   -6.9550 hc        1 CPX      0.089200
     66 H212        5.0600    0.4800   -7.9650 hc        1 CPX      0.089200
     67 H201        3.1810   -0.8900   -8.7360 hc        1 CPX      0.067700
     68 H202        3.7390   -2.2470   -7.6650 hc        1 CPX      0.067700
     69 H171       -0.2950   -7.0640   -8.5940 hc        1 CPX      0.119700
     70 H42         2.7870   -0.2920    1.4980 hn        1 CPX      0.496300
     71 H32         2.9400   -0.0570   -1.2400 hn        1 CPX      0.509300
     72 H121        1.8070   -4.5430   -5.8310 hn        1 CPX      0.455800
     73 H172        1.2030   -8.1310   -8.5230 hc        1 CPX      0.119700
@<TRIPOS>BOND
     1    1    5 2   
     2    2    3 1   
     3    2    4 1   
     4    2   69 1   
     5    2   73 1   
     6    3    4 1   
     7    3   33 1   
     8    3   34 1   
     9    4   25 1   
    10    4   35 1   
    11    5    6 1   
    12    5   12 1   
    13    6    7 1   
    14    6   36 1   
    15    6   70 1   
    16    7    8 1   
    17    7   11 1   
    18    7   37 1   
    19    8    9 1   
    20    8   38 1   
    21    8   39 1   
    22    9   10 1   
    23    9   40 1   
    24    9   41 1   
    25   10   11 1   
    26   10   42 1   
    27   10   43 1   
    28   11   44 1   
    29   11   45 1   
    30   12   13 1   
    31   12   46 1   
    32   12   71 1   
    33   13   14 1   
    34   13   17 1   
    35   13   47 1   
    36   14   15 1   
    37   14   16 1   
    38   14   48 1   
    39   15   49 1   
    40   15   50 1   
    41   15   51 1   
    42   16   52 1   
    43   16   53 1   
    44   16   54 1   
    45   17   18 2   
    46   17   19 1   
    47   19   20 1   
    48   19   23 1   
    49   20   21 1   
    50   20   27 1   
    51   20   55 1   
    52   21   22 1   
    53   21   24 1   
    54   21   56 1   
    55   22   23 1   
    56   22   57 1   
    57   22   58 1   
    58   23   59 1   
    59   23   60 1   
    60   24   25 1   
    61   24   61 1   
    62   24   72 1   
    63   25   26 2   
    64   27   28 1   
    65   27   30 1   
    66   27   32 1   
    67   28   29 2   
    68   28   62 1   
    69   30   31 1   
    70   30   63 1   
    71   30   64 1   
    72   31   32 1   
    73   31   65 1   
    74   31   66 1   
    75   32   67 1   
    76   32   68 1   
@<TRIPOS>SUBSTRUCTURE
     1 CPX         1 TEMP              0 ****  ****    0 ROOT
