@<TRIPOS>MOLECULE
CPX
   73    76     1     0     0
SMALL
bcc


@<TRIPOS>ATOM
      1 O27         0.7000   -1.8170   -0.3990 o         1 CPX     -0.321100
      2 C17         0.7790   -7.1200   -8.7260 cx        1 CPX     -0.048400
      3 C16         1.4350   -6.2670   -9.7500 cx        1 CPX     -0.048400
      4 C12         1.6360   -5.9400   -8.2700 cx        1 CPX     -0.311700
      5 C26         1.4660   -0.9360   -0.0380 c         1 CPX      0.503100
      6 N4          1.9500   -0.9010    1.3690 ny        1 CPX     -0.663800
      7 C29         0.8540   -0.4330    2.3520 c3        1 CPX      0.136500
      8 C30         1.3240   -0.6930    3.7940 c3        1 CPX     -0.115900
      9 C32         1.9910    0.5900    4.2700 c3        1 CPX     -0.103400
     10 C31         1.5990    1.6970    3.3000 c3        1 CPX     -0.103400
     11 C28         0.6430    1.0830    2.2830 c3        1 CPX     -0.115900
     12 N3          1.9330    0.1170   -0.9790 ny        1 CPX     -0.671800
     13 C13         1.1490    0.1700   -2.3030 c3        1 CPX      0.074500
     14 C19         0.9370    1.6480   -2.7200 c3        1 CPX     -0.079700
     15 C22        -0.0440    1.7080   -3.8770 c3        1 CPX     -0.130600
     16 C18         0.4070    2.4970   -1.5790 c3        1 CPX     -0.130600
     17 C14         2.0040   -0.5840   -3.3740 c         1 CPX      0.656100
     18 O15         3.2440   -0.6010   -3.1740 o         1 CPX     -0.619100
     19 N2          1.4150   -1.1890   -4.4390 n         1 CPX     -0.423800
     20 C6          2.1760   -1.6850   -5.5980 c3        1 CPX      0.130700
     21 C8          1.1820   -2.6350   -6.3730 c3        1 CPX      0.107500
     22 C9         -0.1090   -2.6920   -5.5340 c3        1 CPX     -0.097400
     23 C7          0.0030   -1.5400   -4.5290 c3        1 CPX      0.076000
     24 N1          1.7530   -3.9790   -6.6770 ny        1 CPX     -0.690800
     25 C10         0.9410   -4.7660   -7.7360 c         1 CPX      0.601100
     26 O11        -0.1610   -4.3130   -7.9840 o         1 CPX     -0.405100
     27 C25         2.6910   -0.6040   -6.5550 cy        1 CPX     -0.253000
     28 C24         1.6460    0.3330   -7.1000 c         1 CPX      0.583900
     29 O5          0.4490    0.2380   -6.8280 o         1 CPX     -0.538100
     30 C23         3.9410    0.1860   -6.0510 cy        1 CPX     -0.075400
     31 C21         4.7720   -0.3410   -7.2350 cy        1 CPX     -0.084400
     32 C20         3.5710   -1.1760   -7.7150 cy        1 CPX     -0.075400
     33 H161        0.8140   -5.5860  -10.3640 hc        1 CPX      0.119700
     34 H162        2.3180   -6.6450  -10.3050 hc        1 CPX      0.119700
     35 H12         2.6250   -6.1680   -7.8240 hc        1 CPX      0.121700
     36 HN4         2.2070   -1.8720    1.6360 hn        1 CPX      0.496300
     37 H29        -0.0660   -1.0270    2.0850 hx        1 CPX      0.131700
     38 H301        0.3980   -0.9070    4.4010 hc        1 CPX      0.097700
     39 H302        1.9900   -1.5850    3.9080 hc        1 CPX      0.097700
     40 H321        3.1040    0.4740    4.3160 hc        1 CPX      0.092700
     41 H322        1.6530    0.8340    5.3130 hc        1 CPX      0.092700
     42 H311        1.1000    2.5450    3.8410 hc        1 CPX      0.092700
     43 H312        2.5020    2.1230    2.7950 hc        1 CPX      0.092700
     44 H281        0.7730    1.5130    1.2600 hc        1 CPX      0.097700
     45 H282       -0.4230    1.2830    2.5910 hc        1 CPX      0.097700
     46 HN3         2.9380   -0.0670   -1.2370 hn        1 CPX      0.509300
     47 H13         0.1500   -0.3290   -2.1360 hx        1 CPX      0.137700
     48 H19         1.9270    2.0650   -3.0660 hc        1 CPX      0.101700
     49 H221       -0.2790    2.7820   -4.1020 hc        1 CPX      0.074867
     50 H222       -1.0020    1.1930   -3.6230 hc        1 CPX      0.074867
     51 H223        0.3870    1.2660   -4.8070 hc        1 CPX      0.074867
     52 H181       -0.0460    3.4380   -1.9970 hc        1 CPX      0.074867
     53 H182       -0.3960    1.9700   -1.0110 hc        1 CPX      0.074867
     54 H183        1.2150    2.8340   -0.8830 hc        1 CPX      0.074867
     55 H6          3.0760   -2.2440   -5.2000 h1        1 CPX      0.088700
     56 H8          0.9410   -2.1560   -7.3730 hx        1 CPX      0.148700
     57 H91        -1.0020   -2.5490   -6.2000 hc        1 CPX      0.104700
     58 H92        -0.2350   -3.6670   -4.9990 hc        1 CPX      0.104700
     59 H71        -0.5900   -0.6530   -4.9030 h1        1 CPX      0.087700
     60 H72        -0.3890   -1.8550   -3.5240 h1        1 CPX      0.087700
     61 HN1         1.7890   -4.5490   -5.8270 hn        1 CPX      0.455800
     62 H24         2.0440    1.1220   -7.7790 h4        1 CPX      0.059200
     63 H231        4.3130   -0.1500   -5.0600 hc        1 CPX      0.067700
     64 H232        3.7990    1.2880   -6.0490 hc        1 CPX      0.067700
     65 H211        5.0880    0.4470   -7.9550 hc        1 CPX      0.089200
     66 H212        5.6590   -0.9420   -6.9400 hc        1 CPX      0.089200
     67 H201        3.7460   -2.2700   -7.6560 hc        1 CPX      0.067700
     68 H202        3.2010   -0.9090   -8.7300 hc        1 CPX      0.067700
     69 H171       -0.3200   -7.0570   -8.5960 hc        1 CPX      0.119700
     70 H42         2.7740   -0.2980    1.5000 hn        1 CPX      0.496300
     71 H32         1.8740    1.0480   -0.5310 hn        1 CPX      0.509300
     72 H121        2.7100   -3.8690   -7.0320 hn        1 CPX      0.455800
     73 H172        1.1690   -8.1360   -8.5160 hc        1 CPX      0.119700
@<TRIPOS>BOND
     1    1    5 2   
     2    2    3 1   
     3    2    4 1   
     4    2   69 1   
     5    2   73 1   
     6    3    4 1   
     7    3   33 1   
     8    3   34 1   
     9    4   25 1   
    10    4   35 1   
    11    5    6 1   
    12    5   12 1   
    13    6    7 1   
    14    6   36 1   
    15    6   70 1   
    16    7    8 1   
    17    7   11 1   
    18    7   37 1   
    19    8    9 1   
    20    8   38 1   
    21    8   39 1   
    22    9   10 1   
    23    9   40 1   
    24    9   41 1   
    25   10   11 1   
    26   10   42 1   
    27   10   43 1   
    28   11   44 1   
    29   11   45 1   
    30   12   13 1   
    31   12   46 1   
    32   12   71 1   
    33   13   14 1   
    34   13   17 1   
    35   13   47 1   
    36   14   15 1   
    37   14   16 1   
    38   14   48 1   
    39   15   49 1   
    40   15   50 1   
    41   15   51 1   
    42   16   52 1   
    43   16   53 1   
    44   16   54 1   
    45   17   18 2   
    46   17   19 1   
    47   19   20 1   
    48   19   23 1   
    49   20   21 1   
    50   20   27 1   
    51   20   55 1   
    52   21   22 1   
    53   21   24 1   
    54   21   56 1   
    55   22   23 1   
    56   22   57 1   
    57   22   58 1   
    58   23   59 1   
    59   23   60 1   
    60   24   25 1   
    61   24   61 1   
    62   24   72 1   
    63   25   26 2   
    64   27   28 1   
    65   27   30 1   
    66   27   32 1   
    67   28   29 2   
    68   28   62 1   
    69   30   31 1   
    70   30   63 1   
    71   30   64 1   
    72   31   32 1   
    73   31   65 1   
    74   31   66 1   
    75   32   67 1   
    76   32   68 1   
@<TRIPOS>SUBSTRUCTURE
     1 CPX         1 TEMP              0 ****  ****    0 ROOT
