@<TRIPOS>MOLECULE
CPX
   70    73     1     0     0
SMALL
bcc


@<TRIPOS>ATOM
      1 O27        -2.6310    0.7790    0.9710 o         1 CPX     -0.654100
      2 C17         4.4520    4.3350   -1.5870 cx        1 CPX     -0.100900
      3 C16         4.1680    3.3980   -2.7170 cx        1 CPX     -0.100900
      4 C12         3.3260    3.3360   -1.4640 cx        1 CPX     -0.226700
      5 C26        -3.0770    0.1290   -0.0090 c         1 CPX      0.744100
      6 N4         -3.8400    0.7560   -1.0080 n         1 CPX     -0.533900
      7 C29        -4.4460    2.0400   -0.7300 c3        1 CPX      0.087700
      8 C30        -4.5530    2.9280   -1.9900 c3        1 CPX     -0.094900
      9 C32        -5.7540    3.8340   -1.7690 c3        1 CPX     -0.079900
     10 C31        -6.5810    3.2430   -0.6340 c3        1 CPX     -0.079900
     11 C28        -5.8810    1.9800   -0.1600 c3        1 CPX     -0.094900
     12 N3         -2.8210   -1.2570   -0.1280 n         1 CPX     -0.527900
     13 C13        -1.7920   -1.8350    0.7120 c3        1 CPX      0.036700
     14 C19        -1.9780   -3.3590    0.9080 c3        1 CPX     -0.064700
     15 C22        -0.9710   -3.8630    1.9230 c3        1 CPX     -0.093600
     16 C18        -3.3830   -3.6870    1.3670 c3        1 CPX     -0.093600
     17 C14        -0.3920   -1.6260    0.0720 c         1 CPX      0.637100
     18 O15        -0.1920   -2.0170   -1.0980 o         1 CPX     -0.623100
     19 N2          0.6160   -1.0490    0.8170 n         1 CPX     -0.460800
     20 C6          1.9400   -0.7990    0.2570 c3        1 CPX      0.099700
     21 C8          2.4720    0.5140    0.9530 c3        1 CPX      0.090700
     22 C9          1.5880    0.6630    2.2150 c3        1 CPX     -0.106400
     23 C7          0.3680   -0.2410    1.9980 c3        1 CPX      0.068000
     24 N1          2.4160    1.6640    0.0920 n         1 CPX     -0.564900
     25 C10         3.5320    2.1700   -0.5490 c         1 CPX      0.692100
     26 O11         4.6630    1.6780   -0.3500 o         1 CPX     -0.620100
     27 C25         2.9230   -1.9570    0.4700 cy        1 CPX     -0.203000
     28 C24         2.9800   -2.3810    1.9050 c         1 CPX      0.590900
     29 O5          2.4760   -3.4140    2.3440 o         1 CPX     -0.526100
     30 C23         2.7420   -3.1260   -0.5410 cy        1 CPX     -0.081900
     31 C21         4.1390   -2.8450   -1.1270 cy        1 CPX     -0.094400
     32 C20         4.3330   -1.6850   -0.1320 cy        1 CPX     -0.081900
     33 H172        5.3620    4.1720   -0.9790 hc        1 CPX      0.083950
     34 H161        4.8780    2.5720   -2.9110 hc        1 CPX      0.083950
     35 H162        3.7020    3.7800   -3.6420 hc        1 CPX      0.083950
     36 H12         2.2870    3.7160   -1.5170 hc        1 CPX      0.089700
     37 HN4        -4.3570    0.1760   -1.6310 hn        1 CPX      0.296500
     38 H29        -3.7890    2.5680    0.0250 h1        1 CPX      0.092700
     39 H301       -3.6140    3.5180   -2.1250 hc        1 CPX      0.048950
     40 H302       -4.6990    2.3110   -2.9120 hc        1 CPX      0.048950
     41 H321       -5.4180    4.8680   -1.5050 hc        1 CPX      0.044200
     42 H322       -6.3620    3.9120   -2.7040 hc        1 CPX      0.044200
     43 H311       -6.6680    3.9790    0.2060 hc        1 CPX      0.044200
     44 H312       -7.6200    3.0100   -0.9780 hc        1 CPX      0.044200
     45 H281       -6.4260    1.0750   -0.5300 hc        1 CPX      0.048950
     46 H282       -5.8510    1.9230    0.9560 hc        1 CPX      0.048950
     47 HN3        -2.8640   -1.6560   -1.0420 hn        1 CPX      0.306500
     48 H13        -1.8590   -1.3380    1.7250 h1        1 CPX      0.101700
     49 H19        -1.7840   -3.8670   -0.0790 hc        1 CPX      0.067700
     50 H221       -1.1100   -4.9600    2.0780 hc        1 CPX      0.042533
     51 H222        0.0780   -3.6910    1.5760 hc        1 CPX      0.042533
     52 H223       -1.1090   -3.3490    2.9040 hc        1 CPX      0.042533
     53 H181       -3.6630   -3.0640    2.2500 hc        1 CPX      0.042533
     54 H182       -4.1250   -3.5040    0.5540 hc        1 CPX      0.042533
     55 H183       -3.4440   -4.7640    1.6580 hc        1 CPX      0.042533
     56 H6          1.8440   -0.6580   -0.8610 h1        1 CPX      0.090700
     57 H8          3.5500    0.3590    1.2530 h1        1 CPX      0.101700
     58 H91         1.2660    1.7160    2.3970 hc        1 CPX      0.063700
     59 H92         2.1710    0.3230    3.1060 hc        1 CPX      0.063700
     60 H71        -0.5640    0.3810    1.8650 h1        1 CPX      0.068200
     61 H72         0.2160   -0.9200    2.8840 h1        1 CPX      0.068200
     62 HN1         1.5170    2.0080   -0.1480 hn        1 CPX      0.315500
     63 H24         3.5280   -1.6740    2.5720 h4        1 CPX     -0.010800
     64 H231        2.6410   -4.1160   -0.0450 hc        1 CPX      0.071200
     65 H232        1.9020   -2.9730   -1.2530 hc        1 CPX      0.071200
     66 H211        4.8620   -3.6780   -0.9980 hc        1 CPX      0.051700
     67 H212        4.1260   -2.5270   -2.1910 hc        1 CPX      0.051700
     68 H201        4.4360   -0.6820   -0.6030 hc        1 CPX      0.071200
     69 H202        5.1600   -1.8390    0.5930 hc        1 CPX      0.071200
     70 H171        4.1950    5.4040   -1.6850 hc        1 CPX      0.083950
@<TRIPOS>BOND
     1    1    5 2   
     2    2    3 1   
     3    2    4 1   
     4    2   33 1   
     5    2   70 1   
     6    3    4 1   
     7    3   34 1   
     8    3   35 1   
     9    4   25 1   
    10    4   36 1   
    11    5    6 1   
    12    5   12 1   
    13    6    7 1   
    14    6   37 1   
    15    7    8 1   
    16    7   11 1   
    17    7   38 1   
    18    8    9 1   
    19    8   39 1   
    20    8   40 1   
    21    9   10 1   
    22    9   41 1   
    23    9   42 1   
    24   10   11 1   
    25   10   43 1   
    26   10   44 1   
    27   11   45 1   
    28   11   46 1   
    29   12   13 1   
    30   12   47 1   
    31   13   14 1   
    32   13   17 1   
    33   13   48 1   
    34   14   15 1   
    35   14   16 1   
    36   14   49 1   
    37   15   50 1   
    38   15   51 1   
    39   15   52 1   
    40   16   53 1   
    41   16   54 1   
    42   16   55 1   
    43   17   18 2   
    44   17   19 1   
    45   19   20 1   
    46   19   23 1   
    47   20   21 1   
    48   20   27 1   
    49   20   56 1   
    50   21   22 1   
    51   21   24 1   
    52   21   57 1   
    53   22   23 1   
    54   22   58 1   
    55   22   59 1   
    56   23   60 1   
    57   23   61 1   
    58   24   25 1   
    59   24   62 1   
    60   25   26 2   
    61   27   28 1   
    62   27   30 1   
    63   27   32 1   
    64   28   29 2   
    65   28   63 1   
    66   30   31 1   
    67   30   64 1   
    68   30   65 1   
    69   31   32 1   
    70   31   66 1   
    71   31   67 1   
    72   32   68 1   
    73   32   69 1   
@<TRIPOS>SUBSTRUCTURE
     1 CPX         1 TEMP              0 ****  ****    0 ROOT
