@<TRIPOS>MOLECULE
CPY
   43    44     1     0     0
SMALL
bcc


@<TRIPOS>ATOM
      1 N           0.8400    1.9690   -0.9770 n3        1 CPY     -0.909800
      2 CA          0.2860    0.6480   -0.7520 c3        1 CPY      0.132500
      3 CB          0.6580   -0.4190   -1.7930 c3        1 CPY     -0.114400
      4 CG          0.3710   -0.0150   -3.2290 c3        1 CPY     -0.064700
      5 CD1         0.8630   -1.1110   -4.1680 c3        1 CPY     -0.074900
      6 CD2        -1.1110    0.2460   -3.4570 c3        1 CPY     -0.074900
      7 CE1         0.5800   -0.7660   -5.6150 c3        1 CPY     -0.076400
      8 CE2        -1.3970    0.5850   -4.9060 c3        1 CPY     -0.076400
      9 CZ         -0.8930   -0.4960   -5.8390 c3        1 CPY     -0.077400
     10 CH          0.6800    0.0940    0.6440 c3        1 CPY      0.129100
     11 OH          2.0820   -0.0370    0.7940 oh        1 CPY     -0.603800
     12 CM          0.0820    0.9870    1.7480 c3        1 CPY      0.047000
     13 N1         -0.0430    0.3410    3.0390 n         1 CPY     -0.343000
     14 C2         -1.3170    0.2090    3.6510 c         1 CPY      0.683700
     15 O2         -2.3300    0.6300    3.0570 o         1 CPY     -0.651500
     16 C3         -1.3510   -0.4230    4.9710 cc        1 CPY     -0.262200
     17 C4         -0.2190   -0.8740    5.5700 cd        1 CPY     -0.036000
     18 C5          1.0370   -0.7370    4.9080 cd        1 CPY     -0.260000
     19 C6          1.0830   -0.1420    3.6720 cc        1 CPY      0.018600
     20 HN1         1.8140    1.9060   -1.2030 hn        1 CPY      0.351800
     21 HN2         0.3630    2.4140   -1.7380 hn        1 CPY      0.351800
     22 HA         -0.8420    0.7530   -0.7490 h1        1 CPY      0.071700
     23 HB1         1.7510   -0.6580   -1.6880 hc        1 CPY      0.055200
     24 HB2         0.0870   -1.3540   -1.5550 hc        1 CPY      0.055200
     25 HG          0.9390    0.9260   -3.4750 hc        1 CPY      0.039700
     26 HD11        1.9650   -1.2580   -4.0250 hc        1 CPY      0.041700
     27 HD12        0.3560   -2.0770   -3.9070 hc        1 CPY      0.041700
     28 HD21       -1.6980   -0.6610   -3.1590 hc        1 CPY      0.041700
     29 HD22       -1.4480    1.0960   -2.8070 hc        1 CPY      0.041700
     30 HE11        1.1750    0.1390   -5.9080 hc        1 CPY      0.040200
     31 HE12        0.9110   -1.6130   -6.2720 hc        1 CPY      0.040200
     32 HE21       -0.9050    1.5600   -5.1660 hc        1 CPY      0.040200
     33 HE22       -2.5010    0.7180   -5.0450 hc        1 CPY      0.040200
     34 HCZ1       -1.0620   -0.1840   -6.9020 hc        1 CPY      0.041200
     35 HCZ2       -1.4760   -1.4390   -5.6680 hc        1 CPY      0.041200
     36 HH          0.3000   -0.9650    0.7240 h1        1 CPY      0.089700
     37 HO          2.4690    0.8470    0.7670 ho        1 CPY      0.404000
     38 HM1         0.7330    1.9010    1.8660 h1        1 CPY      0.085700
     39 HM2        -0.9450    1.3270    1.4260 h1        1 CPY      0.085700
     40 HC3        -2.3480   -0.5030    5.4260 ha        1 CPY      0.161000
     41 HC4        -0.2470   -1.3490    6.5620 ha        1 CPY      0.138000
     42 HC5         1.9540   -1.1070    5.3820 ha        1 CPY      0.150000
     43 HC6         2.0320   -0.0320    3.1100 h4        1 CPY      0.167000
@<TRIPOS>BOND
     1    1    2 1   
     2    1   20 1   
     3    1   21 1   
     4    2    3 1   
     5    2   10 1   
     6    2   22 1   
     7    3    4 1   
     8    3   23 1   
     9    3   24 1   
    10    4    5 1   
    11    4    6 1   
    12    4   25 1   
    13    5    7 1   
    14    5   26 1   
    15    5   27 1   
    16    6    8 1   
    17    6   28 1   
    18    6   29 1   
    19    7    9 1   
    20    7   30 1   
    21    7   31 1   
    22    8    9 1   
    23    8   32 1   
    24    8   33 1   
    25    9   34 1   
    26    9   35 1   
    27   10   11 1   
    28   10   12 1   
    29   10   36 1   
    30   11   37 1   
    31   12   13 1   
    32   12   38 1   
    33   12   39 1   
    34   13   14 1   
    35   13   19 1   
    36   14   15 2   
    37   14   16 1   
    38   16   17 2   
    39   16   40 1   
    40   17   18 1   
    41   17   41 1   
    42   18   19 2   
    43   18   42 1   
    44   19   43 1   
@<TRIPOS>SUBSTRUCTURE
     1 CPY         1 TEMP              0 ****  ****    0 ROOT
