@<TRIPOS>MOLECULE
CPY
   44    45     1     0     0
SMALL
bcc


@<TRIPOS>ATOM
      1 N          -0.2270    0.2210   -0.3440 n4        1 CPY     -0.836600
      2 CA          0.8920   -0.6460    0.1490 c3        1 CPY      0.132500
      3 CB          1.2060   -0.3900    1.6250 c3        1 CPY     -0.111400
      4 CG          1.4800    1.0610    1.9840 c3        1 CPY     -0.077700
      5 CD1         1.8530    1.1380    3.4630 c3        1 CPY     -0.076900
      6 CD2         2.5860    1.6700    1.1340 c3        1 CPY     -0.076900
      7 CE1         2.1370    2.5650    3.8800 c3        1 CPY     -0.078900
      8 CE2         2.8770    3.0970    1.5530 c3        1 CPY     -0.078900
      9 CZ          3.2230    3.1830    3.0250 c3        1 CPY     -0.081400
     10 CH          0.5650   -2.1470   -0.0490 c3        1 CPY      0.107100
     11 OH         -0.6930   -2.3640    0.5740 oh        1 CPY     -0.616800
     12 CM          0.4420   -2.5870   -1.5260 c3        1 CPY      0.044000
     13 N1          1.6220   -2.3970   -2.3330 n         1 CPY     -0.349000
     14 C2          1.8120   -1.1850   -3.0340 c         1 CPY      0.700700
     15 O2          1.0240   -0.2320   -2.8020 o         1 CPY     -0.740500
     16 C3          2.9300   -1.1080   -3.9650 cc        1 CPY     -0.244200
     17 C4          3.7700   -2.1640   -4.1370 cd        1 CPY     -0.018000
     18 C5          3.5570   -3.3690   -3.4000 cd        1 CPY     -0.203000
     19 C6          2.4950   -3.4590   -2.5390 cc        1 CPY     -0.009400
     20 HN1        -0.3470    0.0690   -1.3600 hn        1 CPY      0.469467
     21 HN2         0.0080    1.2030   -0.1760 hn        1 CPY      0.469467
     22 HA          1.7960   -0.3890   -0.4840 hx        1 CPY      0.125700
     23 HB1         0.3610   -0.7780    2.2560 hc        1 CPY      0.084700
     24 HB2         2.1170   -1.0020    1.8710 hc        1 CPY      0.084700
     25 HG          0.5410    1.6710    1.8470 hc        1 CPY      0.033700
     26 HD11        2.7600    0.5050    3.6500 hc        1 CPY      0.043700
     27 HD12        1.0150    0.7230    4.0810 hc        1 CPY      0.043700
     28 HD21        3.5160    1.0510    1.2370 hc        1 CPY      0.043700
     29 HD22        2.2920    1.6610    0.0510 hc        1 CPY      0.043700
     30 HE11        2.4530    2.5790    4.9570 hc        1 CPY      0.051700
     31 HE12        1.2000    3.1760    3.7980 hc        1 CPY      0.051700
     32 HE21        3.7300    3.4940    0.9430 hc        1 CPY      0.051700
     33 HE22        1.9840    3.7410    1.3410 hc        1 CPY      0.051700
     34 HCZ1        3.3630    4.2580    3.3140 hc        1 CPY      0.055700
     35 HCZ2        4.1950    2.6550    3.2130 hc        1 CPY      0.055700
     36 HH          1.3760   -2.7360    0.4640 h1        1 CPY      0.085700
     37 HO         -0.7890   -3.3130    0.7290 ho        1 CPY      0.445000
     38 HM1         0.1660   -3.6820   -1.5210 h1        1 CPY      0.082700
     39 HM2        -0.4160   -2.0310   -2.0060 h1        1 CPY      0.082700
     40 HC3         3.0310   -0.1580   -4.5110 ha        1 CPY      0.182000
     41 HC4         4.6170   -2.1140   -4.8410 ha        1 CPY      0.167000
     42 HC5         4.2380   -4.2220   -3.5330 ha        1 CPY      0.174000
     43 HC6         2.2820   -4.3820   -1.9690 h4        1 CPY      0.164000
     44 HN3        -1.0900   -0.0220    0.1490 hn        1 CPY      0.469467
@<TRIPOS>BOND
     1    1    2 1   
     2    1   20 1   
     3    1   21 1   
     4    1   44 1   
     5    2    3 1   
     6    2   10 1   
     7    2   22 1   
     8    3    4 1   
     9    3   23 1   
    10    3   24 1   
    11    4    5 1   
    12    4    6 1   
    13    4   25 1   
    14    5    7 1   
    15    5   26 1   
    16    5   27 1   
    17    6    8 1   
    18    6   28 1   
    19    6   29 1   
    20    7    9 1   
    21    7   30 1   
    22    7   31 1   
    23    8    9 1   
    24    8   32 1   
    25    8   33 1   
    26    9   34 1   
    27    9   35 1   
    28   10   11 1   
    29   10   12 1   
    30   10   36 1   
    31   11   37 1   
    32   12   13 1   
    33   12   38 1   
    34   12   39 1   
    35   13   14 1   
    36   13   19 1   
    37   14   15 2   
    38   14   16 1   
    39   16   17 2   
    40   16   40 1   
    41   17   18 1   
    42   17   41 1   
    43   18   19 2   
    44   18   42 1   
    45   19   43 1   
@<TRIPOS>SUBSTRUCTURE
     1 CPY         1 TEMP              0 ****  ****    0 ROOT
