@<TRIPOS>MOLECULE
CPY
   44    45     1     0     0
SMALL
bcc


@<TRIPOS>ATOM
      1 N          -0.2230    0.2280   -0.3580 nz        1 CPY     -0.836600
      2 CA          0.8880   -0.6390    0.1520 c3        1 CPY      0.132500
      3 CB          1.1960   -0.3680    1.6260 c3        1 CPY     -0.111400
      4 CG          1.4750    1.0870    1.9700 c3        1 CPY     -0.077700
      5 CD1         1.8420    1.1780    3.4500 c3        1 CPY     -0.076900
      6 CD2         2.5880    1.6800    1.1180 c3        1 CPY     -0.076900
      7 CE1         2.1310    2.6090    3.8520 c3        1 CPY     -0.078900
      8 CE2         2.8860    3.1100    1.5230 c3        1 CPY     -0.078900
      9 CZ          3.2250    3.2110    2.9950 c3        1 CPY     -0.081400
     10 CH          0.5540   -2.1400   -0.0310 c3        1 CPY      0.107100
     11 OH         -0.7080   -2.3440    0.5880 oh        1 CPY     -0.616800
     12 CM          0.4360   -2.5960   -1.5040 c3        1 CPY      0.044000
     13 N1          1.6220   -2.4220   -2.3070 n         1 CPY     -0.349000
     14 C2          1.8210   -1.2190   -3.0210 c         1 CPY      0.700700
     15 O2          1.0380   -0.2590   -2.8030 o         1 CPY     -0.740500
     16 C3          2.9450   -1.1590   -3.9460 cc        1 CPY     -0.244200
     17 C4          3.7800   -2.2210   -4.1010 cd        1 CPY     -0.018000
     18 C5          3.5570   -3.4170   -3.3520 cd        1 CPY     -0.203000
     19 C6          2.4900   -3.4910   -2.4960 cc        1 CPY     -0.009400
     20 HN1         0.0150    1.2110   -0.1990 hn        1 CPY      0.469467
     21 HN2        -0.3390    0.0660   -1.3730 hn        1 CPY      0.469467
     22 HA          1.7970   -0.3940   -0.4800 hx        1 CPY      0.125700
     23 HB1         0.3460   -0.7440    2.2570 hc        1 CPY      0.084700
     24 HB2         2.1030   -0.9820    1.8840 hc        1 CPY      0.084700
     25 HG          0.5410    1.6990    1.8210 hc        1 CPY      0.033700
     26 HD11        0.9990    0.7740    4.0680 hc        1 CPY      0.043700
     27 HD12        2.7450    0.5420    3.6480 hc        1 CPY      0.043700
     28 HD21        2.3000    1.6600    0.0350 hc        1 CPY      0.043700
     29 HD22        3.5150    1.0580    1.2330 hc        1 CPY      0.043700
     30 HE11        2.4410    2.6330    4.9300 hc        1 CPY      0.051700
     31 HE12        1.1970    3.2230    3.7580 hc        1 CPY      0.051700
     32 HE21        3.7440    3.4950    0.9120 hc        1 CPY      0.051700
     33 HE22        1.9960    3.7560    1.2990 hc        1 CPY      0.051700
     34 HCZ1        3.3680    4.2880    3.2720 hc        1 CPY      0.055700
     35 HCZ2        4.1930    2.6810    3.1950 hc        1 CPY      0.055700
     36 HH          1.3590   -2.7280    0.4930 h1        1 CPY      0.085700
     37 HO         -0.8100   -3.2900    0.7530 ho        1 CPY      0.445000
     38 HM1         0.1550   -3.6900   -1.4870 h1        1 CPY      0.082700
     39 HM2        -0.4160   -2.0410   -1.9940 h1        1 CPY      0.082700
     40 HC3         3.0540   -0.2160   -4.5020 ha        1 CPY      0.182000
     41 HC4         4.6310   -2.1830   -4.8020 ha        1 CPY      0.167000
     42 HC5         4.2340   -4.2750   -3.4720 ha        1 CPY      0.174000
     43 HC6         2.2690   -4.4060   -1.9170 h4        1 CPY      0.164000
     44 HN3        -1.0910   -0.0040    0.1340 hn        1 CPY      0.469467
@<TRIPOS>BOND
     1    1    2 1   
     2    1   20 1   
     3    1   21 1   
     4    1   44 1   
     5    2    3 1   
     6    2   10 1   
     7    2   22 1   
     8    3    4 1   
     9    3   23 1   
    10    3   24 1   
    11    4    5 1   
    12    4    6 1   
    13    4   25 1   
    14    5    7 1   
    15    5   26 1   
    16    5   27 1   
    17    6    8 1   
    18    6   28 1   
    19    6   29 1   
    20    7    9 1   
    21    7   30 1   
    22    7   31 1   
    23    8    9 1   
    24    8   32 1   
    25    8   33 1   
    26    9   34 1   
    27    9   35 1   
    28   10   11 1   
    29   10   12 1   
    30   10   36 1   
    31   11   37 1   
    32   12   13 1   
    33   12   38 1   
    34   12   39 1   
    35   13   14 1   
    36   13   19 1   
    37   14   15 2   
    38   14   16 1   
    39   16   17 2   
    40   16   40 1   
    41   17   18 1   
    42   17   41 1   
    43   18   19 2   
    44   18   42 1   
    45   19   43 1   
@<TRIPOS>SUBSTRUCTURE
     1 CPY         1 TEMP              0 ****  ****    0 ROOT
