@<TRIPOS>MOLECULE
CPZ
   19    20     1     0     0
SMALL
bcc


@<TRIPOS>ATOM
      1 C11         0.8460   -0.4360    0.5650 ca        1 CPZ     -0.117000
      2 C10         0.7890   -0.4250    1.9550 ca        1 CPZ     -0.118000
      3 C9          1.7940   -1.0560    2.6940 ca        1 CPZ      0.015400
      4 C8          2.8560   -1.6920    2.0440 ca        1 CPZ     -0.118000
      5 C7          2.9100   -1.6970    0.6530 ca        1 CPZ     -0.117000
      6 C6          1.9070   -1.0720   -0.1020 ca        1 CPZ      0.000000
      7 C4          1.9410   -1.0560   -1.5470 cc        1 CPZ     -0.177600
      8 C2          1.3220   -0.1570   -2.4510 cd        1 CPZ      0.318200
      9 N1          1.6170   -0.5130   -3.7600 nd        1 CPZ     -0.666000
     10 C5          2.4010   -1.6120   -3.6770 cc        1 CPZ      0.397400
     11 N3          2.6300   -1.9790   -2.3500 na        1 CPZ     -0.310900
     12 CL          1.7260   -1.0480    4.3920 cl        1 CPZ     -0.090400
     13 H11         0.0530    0.0570   -0.0200 ha        1 CPZ      0.137500
     14 H10        -0.0470    0.0770    2.4670 ha        1 CPZ      0.149000
     15 H8          3.6500   -2.1840    2.6270 ha        1 CPZ      0.149000
     16 H7          3.7600   -2.1870    0.1570 ha        1 CPZ      0.137500
     17 H2          0.7040    0.7090   -2.2170 h4        1 CPZ      0.044100
     18 H5          2.8200   -2.1640   -4.5240 h5        1 CPZ      0.063100
     19 HN3         3.1490   -2.7500   -2.0230 hn        1 CPZ      0.302700
@<TRIPOS>BOND
     1    1    2 ar  
     2    1    6 ar  
     3    1   13 1   
     4    2    3 ar  
     5    2   14 1   
     6    3    4 ar  
     7    3   12 1   
     8    4    5 ar  
     9    4   15 1   
    10    5    6 ar  
    11    5   16 1   
    12    6    7 1   
    13    7    8 2   
    14    7   11 1   
    15    8    9 1   
    16    8   17 1   
    17    9   10 2   
    18   10   11 1   
    19   10   18 1   
    20   11   19 1   
@<TRIPOS>SUBSTRUCTURE
     1 CPZ         1 TEMP              0 ****  ****    0 ROOT
