@<TRIPOS>MOLECULE
CPZ
   19    20     1     0     0
SMALL
bcc


@<TRIPOS>ATOM
      1 C11         0.0060   -0.0430    0.0220 ca        1 CPZ     -0.117000
      2 C10         1.3970   -0.0620   -0.0040 ca        1 CPZ     -0.118000
      3 C9          2.1120   -0.0150    1.1960 ca        1 CPZ      0.015400
      4 C8          1.4380    0.0460    2.4190 ca        1 CPZ     -0.118000
      5 C7          0.0450    0.0620    2.4390 ca        1 CPZ     -0.117000
      6 C6         -0.6850    0.0200    1.2430 ca        1 CPZ      0.000000
      7 C4         -2.1310    0.0280    1.2340 cc        1 CPZ     -0.177600
      8 C2         -3.0260   -0.4350    0.2380 cd        1 CPZ      0.318200
      9 N1         -4.3400   -0.2310    0.6400 nd        1 CPZ     -0.666000
     10 C5         -4.2670    0.3500    1.8600 cc        1 CPZ      0.397400
     11 N3         -2.9430    0.5250    2.2660 na        1 CPZ     -0.310900
     12 CL          3.8110   -0.0340    1.1690 cl        1 CPZ     -0.090400
     13 H11        -0.5590   -0.0750   -0.9230 ha        1 CPZ      0.137500
     14 H10         1.9290   -0.1120   -0.9670 ha        1 CPZ      0.149000
     15 H8          2.0020    0.0780    3.3640 ha        1 CPZ      0.149000
     16 H7         -0.4710    0.0940    3.4100 ha        1 CPZ      0.137500
     17 H2         -2.7850   -0.9010   -0.7160 h4        1 CPZ      0.044100
     18 H5         -5.1200    0.6540    2.4760 h5        1 CPZ      0.063100
     19 HN3        -2.6230    0.9400    3.1000 hn        1 CPZ      0.302700
@<TRIPOS>BOND
     1    1    2 ar  
     2    1    6 ar  
     3    1   13 1   
     4    2    3 ar  
     5    2   14 1   
     6    3    4 ar  
     7    3   12 1   
     8    4    5 ar  
     9    4   15 1   
    10    5    6 ar  
    11    5   16 1   
    12    6    7 1   
    13    7    8 2   
    14    7   11 1   
    15    8    9 1   
    16    8   17 1   
    17    9   10 2   
    18   10   11 1   
    19   10   18 1   
    20   11   19 1   
@<TRIPOS>SUBSTRUCTURE
     1 CPZ         1 TEMP              0 ****  ****    0 ROOT
