@<TRIPOS>MOLECULE
CPZ
   19    13     1     0     0
SMALL
bcc


@<TRIPOS>ATOM
      1 C11         0.8330   -0.0490   -1.2050 c1        1 CPZ     -0.050500
      2 C10         2.2180   -0.0210   -1.1820 c1        1 CPZ     -0.060500
      3 C9          2.8920   -0.0480    0.0290 c1        1 CPZ      0.026900
      4 C8          2.1800   -0.1020    1.2170 c1        1 CPZ     -0.064500
      5 C7          0.7950   -0.1300    1.1950 c1        1 CPZ     -0.064500
      6 C6          0.1210   -0.1030   -0.0160 c1        1 CPZ      0.000000
      7 C4         -1.2650   -0.0690   -0.0370 cg        1 CPZ     -0.065500
      8 C2         -2.0960   -1.1550   -0.0740 ch        1 CPZ     -0.065500
      9 N1         -3.3560   -0.7130   -0.0390 nf        1 CPZ     -0.440900
     10 C5         -3.3230    0.6410    0.0190 c1        1 CPZ      0.349800
     11 N3         -2.0240    1.0290    0.0200 ne        1 CPZ     -0.440900
     12 CL          4.6350   -0.0100    0.0580 cl        1 CPZ     -0.101900
     13 H11         0.3580   -0.0300   -2.0580 ha        1 CPZ      0.087500
     14 H10         2.7190    0.0170   -2.0180 ha        1 CPZ      0.092500
     15 H8          2.6550   -0.1210    2.0700 ha        1 CPZ      0.081500
     16 H7          0.2940   -0.1680    2.0310 ha        1 CPZ      0.081500
     17 H2         -1.8170   -2.0900   -0.1180 DU        1 CPZ      0.211333
     18 H5         -4.0980    1.2330    0.0540 DU        1 CPZ      0.211333
     19 HN3        -1.7220    1.8890    0.0540 DU        1 CPZ      0.211333
@<TRIPOS>BOND
     1    1    6 3   
     2    1   13 1   
     3    2    3 3   
     4    2   14 1   
     5    3   12 1   
     6    4    5 3   
     7    4   15 1   
     8    5   16 1   
     9    7    8 3   
    10    7   11 1   
    11    8    9 1   
    12    9   10 2   
    13   10   11 2   
@<TRIPOS>SUBSTRUCTURE
     1 CPZ         1 TEMP              0 ****  ****    0 ROOT
