@<TRIPOS>MOLECULE
CQ0
   51    54     1     0     0
SMALL
bcc


@<TRIPOS>ATOM
      1 CAA        -0.2240    0.4760   -0.2240 ca        1 CQ0     -0.130000
      2 CAB         1.1700    0.2960   -0.1730 ca        1 CQ0      0.025700
      3 CAC         1.8410    0.4760    1.0520 ca        1 CQ0     -0.031000
      4 CAD         1.1150    0.8190    2.1980 ca        1 CQ0     -0.030000
      5 CAE        -0.2790    0.9710    2.1360 ca        1 CQ0     -0.218600
      6 CAF        -0.9470    0.8070    0.9130 ca        1 CQ0     -0.091000
      7 CAG         3.2930    0.3090    1.1680 cc        1 CQ0     -0.074000
      8 CAH         3.8210   -0.7650    1.8400 cd        1 CQ0     -0.045000
      9 CAI         5.2400   -0.8820    1.9480 cd        1 CQ0     -0.113300
     10 NAJ         6.0870    0.1180    1.3590 na        1 CQ0     -0.074200
     11 CAK         5.5240    1.1870    0.6950 cd        1 CQ0     -0.042300
     12 CAL         4.1590    1.2960    0.5890 cc        1 CQ0     -0.164000
     13 NAM         6.0510   -1.8220    2.5460 nc        1 CQ0     -0.055000
     14 NAN         7.2960   -1.4780    2.3690 nc        1 CQ0     -0.333700
     15 CAO         7.3970   -0.3040    1.6530 cd        1 CQ0      0.330800
     16 CAP         8.6610    0.4050    1.2520 c3        1 CQ0     -0.048300
     17 CAQ         1.8990   -0.0930   -1.4000 c3        1 CQ0     -0.082800
     18 CAR        -0.9640    1.3470    3.3690 c         1 CQ0      0.586700
     19 NAS        -2.3510    0.7320    3.5700 n4        1 CQ0     -0.647800
     20 CAT        -2.3930   -0.1090    4.7780 cx        1 CQ0     -0.003500
     21 CAU        -3.5600   -1.0430    5.0270 cx        1 CQ0     -0.100900
     22 CAV        -2.2160   -1.6110    4.6960 cx        1 CQ0     -0.100900
     23 OAW        -0.5850    2.0690    4.2770 o         1 CQ0     -0.414100
     24 CAX         8.6880    1.7980    1.8690 c3        1 CQ0     -0.091767
     25 CAY         9.8720   -0.3770    1.7570 c3        1 CQ0     -0.091767
     26 CAZ         8.7400    0.4970   -0.2670 c3        1 CQ0     -0.091767
     27 HAA        -0.7470    0.3550   -1.1870 ha        1 CQ0      0.165000
     28 HAD         1.6450    0.9740    3.1550 ha        1 CQ0      0.171000
     29 HAF        -2.0310    0.9740    0.8220 ha        1 CQ0      0.130000
     30 HAH         3.2040   -1.5500    2.3010 ha        1 CQ0      0.165000
     31 HAK         6.2180    1.9310    0.2650 h4        1 CQ0      0.182000
     32 HAL         3.7220    2.1560    0.0620 ha        1 CQ0      0.158000
     33 HAQ         2.8750    0.4520   -1.4710 hc        1 CQ0      0.074033
     34 HAQA        1.2990    0.1250   -2.3180 hc        1 CQ0      0.074033
     35 HAQB        2.1190   -1.1920   -1.3750 hc        1 CQ0      0.074033
     36 HNAS       -3.0370    1.4880    3.6870 hn        1 CQ0      0.455300
     37 HAT        -1.9470    0.4460    5.6380 hx        1 CQ0      0.157700
     38 HAU        -4.3760   -1.1250    4.2850 hc        1 CQ0      0.110950
     39 HAUA       -3.9470   -1.1060    6.0640 hc        1 CQ0      0.110950
     40 HAV        -2.0660   -2.1020    3.7160 hc        1 CQ0      0.110950
     41 HAVA       -1.6100   -2.0950    5.4890 hc        1 CQ0      0.110950
     42 HAX         9.6540    2.2980    1.6160 hc        1 CQ0      0.047478
     43 HAXA        8.6010    1.7320    2.9810 hc        1 CQ0      0.047478
     44 HAXB        7.8540    2.4290    1.4820 hc        1 CQ0      0.047478
     45 HAY         9.8520   -0.4590    2.8700 hc        1 CQ0      0.047478
     46 HAYA        9.8890   -1.4030    1.3200 hc        1 CQ0      0.047478
     47 HAYB       10.8060    0.1570    1.4550 hc        1 CQ0      0.047478
     48 HAZ         8.6900   -0.5220   -0.7210 hc        1 CQ0      0.047478
     49 HAZA        9.7080    0.9700   -0.5600 hc        1 CQ0      0.047478
     50 HAZB        7.9080    1.1150   -0.6790 hc        1 CQ0      0.047478
     51 HAS2       -2.6050    0.1750    2.7480 hn        1 CQ0      0.455300
@<TRIPOS>BOND
     1    1    2 ar  
     2    1    6 ar  
     3    1   27 1   
     4    2    3 ar  
     5    2   17 1   
     6    3    4 ar  
     7    3    7 1   
     8    4    5 ar  
     9    4   28 1   
    10    5    6 ar  
    11    5   18 1   
    12    6   29 1   
    13    7    8 2   
    14    7   12 1   
    15    8    9 1   
    16    8   30 1   
    17    9   10 1   
    18    9   13 2   
    19   10   11 1   
    20   10   15 1   
    21   11   12 2   
    22   11   31 1   
    23   12   32 1   
    24   13   14 1   
    25   14   15 2   
    26   15   16 1   
    27   16   24 1   
    28   16   25 1   
    29   16   26 1   
    30   17   33 1   
    31   17   34 1   
    32   17   35 1   
    33   18   19 1   
    34   18   23 2   
    35   19   20 1   
    36   19   36 1   
    37   19   51 1   
    38   20   21 1   
    39   20   22 1   
    40   20   37 1   
    41   21   22 1   
    42   21   38 1   
    43   21   39 1   
    44   22   40 1   
    45   22   41 1   
    46   24   42 1   
    47   24   43 1   
    48   24   44 1   
    49   25   45 1   
    50   25   46 1   
    51   25   47 1   
    52   26   48 1   
    53   26   49 1   
    54   26   50 1   
@<TRIPOS>SUBSTRUCTURE
     1 CQ0         1 TEMP              0 ****  ****    0 ROOT
