@<TRIPOS>MOLECULE
CQ0
   51    54     1     0     0
SMALL
bcc


@<TRIPOS>ATOM
      1 CAA        -0.2290    0.5420   -0.2060 ca        1 CQ0     -0.130000
      2 CAB         1.1650    0.3560   -0.1640 ca        1 CQ0      0.025700
      3 CAC         1.8400    0.5000    1.0630 ca        1 CQ0     -0.031000
      4 CAD         1.1190    0.8140    2.2200 ca        1 CQ0     -0.030000
      5 CAE        -0.2750    0.9720    2.1670 ca        1 CQ0     -0.218600
      6 CAF        -0.9480    0.8450    0.9410 ca        1 CQ0     -0.091000
      7 CAG         3.2910    0.3250    1.1690 cc        1 CQ0     -0.074000
      8 CAH         3.8180   -0.7690    1.8100 cd        1 CQ0     -0.045000
      9 CAI         5.2370   -0.8950    1.9110 cd        1 CQ0     -0.113300
     10 NAJ         6.0860    0.1190    1.3470 na        1 CQ0     -0.074200
     11 CAK         5.5240    1.2070    0.7140 cd        1 CQ0     -0.042300
     12 CAL         4.1590    1.3240    0.6160 cc        1 CQ0     -0.164000
     13 NAM         6.0460   -1.8530    2.4800 nc        1 CQ0     -0.055000
     14 NAN         7.2920   -1.5090    2.3080 nc        1 CQ0     -0.333700
     15 CAO         7.3950   -0.3160    1.6250 cd        1 CQ0      0.330800
     16 CAP         8.6600    0.3990    1.2400 c3        1 CQ0     -0.048300
     17 CAQ         1.8880   -0.0020   -1.4040 c3        1 CQ0     -0.082800
     18 CAR        -0.9550    1.3170    3.4110 c         1 CQ0      0.586700
     19 NAS        -2.3440    0.7020    3.6000 n4        1 CQ0     -0.647800
     20 CAT        -2.3850   -0.1700    4.7850 cx        1 CQ0     -0.003500
     21 CAU        -3.5550   -1.1060    5.0140 cx        1 CQ0     -0.100900
     22 CAV        -2.2140   -1.6710    4.6640 cx        1 CQ0     -0.100900
     23 OAW        -0.5710    2.0130    4.3380 o         1 CQ0     -0.414100
     24 CAX         8.6940    1.7740    1.8950 c3        1 CQ0     -0.091767
     25 CAY         9.8700   -0.4010    1.7190 c3        1 CQ0     -0.091767
     26 CAZ         8.7340    0.5330   -0.2760 c3        1 CQ0     -0.091767
     27 HAA        -0.7560    0.4490   -1.1700 ha        1 CQ0      0.165000
     28 HAD         1.6520    0.9410    3.1790 ha        1 CQ0      0.171000
     29 HAF        -2.0310    1.0170    0.8590 ha        1 CQ0      0.130000
     30 HAH         3.1990   -1.5650    2.2510 ha        1 CQ0      0.165000
     31 HAK         6.2200    1.9610    0.3020 h4        1 CQ0      0.182000
     32 HAL         3.7240    2.2000    0.1140 ha        1 CQ0      0.158000
     33 HAQ         2.8670    0.5390   -1.4630 hc        1 CQ0      0.074033
     34 HAQA        1.2870    0.2450   -2.3140 hc        1 CQ0      0.074033
     35 HAQB        2.1020   -1.1030   -1.4100 hc        1 CQ0      0.074033
     36 HNAS       -2.6020    0.1670    2.7640 hn        1 CQ0      0.455300
     37 HAT        -1.9350    0.3600    5.6590 hx        1 CQ0      0.157700
     38 HAU        -3.9390   -1.1950    6.0500 hc        1 CQ0      0.110950
     39 HAUA       -4.3740   -1.1650    4.2720 hc        1 CQ0      0.110950
     40 HAV        -2.0690   -2.1360    3.6710 hc        1 CQ0      0.110950
     41 HAVA       -1.6080   -2.1770    5.4420 hc        1 CQ0      0.110950
     42 HAX         7.8610    2.4190    1.5270 hc        1 CQ0      0.047478
     43 HAXA        9.6610    2.2770    1.6530 hc        1 CQ0      0.047478
     44 HAXB        8.6110    1.6770    3.0040 hc        1 CQ0      0.047478
     45 HAY         9.8820   -1.4150    1.2540 hc        1 CQ0      0.047478
     46 HAYA       10.8050    0.1380    1.4280 hc        1 CQ0      0.047478
     47 HAYB        9.8530   -0.5130    2.8290 hc        1 CQ0      0.047478
     48 HAZ         8.6790   -0.4730   -0.7580 hc        1 CQ0      0.047478
     49 HAZA        9.7040    1.0110   -0.5600 hc        1 CQ0      0.047478
     50 HAZB        7.9040    1.1650   -0.6690 hc        1 CQ0      0.047478
     51 HAS2       -3.0260    1.4570    3.7390 hn        1 CQ0      0.455300
@<TRIPOS>BOND
     1    1    2 ar  
     2    1    6 ar  
     3    1   27 1   
     4    2    3 ar  
     5    2   17 1   
     6    3    4 ar  
     7    3    7 1   
     8    4    5 ar  
     9    4   28 1   
    10    5    6 ar  
    11    5   18 1   
    12    6   29 1   
    13    7    8 2   
    14    7   12 1   
    15    8    9 1   
    16    8   30 1   
    17    9   10 1   
    18    9   13 2   
    19   10   11 1   
    20   10   15 1   
    21   11   12 2   
    22   11   31 1   
    23   12   32 1   
    24   13   14 1   
    25   14   15 2   
    26   15   16 1   
    27   16   24 1   
    28   16   25 1   
    29   16   26 1   
    30   17   33 1   
    31   17   34 1   
    32   17   35 1   
    33   18   19 1   
    34   18   23 2   
    35   19   20 1   
    36   19   36 1   
    37   19   51 1   
    38   20   21 1   
    39   20   22 1   
    40   20   37 1   
    41   21   22 1   
    42   21   38 1   
    43   21   39 1   
    44   22   40 1   
    45   22   41 1   
    46   24   42 1   
    47   24   43 1   
    48   24   44 1   
    49   25   45 1   
    50   25   46 1   
    51   25   47 1   
    52   26   48 1   
    53   26   49 1   
    54   26   50 1   
@<TRIPOS>SUBSTRUCTURE
     1 CQ0         1 TEMP              0 ****  ****    0 ROOT
