@<TRIPOS>MOLECULE
CQ0
   50    53     1     0     0
SMALL
bcc


@<TRIPOS>ATOM
      1 CAA         2.5540    2.8380   -0.1150 ca        1 CQ0     -0.143000
      2 CAB         1.2090    2.4630   -0.0030 ca        1 CQ0     -0.034300
      3 CAC         0.8620    1.1080   -0.1500 ca        1 CQ0     -0.060000
      4 CAD         1.8570    0.1560   -0.3980 ca        1 CQ0     -0.059000
      5 CAE         3.1970    0.5440   -0.4950 ca        1 CQ0     -0.148600
      6 CAF         3.5440    1.8910   -0.3580 ca        1 CQ0     -0.094000
      7 CAG        -0.5330    0.6660   -0.0560 cc        1 CQ0     -0.032000
      8 CAH        -0.9940   -0.0020    1.0510 cd        1 CQ0     -0.064000
      9 CAI        -2.3600   -0.4240    1.0880 cd        1 CQ0     -0.092300
     10 NAJ        -3.2190   -0.1540   -0.0290 na        1 CQ0     -0.069200
     11 CAK        -2.7250    0.5120   -1.1300 cd        1 CQ0     -0.069300
     12 CAL        -1.4150    0.9240   -1.1580 cc        1 CQ0     -0.147000
     13 NAM        -3.1040   -1.0920    2.0380 nc        1 CQ0     -0.078000
     14 NAN        -4.3200   -1.2440    1.5920 nc        1 CQ0     -0.343700
     15 CAO        -4.4650   -0.6980    0.3360 cd        1 CQ0      0.299800
     16 CAP        -5.7110   -0.6790   -0.5020 c3        1 CQ0     -0.042300
     17 CAQ         0.1810    3.4910    0.2810 c3        1 CQ0     -0.062800
     18 CAR         4.2150   -0.5100   -0.7800 c         1 CQ0      0.678700
     19 NAS         5.4190   -0.4120   -0.1060 n         1 CQ0     -0.541900
     20 CAT         6.4520   -1.3730   -0.2530 cx        1 CQ0      0.053700
     21 CAU         7.9110   -0.9920   -0.0960 cx        1 CQ0     -0.153400
     22 CAV         7.2570   -1.8660    0.9340 cx        1 CQ0     -0.153400
     23 OAW         3.9890   -1.4350   -1.5850 o         1 CQ0     -0.597100
     24 CAX        -5.4670   -1.4250   -1.8080 c3        1 CQ0     -0.089433
     25 CAY        -6.8490   -1.3700    0.2470 c3        1 CQ0     -0.089433
     26 CAZ        -6.1210    0.7610   -0.7860 c3        1 CQ0     -0.089433
     27 HAA         2.8300    3.8990   -0.0100 ha        1 CQ0      0.139000
     28 HAD         1.5910   -0.9060   -0.5310 ha        1 CQ0      0.162000
     29 HAF         4.5910    2.2140   -0.4590 ha        1 CQ0      0.139000
     30 HAH        -0.3590   -0.2310    1.9190 ha        1 CQ0      0.171000
     31 HAK        -3.4250    0.6880   -1.9650 h4        1 CQ0      0.171000
     32 HAL        -1.0270    1.4520   -2.0410 ha        1 CQ0      0.160000
     33 HAQ        -0.7370    3.3110   -0.3330 hc        1 CQ0      0.052367
     34 HAQA       -0.1090    3.4500    1.3620 hc        1 CQ0      0.052367
     35 HAQB        0.5630    4.5180    0.0580 hc        1 CQ0      0.052367
     36 HNAS        5.5360    0.2940    0.5800 hn        1 CQ0      0.311500
     37 HAT         6.1930   -2.1160   -1.0460 h1        1 CQ0      0.122700
     38 HAU         8.6390   -1.4320   -0.8000 hc        1 CQ0      0.074200
     39 HAUA        8.1840    0.0420    0.1820 hc        1 CQ0      0.074200
     40 HAV         7.0680   -1.4510    1.9390 hc        1 CQ0      0.074200
     41 HAVA        7.5130   -2.9390    0.9760 hc        1 CQ0      0.074200
     42 HAX        -5.1370   -2.4710   -1.6000 hc        1 CQ0      0.043589
     43 HAXA       -6.4120   -1.4590   -2.4020 hc        1 CQ0      0.043589
     44 HAXB       -4.6850   -0.9200   -2.4230 hc        1 CQ0      0.043589
     45 HAY        -7.0610   -0.8460    1.2090 hc        1 CQ0      0.043589
     46 HAYA       -7.7710   -1.3510   -0.3830 hc        1 CQ0      0.043589
     47 HAYB       -6.5860   -2.4320    0.4670 hc        1 CQ0      0.043589
     48 HAZ        -5.3460    1.2910   -1.3890 hc        1 CQ0      0.043589
     49 HAZA       -7.0790    0.7700   -1.3600 hc        1 CQ0      0.043589
     50 HAZB       -6.2720    1.3160    0.1710 hc        1 CQ0      0.043589
@<TRIPOS>BOND
     1    1    2 ar  
     2    1    6 ar  
     3    1   27 1   
     4    2    3 ar  
     5    2   17 1   
     6    3    4 ar  
     7    3    7 1   
     8    4    5 ar  
     9    4   28 1   
    10    5    6 ar  
    11    5   18 1   
    12    6   29 1   
    13    7    8 2   
    14    7   12 1   
    15    8    9 1   
    16    8   30 1   
    17    9   10 1   
    18    9   13 2   
    19   10   11 1   
    20   10   15 1   
    21   11   12 2   
    22   11   31 1   
    23   12   32 1   
    24   13   14 1   
    25   14   15 2   
    26   15   16 1   
    27   16   24 1   
    28   16   25 1   
    29   16   26 1   
    30   17   33 1   
    31   17   34 1   
    32   17   35 1   
    33   18   19 1   
    34   18   23 2   
    35   19   20 1   
    36   19   36 1   
    37   20   21 1   
    38   20   22 1   
    39   20   37 1   
    40   21   22 1   
    41   21   38 1   
    42   21   39 1   
    43   22   40 1   
    44   22   41 1   
    45   24   42 1   
    46   24   43 1   
    47   24   44 1   
    48   25   45 1   
    49   25   46 1   
    50   25   47 1   
    51   26   48 1   
    52   26   49 1   
    53   26   50 1   
@<TRIPOS>SUBSTRUCTURE
     1 CQ0         1 TEMP              0 ****  ****    0 ROOT
