@<TRIPOS>MOLECULE
CQ0
   51    54     1     0     0
SMALL
bcc


@<TRIPOS>ATOM
      1 CAA        -0.2330    0.5480   -0.1970 ca        1 CQ0     -0.130000
      2 CAB         1.1600    0.3600   -0.1590 ca        1 CQ0      0.025700
      3 CAC         1.8380    0.5020    1.0660 ca        1 CQ0     -0.031000
      4 CAD         1.1210    0.8150    2.2260 ca        1 CQ0     -0.030000
      5 CAE        -0.2730    0.9750    2.1760 ca        1 CQ0     -0.218600
      6 CAF        -0.9490    0.8490    0.9520 ca        1 CQ0     -0.091000
      7 CAG         3.2900    0.3250    1.1690 cc        1 CQ0     -0.074000
      8 CAH         3.8170   -0.7690    1.8080 cd        1 CQ0     -0.045000
      9 CAI         5.2360   -0.8960    1.9050 cd        1 CQ0     -0.113300
     10 NAJ         6.0850    0.1170    1.3390 na        1 CQ0     -0.074200
     11 CAK         5.5220    1.2060    0.7090 cd        1 CQ0     -0.042300
     12 CAL         4.1570    1.3240    0.6150 cc        1 CQ0     -0.164000
     13 NAM         6.0460   -1.8560    2.4710 nc        1 CQ0     -0.055000
     14 NAN         7.2920   -1.5120    2.2970 nc        1 CQ0     -0.333700
     15 CAO         7.3940   -0.3190    1.6140 cd        1 CQ0      0.330800
     16 CAP         8.6590    0.3950    1.2270 c3        1 CQ0     -0.048300
     17 CAQ         1.8800    0.0030   -1.4010 c3        1 CQ0     -0.082800
     18 CAR        -0.9500    1.3180    3.4230 c         1 CQ0      0.586700
     19 NAS        -2.3390    0.7040    3.6140 ny        1 CQ0     -0.647800
     20 CAT        -2.3780   -0.1710    4.7970 cx        1 CQ0     -0.003500
     21 CAU        -3.5490   -1.1060    5.0270 cx        1 CQ0     -0.100900
     22 CAV        -2.2080   -1.6710    4.6720 cx        1 CQ0     -0.100900
     23 OAW        -0.5620    2.0120    4.3500 o         1 CQ0     -0.414100
     24 CAX         8.6950    1.7700    1.8830 c3        1 CQ0     -0.091767
     25 CAY         9.8700   -0.4050    1.7030 c3        1 CQ0     -0.091767
     26 CAZ         8.7300    0.5310   -0.2890 c3        1 CQ0     -0.091767
     27 HAA        -0.7620    0.4570   -1.1610 ha        1 CQ0      0.165000
     28 HAD         1.6560    0.9400    3.1840 ha        1 CQ0      0.171000
     29 HAF        -2.0330    1.0230    0.8720 ha        1 CQ0      0.130000
     30 HAH         3.1990   -1.5650    2.2490 ha        1 CQ0      0.165000
     31 HAK         6.2180    1.9600    0.2970 h4        1 CQ0      0.182000
     32 HAL         3.7220    2.2010    0.1150 ha        1 CQ0      0.158000
     33 HAQ         1.2770    0.2500   -2.3090 hc        1 CQ0      0.074033
     34 HAQA        2.8590    0.5450   -1.4620 hc        1 CQ0      0.074033
     35 HAQB        2.0950   -1.0970   -1.4080 hc        1 CQ0      0.074033
     36 HNAS       -3.0200    1.4600    3.7570 hn        1 CQ0      0.455300
     37 HAT        -1.9250    0.3570    5.6710 hx        1 CQ0      0.157700
     38 HAU        -3.9300   -1.1970    6.0630 hc        1 CQ0      0.110950
     39 HAUA       -4.3690   -1.1630    4.2860 hc        1 CQ0      0.110950
     40 HAV        -2.0670   -2.1340    3.6770 hc        1 CQ0      0.110950
     41 HAVA       -1.6010   -2.1790    5.4470 hc        1 CQ0      0.110950
     42 HAX         7.8620    2.4160    1.5180 hc        1 CQ0      0.047478
     43 HAXA        8.6150    1.6720    2.9930 hc        1 CQ0      0.047478
     44 HAXB        9.6620    2.2730    1.6390 hc        1 CQ0      0.047478
     45 HAY        10.8040    0.1320    1.4100 hc        1 CQ0      0.047478
     46 HAYA        9.8790   -1.4190    1.2360 hc        1 CQ0      0.047478
     47 HAYB        9.8550   -0.5190    2.8130 hc        1 CQ0      0.047478
     48 HAZ         8.6730   -0.4740   -0.7720 hc        1 CQ0      0.047478
     49 HAZA        7.8990    1.1640   -0.6790 hc        1 CQ0      0.047478
     50 HAZB        9.6990    1.0080   -0.5750 hc        1 CQ0      0.047478
     51 HAS2       -2.6000    0.1720    2.7780 hn        1 CQ0      0.455300
@<TRIPOS>BOND
     1    1    2 ar  
     2    1    6 ar  
     3    1   27 1   
     4    2    3 ar  
     5    2   17 1   
     6    3    4 ar  
     7    3    7 1   
     8    4    5 ar  
     9    4   28 1   
    10    5    6 ar  
    11    5   18 1   
    12    6   29 1   
    13    7    8 2   
    14    7   12 1   
    15    8    9 1   
    16    8   30 1   
    17    9   10 1   
    18    9   13 2   
    19   10   11 1   
    20   10   15 1   
    21   11   12 2   
    22   11   31 1   
    23   12   32 1   
    24   13   14 1   
    25   14   15 2   
    26   15   16 1   
    27   16   24 1   
    28   16   25 1   
    29   16   26 1   
    30   17   33 1   
    31   17   34 1   
    32   17   35 1   
    33   18   19 1   
    34   18   23 2   
    35   19   20 1   
    36   19   36 1   
    37   19   51 1   
    38   20   21 1   
    39   20   22 1   
    40   20   37 1   
    41   21   22 1   
    42   21   38 1   
    43   21   39 1   
    44   22   40 1   
    45   22   41 1   
    46   24   42 1   
    47   24   43 1   
    48   24   44 1   
    49   25   45 1   
    50   25   46 1   
    51   25   47 1   
    52   26   48 1   
    53   26   49 1   
    54   26   50 1   
@<TRIPOS>SUBSTRUCTURE
     1 CQ0         1 TEMP              0 ****  ****    0 ROOT
