@<TRIPOS>MOLECULE
CQ1
   40    33     1     0     0
SMALL
bcc


@<TRIPOS>ATOM
      1 NY         -5.5650    4.3340    2.3860 n1        1 CQ1     -0.141000
      2 NX         -5.3100    3.4830    1.2610 n2        1 CQ1      0.218000
      3 NW         -5.1160    2.8320    0.4010 n1        1 CQ1     -0.141000
      4 CZ         -4.3700    1.6120    0.5770 c1        1 CQ1     -0.016500
      5 CE1        -4.2590    0.7320   -0.4350 c1        1 CQ1     -0.102000
      6 CD1        -3.4730   -0.4190   -0.2700 c1        1 CQ1     -0.102000
      7 CE2        -3.6890    1.3740    1.8110 c1        1 CQ1     -0.146500
      8 CD2        -2.9000    0.2210    1.9730 c1        1 CQ1     -0.146500
      9 CG2        -2.7870   -0.6530    0.9780 c1        1 CQ1     -0.016500
     10 CB2        -1.8640   -1.8140    1.1160 c1        1 CQ1     -0.092000
     11 CA2        -0.4280   -1.7410    0.5450 c1        1 CQ1     -0.073000
     12 N2          0.2040   -0.6510   -0.1520 n2        1 CQ1     -0.218000
     13 C2          0.6100   -2.8010    0.5900 c1        1 CQ1      0.297000
     14 O2          0.6140   -3.8680    1.3870 o         1 CQ1     -0.324000
     15 N3          1.8480   -2.1680   -0.1290 n2        1 CQ1     -0.260000
     16 CA3         3.0370   -2.6660   -0.2200 c3        1 CQ1     -0.122000
     17 C3          3.0030   -3.7630   -1.1040 c1        1 CQ1      0.324000
     18 O3          1.8780   -4.0910   -1.6850 os        1 CQ1     -0.584000
     19 C1          1.4120   -0.9180   -0.5320 c2        1 CQ1      0.105000
     20 CA1         2.4820    0.2730   -0.7830 c3        1 CQ1      0.010000
     21 N1          2.8150    0.3090   -2.1210 n3        1 CQ1     -0.345000
     22 CB1         1.9040    1.5550   -0.3900 c3        1 CQ1      0.036000
     23 CG1         3.0140    2.5400   -0.1370 c3        1 CQ1     -0.244000
     24 OG1         1.0920    2.0310   -1.4250 oh        1 CQ1     -0.323000
     25 H2         -4.5480    1.0200   -1.3940 ha        1 CQ1      0.160000
     26 H3         -3.4130   -1.0800   -0.9860 ha        1 CQ1      0.160000
     27 H4         -3.9380    1.9720    2.6780 ha        1 CQ1      0.126000
     28 H5         -2.6300    0.0090    2.7440 ha        1 CQ1      0.126000
     29 H7         -2.1290   -2.4740    1.3880 ha        1 CQ1      0.139000
     30 H8          3.7810   -1.8620   -0.6180 h1        1 CQ1      0.095500
     31 H9          3.2720   -2.9070    0.4970 h1        1 CQ1      0.095500
     32 O1          4.1910   -4.5840   -1.3030 o         1 CQ1     -0.541000
     33 H14         3.2500    0.1140   -0.2740 h1        1 CQ1      0.146000
     34 H15         2.1440    0.6100   -2.5800 hn        1 CQ1      0.173500
     35 H16         3.3790    0.7310   -2.2170 hn        1 CQ1      0.173500
     36 H18         1.3370    1.4380    0.4800 h1        1 CQ1      0.110000
     37 H19         3.6720    2.6030   -1.0570 hc        1 CQ1      0.080667
     38 H20         2.6070    3.4780    0.0680 hc        1 CQ1      0.080667
     39 H21         3.5180    2.2600    0.5840 hc        1 CQ1      0.080667
     40 H22         1.3570    2.9280   -1.6550 ho        1 CQ1      0.201000
@<TRIPOS>BOND
     1    1    2 1   
     2    2    3 1   
     3    4    7 1   
     4    5    6 1   
     5    5   25 1   
     6    6   26 1   
     7    7   27 1   
     8    8    9 1   
     9    8   28 1   
    10   10   11 1   
    11   10   29 1   
    12   11   12 1   
    13   12   19 1   
    14   13   14 1   
    15   15   16 1   
    16   15   19 1   
    17   16   17 1   
    18   16   30 1   
    19   16   31 1   
    20   17   32 1   
    21   19   20 1   
    22   20   21 1   
    23   20   22 1   
    24   20   33 1   
    25   21   34 1   
    26   21   35 1   
    27   22   23 1   
    28   22   24 1   
    29   22   36 1   
    30   23   37 1   
    31   23   38 1   
    32   23   39 1   
    33   24   40 1   
@<TRIPOS>SUBSTRUCTURE
     1 CQ1         1 TEMP              0 ****  ****    0 ROOT
