@<TRIPOS>MOLECULE
CQ1
   40    41     1     0     0
SMALL
bcc


@<TRIPOS>ATOM
      1 NY         -8.4330    0.9830    0.8230 n1        1 CQ1     -0.067000
      2 NX         -7.4300    0.4890    0.6210 n1        1 CQ1      0.113700
      3 NW         -6.4510   -0.2690    0.4160 ne        1 CQ1     -0.399400
      4 CZ         -5.1450    0.2340    0.1600 cd        1 CQ1      0.456900
      5 CE1        -4.1060   -0.7210    0.1070 cd        1 CQ1     -0.241100
      6 CD1        -2.8000   -0.3250   -0.1580 cc        1 CQ1     -0.095000
      7 CE2        -4.8290    1.5900   -0.0620 cd        1 CQ1     -0.241100
      8 CD2        -3.5200    1.9690   -0.3260 cc        1 CQ1     -0.095000
      9 CG2        -2.4800    1.0240   -0.3750 cc        1 CQ1     -0.029000
     10 CB2        -1.1430    1.4950   -0.6640 cf        1 CQ1     -0.200800
     11 CA2         0.0290    0.8650   -0.4590 cd        1 CQ1      0.366100
     12 N2          0.3170   -0.4130    0.0910 nd        1 CQ1     -0.747000
     13 C2          1.3630    1.5200   -0.8150 cc        1 CQ1      0.204400
     14 O2          1.5590    2.6280   -1.3270 o         1 CQ1     -0.332000
     15 N3          2.3440    0.5690   -0.4360 n         1 CQ1     -0.319900
     16 CA3         3.7380    0.7600   -0.7200 c3        1 CQ1     -0.092700
     17 C3          4.7740    0.0550    0.2010 c         1 CQ1      0.901600
     18 O3          5.6290   -0.6640   -0.3880 o         1 CQ1     -0.821300
     19 C1          1.6510   -0.5490    0.1030 cc        1 CQ1      0.602800
     20 CA1         2.3830   -1.7640    0.6600 c3        1 CQ1      0.108200
     21 N1          1.5450   -2.5680    1.5290 n3        1 CQ1     -0.875800
     22 CB1         3.0410   -2.5340   -0.5200 c3        1 CQ1      0.096100
     23 CG1         4.1810   -3.4040   -0.0240 c3        1 CQ1     -0.135100
     24 OG1         2.0270   -3.3190   -1.1440 oh        1 CQ1     -0.621800
     25 H2         -4.3210   -1.7870    0.2780 ha        1 CQ1      0.132500
     26 H3         -2.0120   -1.0960   -0.1950 ha        1 CQ1      0.154500
     27 H4         -5.6070    2.3670   -0.0300 ha        1 CQ1      0.132500
     28 H5         -3.2920    3.0330   -0.4940 ha        1 CQ1      0.154500
     29 H7         -1.0850    2.5140   -1.0950 ha        1 CQ1      0.139000
     30 H8          3.9290    0.4270   -1.7810 h1        1 CQ1      0.047700
     31 H9          3.9420    1.8670   -0.6550 h1        1 CQ1      0.047700
     32 O1          4.7250    0.2480    1.4440 o         1 CQ1     -0.821300
     33 H14         3.2340   -1.3610    1.3080 h1        1 CQ1      0.155700
     34 H15         0.7240   -2.8760    1.0440 hn        1 CQ1      0.349300
     35 H16         2.0670   -3.3790    1.8060 hn        1 CQ1      0.349300
     36 H18         3.4580   -1.7930   -1.2610 h1        1 CQ1      0.076700
     37 H19         3.8530   -4.0880    0.7920 hc        1 CQ1      0.050700
     38 H20         4.5780   -4.0240   -0.8630 hc        1 CQ1      0.050700
     39 H21         5.0030   -2.7350    0.3470 hc        1 CQ1      0.050700
     40 H22         2.4510   -3.7650   -1.8850 ho        1 CQ1      0.394000
@<TRIPOS>BOND
     1    1    2 3   
     2    2    3 1   
     3    3    4 2   
     4    4    5 1   
     5    4    7 1   
     6    5    6 2   
     7    5   25 1   
     8    6    9 1   
     9    6   26 1   
    10    7    8 2   
    11    7   27 1   
    12    8    9 1   
    13    8   28 1   
    14    9   10 2   
    15   10   11 1   
    16   10   29 1   
    17   11   12 1   
    18   11   13 2   
    19   12   19 2   
    20   13   14 1   
    21   13   15 1   
    22   15   16 1   
    23   15   19 1   
    24   16   17 1   
    25   16   30 1   
    26   16   31 1   
    27   17   18 1   
    28   17   32 1   
    29   19   20 1   
    30   20   21 1   
    31   20   22 1   
    32   20   33 1   
    33   21   34 1   
    34   21   35 1   
    35   22   23 1   
    36   22   24 1   
    37   22   36 1   
    38   23   37 1   
    39   23   38 1   
    40   23   39 1   
    41   24   40 1   
@<TRIPOS>SUBSTRUCTURE
     1 CQ1         1 TEMP              0 ****  ****    0 ROOT
