@<TRIPOS>MOLECULE
CQ2
   40    41     1     0     0
SMALL
bcc


@<TRIPOS>ATOM
      1 CG1        -3.6090    3.2620   -0.7440 c3        1 CQ2     -0.148100
      2 CB1        -2.2480    2.6230   -0.9400 c3        1 CQ2      0.105100
      3 OG1        -1.2910    3.5640   -1.4080 oh        1 CQ2     -0.604800
      4 CA1        -1.7970    1.9330    0.3850 c3        1 CQ2      0.088200
      5 N1         -1.0470    2.7740    1.2960 n3        1 CQ2     -0.879800
      6 C1         -1.0580    0.6520    0.0330 cc        1 CQ2      0.506900
      7 N2          0.2670    0.4820    0.1110 nd        1 CQ2     -0.642300
      8 N3         -1.7600   -0.4870   -0.4490 n         1 CQ2     -0.389300
      9 CA3        -3.1780   -0.6630   -0.5710 c3        1 CQ2     -0.040000
     10 C3         -4.0220   -0.4320    0.7210 c         1 CQ2      0.903600
     11 O3         -4.0570   -1.3450    1.5810 o         1 CQ2     -0.821800
     12 C2         -0.7970   -1.5030   -0.6690 c         1 CQ2      0.667700
     13 O2         -0.9990   -2.6390   -1.1130 o         1 CQ2     -0.605500
     14 CA2         0.5360   -0.8560   -0.2970 cd        1 CQ2      0.032400
     15 CB2         1.6990   -1.5280   -0.3910 ce        1 CQ2     -0.058200
     16 CG2         3.0340   -1.0610   -0.0860 ca        1 CQ2     -0.075800
     17 CD2         3.2980    0.0270    0.7590 ca        1 CQ2     -0.075500
     18 CE2         4.6030    0.4170    1.0360 ca        1 CQ2     -0.195500
     19 CZ          5.6990   -0.2690    0.4680 ca        1 CQ2      0.116600
     20 NH          7.0160    0.1740    0.6780 nh        1 CQ2     -0.809200
     21 CE1         5.4330   -1.3700   -0.3770 ca        1 CQ2     -0.195500
     22 CD1         4.1260   -1.7500   -0.6430 ca        1 CQ2     -0.075500
     23 H1         -3.9490    3.7400   -1.6920 hc        1 CQ2      0.057033
     24 H2         -4.3470    2.4730   -0.4330 hc        1 CQ2      0.057033
     25 H3         -3.5650    4.0420    0.0540 hc        1 CQ2      0.057033
     26 H4         -2.2970    1.8630   -1.7710 h1        1 CQ2      0.086700
     27 H5         -1.3850    4.3630   -0.8770 ho        1 CQ2      0.382000
     28 H6         -2.7490    1.6200    0.9400 h1        1 CQ2      0.162700
     29 H7         -0.1610    3.0300    0.9010 hn        1 CQ2      0.344800
     30 H8         -1.5760    3.6080    1.4690 hn        1 CQ2      0.344800
     31 H13        -3.5510    0.0470   -1.3640 h1        1 CQ2      0.048200
     32 H14        -3.3550   -1.7220   -0.9090 h1        1 CQ2      0.048200
     33 O1         -4.6570    0.6620    0.7880 o         1 CQ2     -0.821800
     34 H20         1.6370   -2.5710   -0.7600 ha        1 CQ2      0.138000
     35 H21         2.4670    0.5820    1.2240 ha        1 CQ2      0.149000
     36 H22         4.7740    1.2770    1.7000 ha        1 CQ2      0.124000
     37 H23         7.1260    0.6910    1.5240 hn        1 CQ2      0.373800
     38 H24         7.6930   -0.5520    0.5920 hn        1 CQ2      0.373800
     39 H25         6.2630   -1.9270   -0.8360 ha        1 CQ2      0.124000
     40 H26         3.9400   -2.6100   -1.3060 ha        1 CQ2      0.149000
@<TRIPOS>BOND
     1    1    2 1   
     2    1   23 1   
     3    1   24 1   
     4    1   25 1   
     5    2    3 1   
     6    2    4 1   
     7    2   26 1   
     8    3   27 1   
     9    4    5 1   
    10    4    6 1   
    11    4   28 1   
    12    5   29 1   
    13    5   30 1   
    14    6    7 2   
    15    6    8 1   
    16    7   14 1   
    17    8    9 1   
    18    8   12 1   
    19    9   10 1   
    20    9   31 1   
    21    9   32 1   
    22   10   11 1   
    23   10   33 1   
    24   12   13 2   
    25   12   14 1   
    26   14   15 2   
    27   15   16 1   
    28   15   34 1   
    29   16   17 ar  
    30   16   22 ar  
    31   17   18 ar  
    32   17   35 1   
    33   18   19 ar  
    34   18   36 1   
    35   19   20 1   
    36   19   21 ar  
    37   20   37 1   
    38   20   38 1   
    39   21   22 ar  
    40   21   39 1   
    41   22   40 1   
@<TRIPOS>SUBSTRUCTURE
     1 CQ2         1 TEMP              0 ****  ****    0 ROOT
