@<TRIPOS>MOLECULE
CQ2
   40    36     1     0     0
SMALL
bcc


@<TRIPOS>ATOM
      1 CG1        -5.0000    0.2160   -0.3180 c3        1 CQ2     -0.264000
      2 CB1        -3.5490    0.6570   -0.2400 c3        1 CQ2      0.043000
      3 OG1        -3.4350    1.9780   -0.7100 oh        1 CQ2     -0.338000
      4 CA1        -3.0820    0.5900    1.1900 c3        1 CQ2     -0.025000
      5 N1         -3.4310    1.7900    1.8540 n3        1 CQ2     -0.328000
      6 C1         -1.5590    0.4090    1.2240 c1        1 CQ2      0.102000
      7 N2         -0.7670    1.3670    0.7650 n1        1 CQ2     -0.249000
      8 N3         -1.0000   -0.8850    1.1440 n2        1 CQ2     -0.270000
      9 CA3        -1.7300   -2.1320    1.1480 c3        1 CQ2     -0.108000
     10 C3         -0.9090   -3.2030    1.8910 c2        1 CQ2      0.319000
     11 O3          0.2220   -2.9120    2.3690 o         1 CQ2     -0.558500
     12 C2          0.3680   -0.6500    0.5180 c2        1 CQ2      0.309000
     13 O2          1.3270   -1.3950    0.5980 o         1 CQ2     -0.337000
     14 CA2         0.4230    0.9200    0.3030 c1        1 CQ2     -0.083000
     15 CB2         1.4390    1.6540   -0.2260 c1        1 CQ2     -0.066000
     16 CG2         2.7110    0.9670   -0.6940 c1        1 CQ2     -0.074000
     17 CD2         3.8400    0.9740    0.1130 c2        1 CQ2     -0.089000
     18 CE2         5.0310    0.4370   -0.3550 c1        1 CQ2     -0.194000
     19 CZ          5.0930   -0.1050   -1.6280 c1        1 CQ2      0.035000
     20 NH          6.2920   -0.7080   -2.0820 n3        1 CQ2     -0.318000
     21 CE1         3.9660   -0.1120   -2.4350 c1        1 CQ2     -0.187000
     22 CD1         2.7740    0.4240   -1.9670 c1        1 CQ2     -0.056000
     23 H1         -5.1630   -0.2210   -1.1800 hc        1 CQ2      0.097333
     24 H2         -5.1930   -0.4230    0.4210 hc        1 CQ2      0.097333
     25 H3         -5.5900    1.0080   -0.2340 hc        1 CQ2      0.097333
     26 H4         -3.0010    0.0690   -0.7900 h1        1 CQ2      0.121000
     27 H5         -3.8090    2.0410   -1.5130 ho        1 CQ2      0.196000
     28 H6         -3.5090   -0.1650    1.6380 h1        1 CQ2      0.190000
     29 H7         -4.3130    1.7500    2.1160 hn        1 CQ2      0.151000
     30 H8         -2.9030    1.8970    2.5840 hn        1 CQ2      0.151000
     31 H13        -2.5930   -2.0060    1.6030 h1        1 CQ2      0.091000
     32 H14        -1.8870   -2.4220    0.2220 h1        1 CQ2      0.091000
     33 O1         -1.3770   -4.3540    2.0480 o         1 CQ2     -0.558500
     34 H20         1.3490    2.6400   -0.3060 ha        1 CQ2      0.134000
     35 H21         3.7970    1.3570    1.0120 ha        1 CQ2      0.127000
     36 H22         5.8260    0.4420    0.2140 ha        1 CQ2      0.122000
     37 H23         6.2580   -1.4530   -2.6110 hn        1 CQ2      0.169500
     38 H24         7.1010   -0.3680   -1.8240 hn        1 CQ2      0.169500
     39 H25         4.0100   -0.4910   -3.3210 ha        1 CQ2      0.129000
     40 H26         1.9730    0.4180   -2.5410 ha        1 CQ2      0.160000
@<TRIPOS>BOND
     1    1    2 1   
     2    1   23 1   
     3    1   24 1   
     4    1   25 1   
     5    2    3 1   
     6    2    4 1   
     7    2   26 1   
     8    3   27 1   
     9    4    5 1   
    10    4    6 1   
    11    4   28 1   
    12    5   29 1   
    13    5   30 1   
    14    6    7 1   
    15    8    9 1   
    16    8   12 1   
    17    9   10 1   
    18    9   31 1   
    19    9   32 1   
    20   10   11 1   
    21   10   33 1   
    22   12   13 1   
    23   12   14 1   
    24   14   15 1   
    25   15   34 1   
    26   16   17 1   
    27   16   22 1   
    28   17   18 1   
    29   17   35 1   
    30   18   36 1   
    31   19   20 1   
    32   19   21 1   
    33   20   37 1   
    34   20   38 1   
    35   21   39 1   
    36   22   40 1   
@<TRIPOS>SUBSTRUCTURE
     1 CQ2         1 TEMP              0 ****  ****    0 ROOT
