@<TRIPOS>MOLECULE
CQ3
   48    50     1     0     0
SMALL
bcc


@<TRIPOS>ATOM
      1 C           1.4120    1.2720   -0.6760 c3        1 CQ3     -0.087100
      2 N           3.6710    0.1020    2.0970 ns        1 CQ3     -0.476100
      3 O           1.4620    0.7830    2.0240 o         1 CQ3     -0.588100
      4 Cl          7.0360   -3.8900    1.3460 cl        1 CQ3     -0.076400
      5 C1          2.6960    0.7800   -0.0600 c3        1 CQ3     -0.151400
      6 N1          5.6050   -1.7780    2.9910 nu        1 CQ3     -0.734300
      7 O1         13.1690    2.3400    4.5700 os        1 CQ3     -0.414600
      8 C2          2.5360    0.5620    1.4380 c         1 CQ3      0.661100
      9 N2          9.8080   -1.6980    3.1170 nb        1 CQ3     -0.765000
     10 C3          3.7840   -0.1820    3.4670 ca        1 CQ3      0.086600
     11 N3          7.6240   -0.8630    3.8930 nb        1 CQ3     -0.793000
     12 C4          2.9450    0.4330    4.4210 ca        1 CQ3     -0.149000
     13 N4          9.6200    0.0180    4.8020 nu        1 CQ3     -0.818900
     14 C5          3.0910    0.1710    5.7770 ca        1 CQ3     -0.103000
     15 C6          4.0760   -0.7050    6.2280 ca        1 CQ3     -0.150000
     16 C7          4.9110   -1.3350    5.3130 ca        1 CQ3     -0.102000
     17 C8          4.7790   -1.1040    3.9320 ca        1 CQ3      0.060600
     18 C9          6.9980   -1.7860    3.1050 ca        1 CQ3      0.720200
     19 C10         7.7630   -2.7120    2.3160 ca        1 CQ3     -0.347200
     20 C11         9.1620   -2.5980    2.3690 ca        1 CQ3      0.498200
     21 C12         9.0100   -0.8570    3.8900 ca        1 CQ3      0.900900
     22 C13        11.0030    0.4220    4.6360 c3        1 CQ3      0.213500
     23 C14        11.5130    1.1390    5.9000 c3        1 CQ3     -0.131400
     24 C15        12.9720    1.5170    5.7140 c3        1 CQ3      0.128400
     25 C16        12.7220    1.7240    3.3670 c3        1 CQ3      0.128400
     26 C17        11.2530    1.3480    3.4320 c3        1 CQ3     -0.131400
     27 H           1.1000    2.2380   -0.2100 hc        1 CQ3      0.047700
     28 HA          1.5510    1.4250   -1.7730 hc        1 CQ3      0.047700
     29 HB          0.5910    0.5320   -0.5120 hc        1 CQ3      0.047700
     30 HN          4.4760   -0.0820    1.5400 hn        1 CQ3      0.327500
     31 H1          3.0040   -0.1860   -0.5400 hc        1 CQ3      0.063700
     32 H1A         3.5150    1.5280   -0.2350 hc        1 CQ3      0.063700
     33 HN1         5.2090   -2.6260    2.6370 hn        1 CQ3      0.438800
     34 H4          2.1560    1.1300    4.0900 ha        1 CQ3      0.170000
     35 HN4         9.0210    0.7290    5.1710 hn        1 CQ3      0.430800
     36 H5          2.4230    0.6660    6.4980 ha        1 CQ3      0.137000
     37 H6          4.1950   -0.9020    7.3030 ha        1 CQ3      0.136000
     38 H7          5.6930   -2.0200    5.6780 ha        1 CQ3      0.141000
     39 H11         9.8050   -3.2720    1.7690 h4        1 CQ3      0.037100
     40 H13        11.6240   -0.5130    4.4960 h1        1 CQ3      0.086700
     41 H14        11.4160    0.4700    6.7930 hc        1 CQ3      0.059450
     42 H14A       10.9100    2.0650    6.0880 hc        1 CQ3      0.059450
     43 H15        13.3330    2.1500    6.5690 h1        1 CQ3      0.051200
     44 H15A       13.6090    0.5960    5.6280 h1        1 CQ3      0.051200
     45 H16        13.3500    0.8190    3.1540 h1        1 CQ3      0.051200
     46 H16A       12.9020    2.5050    2.5810 h1        1 CQ3      0.051200
     47 H17        10.6330    2.2760    3.5300 hc        1 CQ3      0.059450
     48 H17A       10.9640    0.8320    2.4820 hc        1 CQ3      0.059450
@<TRIPOS>BOND
     1    1    5 1   
     2    1   27 1   
     3    1   28 1   
     4    1   29 1   
     5    2    8 1   
     6    2   10 1   
     7    2   30 1   
     8    3    8 2   
     9    4   19 1   
    10    5    8 1   
    11    5   31 1   
    12    5   32 1   
    13    6   17 1   
    14    6   18 1   
    15    6   33 1   
    16    7   24 1   
    17    7   25 1   
    18    9   20 ar  
    19    9   21 ar  
    20   10   12 ar  
    21   10   17 ar  
    22   11   18 ar  
    23   11   21 ar  
    24   12   14 ar  
    25   12   34 1   
    26   13   21 1   
    27   13   22 1   
    28   13   35 1   
    29   14   15 ar  
    30   14   36 1   
    31   15   16 ar  
    32   15   37 1   
    33   16   17 ar  
    34   16   38 1   
    35   18   19 ar  
    36   19   20 ar  
    37   20   39 1   
    38   22   23 1   
    39   22   26 1   
    40   22   40 1   
    41   23   24 1   
    42   23   41 1   
    43   23   42 1   
    44   24   43 1   
    45   24   44 1   
    46   25   26 1   
    47   25   45 1   
    48   25   46 1   
    49   26   47 1   
    50   26   48 1   
@<TRIPOS>SUBSTRUCTURE
     1 CQ3         1 TEMP              0 ****  ****    0 ROOT
