@<TRIPOS>MOLECULE
CQ3
   48    50     1     0     0
SMALL
bcc


@<TRIPOS>ATOM
      1 C           1.4110    1.2840   -0.6680 c3        1 CQ3     -0.087100
      2 N           3.6710    0.1030    2.1000 n         1 CQ3     -0.476100
      3 O           1.4620    0.7830    2.0290 o         1 CQ3     -0.588100
      4 CL          7.0380   -3.8850    1.3360 cl        1 CQ3     -0.076400
      5 C1          2.6950    0.7860   -0.0550 c3        1 CQ3     -0.151400
      6 N1          5.6060   -1.7790    2.9880 nh        1 CQ3     -0.734300
      7 O1         13.1670    2.3410    4.5710 os        1 CQ3     -0.414600
      8 C2          2.5360    0.5640    1.4420 c         1 CQ3      0.661100
      9 N2          9.8090   -1.6970    3.1110 nb        1 CQ3     -0.765000
     10 C3          3.7840   -0.1850    3.4680 ca        1 CQ3      0.086600
     11 N3          7.6240   -0.8650    3.8910 nb        1 CQ3     -0.793000
     12 C4          2.9460    0.4270    4.4250 ca        1 CQ3     -0.149000
     13 N4          9.6200    0.0150    4.8010 nh        1 CQ3     -0.818900
     14 C5          3.0920    0.1610    5.7800 ca        1 CQ3     -0.103000
     15 C6          4.0780   -0.7160    6.2280 ca        1 CQ3     -0.150000
     16 C7          4.9130   -1.3420    5.3110 ca        1 CQ3     -0.102000
     17 C8          4.7800   -1.1080    3.9310 ca        1 CQ3      0.060600
     18 C9          6.9990   -1.7860    3.1010 ca        1 CQ3      0.720200
     19 C10         7.7640   -2.7090    2.3090 ca        1 CQ3     -0.347200
     20 C11         9.1620   -2.5950    2.3610 ca        1 CQ3      0.498200
     21 C12         9.0110   -0.8580    3.8870 ca        1 CQ3      0.900900
     22 C13        11.0040    0.4210    4.6340 c3        1 CQ3      0.213500
     23 C14        11.5140    1.1350    5.9000 c3        1 CQ3     -0.131400
     24 C15        12.9730    1.5160    5.7130 c3        1 CQ3      0.128400
     25 C16        12.7190    1.7280    3.3670 c3        1 CQ3      0.128400
     26 C17        11.2510    1.3500    3.4330 c3        1 CQ3     -0.131400
     27 H           0.5880    0.5460   -0.5050 hc        1 CQ3      0.047700
     28 HA          1.5500    1.4380   -1.7650 hc        1 CQ3      0.047700
     29 HB          1.1030    2.2500   -0.2000 hc        1 CQ3      0.047700
     30 HN          4.4750   -0.0790    1.5410 hn        1 CQ3      0.327500
     31 H1          2.9990   -0.1790   -0.5390 hc        1 CQ3      0.063700
     32 H1A         3.5150    1.5320   -0.2280 hc        1 CQ3      0.063700
     33 HN1         5.2100   -2.6260    2.6320 hn        1 CQ3      0.438800
     34 H4          2.1560    1.1240    4.0960 ha        1 CQ3      0.170000
     35 HN4         9.0210    0.7250    5.1720 hn        1 CQ3      0.430800
     36 H5          2.4240    0.6540    6.5020 ha        1 CQ3      0.137000
     37 H6          4.1970   -0.9150    7.3030 ha        1 CQ3      0.136000
     38 H7          5.6950   -2.0280    5.6740 ha        1 CQ3      0.141000
     39 H11         9.8060   -3.2660    1.7600 h4        1 CQ3      0.037100
     40 H13        11.6250   -0.5130    4.4910 h1        1 CQ3      0.086700
     41 H14        10.9100    2.0600    6.0910 hc        1 CQ3      0.059450
     42 H14A       11.4180    0.4640    6.7910 hc        1 CQ3      0.059450
     43 H15        13.3330    2.1460    6.5690 h1        1 CQ3      0.051200
     44 H15A       13.6100    0.5950    5.6240 h1        1 CQ3      0.051200
     45 H16        13.3480    0.8240    3.1510 h1        1 CQ3      0.051200
     46 H16A       12.8980    2.5110    2.5820 h1        1 CQ3      0.051200
     47 H17        10.9610    0.8370    2.4810 hc        1 CQ3      0.059450
     48 H17A       10.6300    2.2780    3.5340 hc        1 CQ3      0.059450
@<TRIPOS>BOND
     1    1    5 1   
     2    1   27 1   
     3    1   28 1   
     4    1   29 1   
     5    2    8 1   
     6    2   10 1   
     7    2   30 1   
     8    3    8 2   
     9    4   19 1   
    10    5    8 1   
    11    5   31 1   
    12    5   32 1   
    13    6   17 1   
    14    6   18 1   
    15    6   33 1   
    16    7   24 1   
    17    7   25 1   
    18    9   20 ar  
    19    9   21 ar  
    20   10   12 ar  
    21   10   17 ar  
    22   11   18 ar  
    23   11   21 ar  
    24   12   14 ar  
    25   12   34 1   
    26   13   21 1   
    27   13   22 1   
    28   13   35 1   
    29   14   15 ar  
    30   14   36 1   
    31   15   16 ar  
    32   15   37 1   
    33   16   17 ar  
    34   16   38 1   
    35   18   19 ar  
    36   19   20 ar  
    37   20   39 1   
    38   22   23 1   
    39   22   26 1   
    40   22   40 1   
    41   23   24 1   
    42   23   41 1   
    43   23   42 1   
    44   24   43 1   
    45   24   44 1   
    46   25   26 1   
    47   25   45 1   
    48   25   46 1   
    49   26   47 1   
    50   26   48 1   
@<TRIPOS>SUBSTRUCTURE
     1 CQ3         1 TEMP              0 ****  ****    0 ROOT
