@<TRIPOS>MOLECULE
CQ6
   44    46     1     0     0
SMALL
bcc


@<TRIPOS>ATOM
      1 C           0.0410   -0.2050    0.1570 c3        1 CQ6     -0.077100
      2 N           3.7420    0.0480    1.5730 n3        1 CQ6     -0.820500
      3 O           1.6580    1.1670    2.3690 o         1 CQ6     -0.646800
      4 S           2.1280   -0.0320    1.7930 s6        1 CQ6      1.446900
      5 C1          1.5440   -0.1120    0.1730 c3        1 CQ6     -0.308600
      6 N1          8.2070   -0.8810    3.8010 nb        1 CQ6     -0.737000
      7 O1          1.7820   -1.2350    2.4430 o         1 CQ6     -0.646800
      8 C2          4.4520    1.3010    1.5250 c3        1 CQ6      0.221800
      9 N2          6.5400   -2.1710    2.5320 nb        1 CQ6     -0.749000
     10 O2         10.8680   -4.8040    6.4990 os        1 CQ6     -0.414600
     11 C3          5.4940    1.4580    2.6360 c3        1 CQ6     -0.030100
     12 N3          8.5120   -3.2320    3.3310 nu        1 CQ6     -0.813900
     13 C4          6.2720    0.2180    2.8390 ca        1 CQ6     -0.358900
     14 C5          7.4740    0.2150    3.5770 ca        1 CQ6      0.466200
     15 C6          7.7280   -2.0670    3.2490 ca        1 CQ6      0.867900
     16 C7          5.8450   -1.0320    2.3360 ca        1 CQ6      0.470600
     17 C8          4.5690   -1.1280    1.5150 c3        1 CQ6      0.165500
     18 C9          9.5010   -3.3780    4.3840 c3        1 CQ6      0.208500
     19 C10        10.4020   -4.5980    4.1130 c3        1 CQ6     -0.131400
     20 C11        11.4520   -4.7040    5.2060 c3        1 CQ6      0.128400
     21 C12        10.0270   -3.6980    6.8090 c3        1 CQ6      0.128400
     22 C13         8.9090   -3.5310    5.7960 c3        1 CQ6     -0.131400
     23 H          -0.3350   -0.2580   -0.8930 hc        1 CQ6      0.054700
     24 HA         -0.4120    0.6930    0.6470 hc        1 CQ6      0.054700
     25 HB         -0.3000   -1.1230    0.6990 hc        1 CQ6      0.054700
     26 H1          1.9620   -0.9960   -0.3750 h1        1 CQ6      0.106700
     27 H1A         1.8520    0.7870   -0.4220 h1        1 CQ6      0.106700
     28 H2          4.9740    1.3850    0.5280 h1        1 CQ6      0.059200
     29 H2A         3.7080    2.1460    1.6070 h1        1 CQ6      0.059200
     30 H3          6.1750    2.3070    2.3620 hc        1 CQ6      0.061700
     31 H3A         4.9820    1.7350    3.5980 hc        1 CQ6      0.061700
     32 HN3         8.0210   -4.0760    3.1150 hn        1 CQ6      0.423800
     33 H5          7.8690    1.1510    4.0160 h4        1 CQ6      0.028100
     34 H8          4.8790   -1.3130    0.4430 h1        1 CQ6      0.081200
     35 H8A         3.9650   -2.0180    1.8700 h1        1 CQ6      0.081200
     36 H9         10.1570   -2.4570    4.3750 h1        1 CQ6      0.086700
     37 H10        10.9110   -4.4930    3.1220 hc        1 CQ6      0.059200
     38 H10A        9.7870   -5.5340    4.0950 hc        1 CQ6      0.059200
     39 H11        12.0420   -5.6530    5.1010 h1        1 CQ6      0.051450
     40 H11A       12.1440   -3.8210    5.1740 h1        1 CQ6      0.051450
     41 H12         9.6150   -3.9470    7.8240 h1        1 CQ6      0.051450
     42 H12A       10.6450   -2.7630    6.8700 h1        1 CQ6      0.051450
     43 H13         8.2350   -4.4260    5.8320 hc        1 CQ6      0.059200
     44 H13A        8.3050   -2.6270    6.0620 hc        1 CQ6      0.059200
@<TRIPOS>BOND
     1    1    5 1   
     2    1   23 1   
     3    1   24 1   
     4    1   25 1   
     5    2    4 1   
     6    2    8 1   
     7    2   17 1   
     8    3    4 2   
     9    4    5 1   
    10    4    7 2   
    11    5   26 1   
    12    5   27 1   
    13    6   14 ar  
    14    6   15 ar  
    15    8   11 1   
    16    8   28 1   
    17    8   29 1   
    18    9   15 ar  
    19    9   16 ar  
    20   10   20 1   
    21   10   21 1   
    22   11   13 1   
    23   11   30 1   
    24   11   31 1   
    25   12   15 1   
    26   12   18 1   
    27   12   32 1   
    28   13   14 ar  
    29   13   16 ar  
    30   14   33 1   
    31   16   17 1   
    32   17   34 1   
    33   17   35 1   
    34   18   19 1   
    35   18   22 1   
    36   18   36 1   
    37   19   20 1   
    38   19   37 1   
    39   19   38 1   
    40   20   39 1   
    41   20   40 1   
    42   21   22 1   
    43   21   41 1   
    44   21   42 1   
    45   22   43 1   
    46   22   44 1   
@<TRIPOS>SUBSTRUCTURE
     1 CQ6         1 TEMP              0 ****  ****    0 ROOT
