@<TRIPOS>MOLECULE
CQ6
   44    46     1     0     0
SMALL
bcc


@<TRIPOS>ATOM
      1 C           0.0420   -0.2000    0.1570 c3        1 CQ6     -0.077100
      2 N           3.7430    0.0500    1.5750 n3        1 CQ6     -0.820500
      3 O           1.6580    1.1670    2.3720 o         1 CQ6     -0.646800
      4 S           2.1280   -0.0310    1.7940 s6        1 CQ6      1.446900
      5 C1          1.5450   -0.1070    0.1730 c3        1 CQ6     -0.308600
      6 N1          8.2060   -0.8820    3.8030 nb        1 CQ6     -0.737000
      7 O1          1.7820   -1.2350    2.4410 o         1 CQ6     -0.646800
      8 C2          4.4520    1.3030    1.5290 c3        1 CQ6      0.221800
      9 N2          6.5410   -2.1710    2.5310 nb        1 CQ6     -0.749000
     10 O2         10.8670   -4.8090    6.4960 os        1 CQ6     -0.414600
     11 C3          5.4940    1.4580    2.6410 c3        1 CQ6     -0.030100
     12 N3          8.5130   -3.2320    3.3290 nh        1 CQ6     -0.813900
     13 C4          6.2720    0.2180    2.8420 ca        1 CQ6     -0.358900
     14 C5          7.4740    0.2150    3.5800 ca        1 CQ6      0.466200
     15 C6          7.7280   -2.0670    3.2480 ca        1 CQ6      0.867900
     16 C7          5.8450   -1.0310    2.3370 ca        1 CQ6      0.470600
     17 C8          4.5690   -1.1260    1.5150 c3        1 CQ6      0.165500
     18 C9          9.5010   -3.3810    4.3830 c3        1 CQ6      0.208500
     19 C10        10.4020   -4.5990    4.1100 c3        1 CQ6     -0.131400
     20 C11        11.4510   -4.7070    5.2030 c3        1 CQ6      0.128400
     21 C12        10.0250   -3.7040    6.8080 c3        1 CQ6      0.128400
     22 C13         8.9080   -3.5360    5.7940 c3        1 CQ6     -0.131400
     23 H          -0.4110    0.6970    0.6480 hc        1 CQ6      0.054700
     24 HA         -0.2990   -1.1190    0.6960 hc        1 CQ6      0.054700
     25 HB         -0.3340   -0.2510   -0.8930 hc        1 CQ6      0.054700
     26 H1          1.8530    0.7930   -0.4200 h1        1 CQ6      0.106700
     27 H1A         1.9630   -0.9900   -0.3770 h1        1 CQ6      0.106700
     28 H2          3.7080    2.1480    1.6120 h1        1 CQ6      0.059200
     29 H2A         4.9750    1.3890    0.5320 h1        1 CQ6      0.059200
     30 H3          4.9810    1.7340    3.6030 hc        1 CQ6      0.061700
     31 H3A         6.1750    2.3080    2.3690 hc        1 CQ6      0.061700
     32 HN3         8.0210   -4.0760    3.1110 hn        1 CQ6      0.423800
     33 H5          7.8680    1.1490    4.0210 h4        1 CQ6      0.028100
     34 H8          3.9660   -2.0160    1.8680 h1        1 CQ6      0.081200
     35 H8A         4.8800   -1.3080    0.4420 h1        1 CQ6      0.081200
     36 H9         10.1570   -2.4580    4.3750 h1        1 CQ6      0.086700
     37 H10        10.9120   -4.4920    3.1190 hc        1 CQ6      0.059200
     38 H10A        9.7880   -5.5360    4.0890 hc        1 CQ6      0.059200
     39 H11        12.1430   -3.8240    5.1730 h1        1 CQ6      0.051450
     40 H11A       12.0420   -5.6560    5.0960 h1        1 CQ6      0.051450
     41 H12         9.6130   -3.9550    7.8210 h1        1 CQ6      0.051450
     42 H12A       10.6430   -2.7690    6.8700 h1        1 CQ6      0.051450
     43 H13         8.2340   -4.4310    5.8280 hc        1 CQ6      0.059200
     44 H13A        8.3040   -2.6320    6.0610 hc        1 CQ6      0.059200
@<TRIPOS>BOND
     1    1    5 1   
     2    1   23 1   
     3    1   24 1   
     4    1   25 1   
     5    2    4 1   
     6    2    8 1   
     7    2   17 1   
     8    3    4 2   
     9    4    5 1   
    10    4    7 2   
    11    5   26 1   
    12    5   27 1   
    13    6   14 ar  
    14    6   15 ar  
    15    8   11 1   
    16    8   28 1   
    17    8   29 1   
    18    9   15 ar  
    19    9   16 ar  
    20   10   20 1   
    21   10   21 1   
    22   11   13 1   
    23   11   30 1   
    24   11   31 1   
    25   12   15 1   
    26   12   18 1   
    27   12   32 1   
    28   13   14 ar  
    29   13   16 ar  
    30   14   33 1   
    31   16   17 1   
    32   17   34 1   
    33   17   35 1   
    34   18   19 1   
    35   18   22 1   
    36   18   36 1   
    37   19   20 1   
    38   19   37 1   
    39   19   38 1   
    40   20   39 1   
    41   20   40 1   
    42   21   22 1   
    43   21   41 1   
    44   21   42 1   
    45   22   43 1   
    46   22   44 1   
@<TRIPOS>SUBSTRUCTURE
     1 CQ6         1 TEMP              0 ****  ****    0 ROOT
