@<TRIPOS>MOLECULE
CQ8
   47    49     1     0     0
SMALL
bcc


@<TRIPOS>ATOM
      1 CL          0.3400   -0.0980   -0.0740 cl        1 CQ8     -0.046400
      2 C12         2.0130    0.0770    0.0840 ca        1 CQ8     -0.214900
      3 C8          2.6440    0.1650    1.3440 ca        1 CQ8      0.156600
      4 N1          1.8600    0.2350    2.5200 nh        1 CQ8     -0.652000
      5 C7          2.5150    0.0940    3.7780 ca        1 CQ8      0.140600
      6 C6          2.7770   -1.1720    4.3350 ca        1 CQ8     -0.146000
      7 C5          3.3450   -1.2900    5.6020 ca        1 CQ8     -0.052000
      8 C4          3.6570   -0.1520    6.3450 ca        1 CQ8     -0.123000
      9 C3          3.3940    1.1100    5.8210 ca        1 CQ8     -0.052000
     10 C2          2.8340    1.2470    4.5390 ca        1 CQ8     -0.190600
     11 C1          2.5320    2.6210    4.1170 c         1 CQ8      0.580700
     12 O           2.1450    3.5420    4.8240 o         1 CQ8     -0.422100
     13 N           2.7550    2.9610    2.6560 n4        1 CQ8     -0.667800
     14 C           3.0740    4.3880    2.4370 c3        1 CQ8      0.081100
     15 C11         2.8240    0.1230   -1.0730 ca        1 CQ8      0.492200
     16 N2          4.1450    0.2660   -1.0640 nb        1 CQ8     -0.713000
     17 C10         4.7840    0.3620    0.1600 ca        1 CQ8      0.685200
     18 C9          4.0480    0.2960    1.3790 ca        1 CQ8     -0.406300
     19 N3          6.1530    0.6360    0.1590 nh        1 CQ8     -0.827900
     20 C13         7.0000    0.1430    1.2330 c3        1 CQ8      0.203500
     21 C17         8.4600    0.5900    1.0310 c3        1 CQ8     -0.133900
     22 C16         9.3050    0.1020    2.1960 c3        1 CQ8      0.126900
     23 O1          9.2350   -1.3100    2.3490 os        1 CQ8     -0.396600
     24 C15         7.9100   -1.7810    2.5490 c3        1 CQ8      0.126900
     25 C14         6.9880   -1.3840    1.4080 c3        1 CQ8     -0.133900
     26 H11         2.3620    0.0310   -2.0790 h4        1 CQ8      0.059100
     27 H1          1.0260   -0.3270    2.4660 hn        1 CQ8      0.443800
     28 H9          4.5800    0.2720    2.3410 ha        1 CQ8      0.152000
     29 H6          2.5260   -2.0850    3.7680 ha        1 CQ8      0.168000
     30 H5          3.5410   -2.2930    6.0200 ha        1 CQ8      0.170000
     31 H4          4.0990   -0.2470    7.3510 ha        1 CQ8      0.173000
     32 H3          3.6130    2.0130    6.4170 ha        1 CQ8      0.169000
     33 H           1.8940    2.7220    2.1430 hn        1 CQ8      0.474300
     34 HC1         4.0370    4.6400    2.9570 hx        1 CQ8      0.109700
     35 HC2         2.2520    5.0290    2.8580 hx        1 CQ8      0.109700
     36 HC3         3.1760    4.5750    1.3340 hx        1 CQ8      0.109700
     37 HA          6.5920    0.5970   -0.7440 hn        1 CQ8      0.437800
     38 H13         6.6280    0.6120    2.1930 h1        1 CQ8      0.044700
     39 H171        8.8620    0.1610    0.0760 hc        1 CQ8      0.065950
     40 H172        8.5240    1.7050    0.9680 hc        1 CQ8      0.065950
     41 H141        5.9500   -1.7410    1.6270 hc        1 CQ8      0.065950
     42 H142        7.3350   -1.8770    0.4630 hc        1 CQ8      0.065950
     43 H161        8.9860    0.6010    3.1500 h1        1 CQ8      0.055700
     44 H162       10.3940    0.3010    2.0080 h1        1 CQ8      0.055700
     45 H151        8.0230   -2.8970    2.6030 h1        1 CQ8      0.055700
     46 H152        7.5150   -1.3910    3.5260 h1        1 CQ8      0.055700
     47 HN3         3.5160    2.3690    2.2870 hn        1 CQ8      0.474300
@<TRIPOS>BOND
     1    1    2 1   
     2    2    3 ar  
     3    2   15 ar  
     4    3    4 1   
     5    3   18 ar  
     6    4    5 1   
     7    4   27 1   
     8    5    6 ar  
     9    5   10 ar  
    10    6    7 ar  
    11    6   29 1   
    12    7    8 ar  
    13    7   30 1   
    14    8    9 ar  
    15    8   31 1   
    16    9   10 ar  
    17    9   32 1   
    18   10   11 1   
    19   11   12 2   
    20   11   13 1   
    21   13   14 1   
    22   13   33 1   
    23   13   47 1   
    24   14   34 1   
    25   14   35 1   
    26   14   36 1   
    27   15   16 ar  
    28   15   26 1   
    29   16   17 ar  
    30   17   18 ar  
    31   17   19 1   
    32   18   28 1   
    33   19   20 1   
    34   19   37 1   
    35   20   21 1   
    36   20   25 1   
    37   20   38 1   
    38   21   22 1   
    39   21   39 1   
    40   21   40 1   
    41   22   23 1   
    42   22   43 1   
    43   22   44 1   
    44   23   24 1   
    45   24   25 1   
    46   24   45 1   
    47   24   46 1   
    48   25   41 1   
    49   25   42 1   
@<TRIPOS>SUBSTRUCTURE
     1 CQ8         1 TEMP              0 ****  ****    0 ROOT
