@<TRIPOS>MOLECULE
CQ8
   47    49     1     0     0
SMALL
bcc


@<TRIPOS>ATOM
      1 Cl          0.3480   -0.0420   -0.1010 cl        1 CQ8     -0.046400
      2 C12         2.0210    0.1180    0.0670 ca        1 CQ8     -0.214900
      3 C8          2.6460    0.1910    1.3310 ca        1 CQ8      0.156600
      4 N1          1.8570    0.2570    2.5030 nu        1 CQ8     -0.652000
      5 C7          2.5050    0.0990    3.7630 ca        1 CQ8      0.140600
      6 C6          2.7540   -1.1740    4.3090 ca        1 CQ8     -0.146000
      7 C5          3.3140   -1.3090    5.5790 ca        1 CQ8     -0.052000
      8 C4          3.6320   -0.1800    6.3330 ca        1 CQ8     -0.123000
      9 C3          3.3820    1.0890    5.8190 ca        1 CQ8     -0.052000
     10 C2          2.8290    1.2420    4.5360 ca        1 CQ8     -0.190600
     11 C1          2.5400    2.6220    4.1250 c         1 CQ8      0.580700
     12 O           2.1570    3.5390    4.8390 o         1 CQ8     -0.422100
     13 N           2.7730    2.9740    2.6690 ny        1 CQ8     -0.667800
     14 C           3.1050    4.4000    2.4640 c3        1 CQ8      0.081100
     15 C11         2.8380    0.1690   -1.0860 ca        1 CQ8      0.492200
     16 N2          4.1610    0.3010   -1.0690 nb        1 CQ8     -0.713000
     17 C10         4.7940    0.3810    0.1580 ca        1 CQ8      0.685200
     18 C9          4.0520    0.3100    1.3730 ca        1 CQ8     -0.406300
     19 N3          6.1650    0.6450    0.1660 nu        1 CQ8     -0.827900
     20 C13         7.0030    0.1360    1.2410 c3        1 CQ8      0.203500
     21 C17         8.4670    0.5720    1.0490 c3        1 CQ8     -0.133900
     22 C16         9.3020    0.0680    2.2140 c3        1 CQ8      0.126900
     23 O1          9.2200   -1.3440    2.3560 os        1 CQ8     -0.396600
     24 C15         7.8900   -1.8060    2.5450 c3        1 CQ8      0.126900
     25 C14         6.9780   -1.3930    1.4030 c3        1 CQ8     -0.133900
     26 H11         2.3800    0.0890   -2.0950 h4        1 CQ8      0.059100
     27 H1          1.0190   -0.2980    2.4400 hn        1 CQ8      0.443800
     28 H9          4.5780    0.2740    2.3380 ha        1 CQ8      0.152000
     29 H6          2.4980   -2.0800    3.7320 ha        1 CQ8      0.168000
     30 H5          3.5010   -2.3170    5.9880 ha        1 CQ8      0.170000
     31 H4          4.0690   -0.2880    7.3400 ha        1 CQ8      0.173000
     32 H3          3.6050    1.9840    6.4250 ha        1 CQ8      0.169000
     33 H           1.9130    2.7460    2.1490 hn        1 CQ8      0.474300
     34 HC1         2.2860    5.0430    2.8880 hx        1 CQ8      0.109700
     35 HC2         3.2140    4.5970    1.3640 hx        1 CQ8      0.109700
     36 HC3         4.0670    4.6400    2.9910 hx        1 CQ8      0.109700
     37 HA          6.6080    0.6100   -0.7340 hn        1 CQ8      0.438800
     38 H13         6.6300    0.6000    2.2030 h1        1 CQ8      0.044700
     39 H171        8.8700    0.1470    0.0930 hc        1 CQ8      0.065950
     40 H172        8.5410    1.6880    0.9960 hc        1 CQ8      0.065950
     41 H141        5.9350   -1.7430    1.6140 hc        1 CQ8      0.065950
     42 H142        7.3250   -1.8810    0.4560 hc        1 CQ8      0.065950
     43 H161        8.9830    0.5620    3.1700 h1        1 CQ8      0.055700
     44 H162       10.3940    0.2590    2.0330 h1        1 CQ8      0.055700
     45 H151        7.9940   -2.9240    2.5900 h1        1 CQ8      0.055700
     46 H152        7.4940   -1.4210    3.5230 h1        1 CQ8      0.055700
     47 HN3         3.5310    2.3800    2.2980 hn        1 CQ8      0.474300
@<TRIPOS>BOND
     1    1    2 1   
     2    2    3 ar  
     3    2   15 ar  
     4    3    4 1   
     5    3   18 ar  
     6    4    5 1   
     7    4   27 1   
     8    5    6 ar  
     9    5   10 ar  
    10    6    7 ar  
    11    6   29 1   
    12    7    8 ar  
    13    7   30 1   
    14    8    9 ar  
    15    8   31 1   
    16    9   10 ar  
    17    9   32 1   
    18   10   11 1   
    19   11   12 2   
    20   11   13 1   
    21   13   14 1   
    22   13   33 1   
    23   13   47 1   
    24   14   34 1   
    25   14   35 1   
    26   14   36 1   
    27   15   16 ar  
    28   15   26 1   
    29   16   17 ar  
    30   17   18 ar  
    31   17   19 1   
    32   18   28 1   
    33   19   20 1   
    34   19   37 1   
    35   20   21 1   
    36   20   25 1   
    37   20   38 1   
    38   21   22 1   
    39   21   39 1   
    40   21   40 1   
    41   22   23 1   
    42   22   43 1   
    43   22   44 1   
    44   23   24 1   
    45   24   25 1   
    46   24   45 1   
    47   24   46 1   
    48   25   41 1   
    49   25   42 1   
@<TRIPOS>SUBSTRUCTURE
     1 CQ8         1 TEMP              0 ****  ****    0 ROOT
