@<TRIPOS>MOLECULE
CQA
   47    43     1     0     0
SMALL
bcc


@<TRIPOS>ATOM
      1 C1         -6.5130   -0.9910   -0.4380 c1        1 CQA     -0.050000
      2 C2         -5.3660   -0.9710   -1.2470 c1        1 CQA     -0.115500
      3 C3         -4.1020   -1.0280   -0.6630 c1        1 CQA     -0.115500
      4 C4         -3.9720   -1.1070    0.7570 c1        1 CQA     -0.110000
      5 C5         -5.0850   -1.1270    1.5420 c1        1 CQA      0.031000
      6 C6         -6.3860   -1.0690    0.9450 c1        1 CQA     -0.103000
      7 C7         -2.7020   -1.1640    1.3430 c2        1 CQA      0.124000
      8 C8         -2.5790   -1.2400    2.7000 c1        1 CQA     -0.265000
      9 C9         -3.7260   -1.2610    3.5070 c1        1 CQA     -0.018000
     10 N1         -4.9580   -1.2050    2.9370 n2        1 CQA     -0.159000
     11 CL         -7.8840   -1.1430   -1.5390 cl        1 CQA     -0.011000
     12 N2         -1.7850   -0.3400    0.5820 n3        1 CQA     -0.250000
     13 C10        -0.4830   -0.8340    0.2470 c2        1 CQA      0.003000
     14 C11        -0.1890   -2.1770    0.4150 c2        1 CQA     -0.101000
     15 C12         1.0670   -2.6780    0.0140 c1        1 CQA     -0.199000
     16 C13         2.0100   -1.8240   -0.5480 c1        1 CQA      0.070000
     17 C14         1.7110   -0.4640   -0.7180 c1        1 CQA     -0.077000
     18 C15         0.4720    0.0310   -0.3230 c1        1 CQA     -0.117000
     19 O           3.3280   -2.3380   -0.9300 oh        1 CQA     -0.252000
     20 C16         2.7410    0.4770   -1.3970 c3        1 CQA     -0.031000
     21 N3          3.2350    1.4040   -0.4390 n3        1 CQA     -0.256000
     22 C17         4.6290    1.1520   -0.1990 c3        1 CQA     -0.071500
     23 C18         5.4660    1.6840   -1.3930 c3        1 CQA     -0.231000
     24 C19         3.0590    2.7960   -0.9400 c3        1 CQA     -0.071500
     25 C20         2.1680    3.5900    0.0460 c3        1 CQA     -0.231000
     26 H2         -5.4520   -0.9160   -2.2160 ha        1 CQA      0.141500
     27 H3         -3.2880   -1.0130   -1.2370 ha        1 CQA      0.141500
     28 H6         -7.1990   -1.0830    1.5200 ha        1 CQA      0.167000
     29 H8         -1.6840   -1.2800    3.1110 ha        1 CQA      0.154000
     30 H9         -3.6380   -1.3150    4.5050 ha        1 CQA      0.159000
     31 HN2        -2.0550    0.4940    0.2800 hn        1 CQA      0.218000
     32 H11        -0.8760   -2.7970    0.8250 ha        1 CQA      0.149000
     33 H12         1.2770   -3.6340    0.1330 ha        1 CQA      0.138000
     34 H15         0.2650    0.9750   -0.4390 ha        1 CQA      0.151000
     35 HO          3.5740   -2.9610   -0.3640 ho        1 CQA      0.220000
     36 H161        3.5080   -0.0700   -1.7630 h1        1 CQA      0.089000
     37 H162        2.3070    0.9630   -2.1300 h1        1 CQA      0.089000
     38 H171        4.7760    0.1760   -0.0990 h1        1 CQA      0.079250
     39 H172        4.9020    1.6060    0.6150 h1        1 CQA      0.079250
     40 H181        6.3470    1.2440   -1.4010 hc        1 CQA      0.078833
     41 H182        5.5830    2.6470   -1.3030 hc        1 CQA      0.078833
     42 H183        4.9940    1.4890   -2.2360 hc        1 CQA      0.078833
     43 H191        3.9190    3.2210   -1.0070 h1        1 CQA      0.079250
     44 H192        2.6420    2.7780   -1.8060 h1        1 CQA      0.079250
     45 H201        2.6940    3.8370    0.8340 hc        1 CQA      0.078833
     46 H202        1.8250    4.4230   -0.4030 hc        1 CQA      0.078833
     47 H203        1.4220    3.0420    0.3170 hc        1 CQA      0.078833
@<TRIPOS>BOND
     1    1    6 1   
     2    1   11 1   
     3    2    3 1   
     4    2   26 1   
     5    3   27 1   
     6    4    5 1   
     7    4    7 1   
     8    5   10 1   
     9    6   28 1   
    10    7    8 1   
    11    7   12 1   
    12    8   29 1   
    13    9   10 1   
    14    9   30 1   
    15   12   13 1   
    16   12   31 1   
    17   13   14 1   
    18   13   18 1   
    19   14   15 1   
    20   14   32 1   
    21   15   33 1   
    22   16   17 1   
    23   16   19 1   
    24   17   20 1   
    25   18   34 1   
    26   19   35 1   
    27   20   21 1   
    28   20   36 1   
    29   20   37 1   
    30   21   22 1   
    31   21   24 1   
    32   22   23 1   
    33   22   38 1   
    34   22   39 1   
    35   23   40 1   
    36   23   41 1   
    37   23   42 1   
    38   24   25 1   
    39   24   43 1   
    40   24   44 1   
    41   25   45 1   
    42   25   46 1   
    43   25   47 1   
@<TRIPOS>SUBSTRUCTURE
     1 CQA         1 TEMP              0 ****  ****    0 ROOT
