@<TRIPOS>MOLECULE
CQA
   48    50     1     0     0
SMALL
bcc


@<TRIPOS>ATOM
      1 C1          0.4700   -1.0020   -0.2640 ca        1 CQA      0.027400
      2 C2          1.8100   -0.6050   -0.0180 ca        1 CQA     -0.109000
      3 C3          2.1720   -0.1500    1.2250 ca        1 CQA     -0.119000
      4 C4          1.2290   -0.0660    2.2810 ca        1 CQA     -0.168300
      5 C5         -0.1170   -0.4840    2.0400 ca        1 CQA      0.417600
      6 C6         -0.4760   -0.9500    0.7340 ca        1 CQA     -0.155300
      7 C7          1.5540    0.4190    3.6040 ca        1 CQA      0.172600
      8 C8          0.5560    0.4280    4.5700 ca        1 CQA     -0.280300
      9 C9         -0.7480   -0.0310    4.2180 ca        1 CQA      0.430200
     10 N1         -1.0910   -0.4640    3.0210 nb        1 CQA     -0.646000
     11 Cl          0.0520   -1.5490   -1.8130 cl        1 CQA     -0.060400
     12 N2          2.8300    0.9480    3.8760 nu        1 CQA     -0.639000
     13 C10         3.6070    0.5610    4.9660 ca        1 CQA      0.169600
     14 C11         3.2000   -0.4410    5.8850 ca        1 CQA     -0.118000
     15 C12         3.9770   -0.7520    6.9890 ca        1 CQA     -0.147000
     16 C13         5.1910   -0.0830    7.2020 ca        1 CQA      0.087100
     17 C14         5.6330    0.8930    6.2950 ca        1 CQA     -0.157300
     18 C15         4.8420    1.2160    5.1910 ca        1 CQA     -0.150000
     19 O           5.9910   -0.3220    8.3020 oh        1 CQA     -0.546100
     20 C16         6.9660    1.5360    6.4750 c3        1 CQA      0.187100
     21 N3          7.0530    2.3420    7.7430 nx        1 CQA     -0.692400
     22 C17         8.4780    2.6930    8.0540 c3        1 CQA      0.110300
     23 C18         9.2680    1.5500    8.6580 c3        1 CQA     -0.130100
     24 C19         6.2010    3.5730    7.6500 c3        1 CQA      0.110300
     25 C20         5.8010    4.1360    8.9970 c3        1 CQA     -0.130100
     26 H2          2.5490   -0.6680   -0.8320 ha        1 CQA      0.157000
     27 H3          3.2220    0.1370    1.3890 ha        1 CQA      0.125000
     28 H6         -1.5180   -1.2630    0.5470 ha        1 CQA      0.177000
     29 H8          0.7320    0.7970    5.5900 ha        1 CQA      0.150000
     30 H9         -1.5470   -0.0250    4.9850 h4        1 CQA      0.035100
     31 HN2         3.3300    1.3020    3.0880 hn        1 CQA      0.440800
     32 H11         2.2570   -0.9910    5.7200 ha        1 CQA      0.172000
     33 H12         3.6470   -1.5330    7.6920 ha        1 CQA      0.159000
     34 H15         5.1970    1.9820    4.4840 ha        1 CQA      0.145000
     35 HO          5.6790   -1.1310    8.7350 ho        1 CQA      0.453000
     36 H161        7.2080    2.2200    5.6140 hx        1 CQA      0.103700
     37 H162        7.7550    0.7290    6.5430 hx        1 CQA      0.103700
     38 H171        8.9640    3.0420    7.0990 hx        1 CQA      0.099700
     39 H172        8.4620    3.5580    8.7800 hx        1 CQA      0.099700
     40 H181       10.2880    1.9330    8.9150 hc        1 CQA      0.075200
     41 H182        9.3850    0.7000    7.9430 hc        1 CQA      0.075200
     42 H183        8.7910    1.1680    9.5940 hc        1 CQA      0.075200
     43 H191        6.7710    4.3420    7.0560 hx        1 CQA      0.099700
     44 H192        5.2710    3.2920    7.0710 hx        1 CQA      0.099700
     45 H201        5.2320    3.3890    9.6040 hc        1 CQA      0.075200
     46 H202        6.6830    4.4840    9.5870 hc        1 CQA      0.075200
     47 H203        5.1330    5.0180    8.8180 hc        1 CQA      0.075200
     48 H31         6.6900    1.7530    8.5110 hn        1 CQA      0.465800
@<TRIPOS>BOND
     1    1    2 ar  
     2    1    6 ar  
     3    1   11 1   
     4    2    3 ar  
     5    2   26 1   
     6    3    4 ar  
     7    3   27 1   
     8    4    5 ar  
     9    4    7 ar  
    10    5    6 ar  
    11    5   10 ar  
    12    6   28 1   
    13    7    8 ar  
    14    7   12 1   
    15    8    9 ar  
    16    8   29 1   
    17    9   10 ar  
    18    9   30 1   
    19   12   13 1   
    20   12   31 1   
    21   13   14 ar  
    22   13   18 ar  
    23   14   15 ar  
    24   14   32 1   
    25   15   16 ar  
    26   15   33 1   
    27   16   17 ar  
    28   16   19 1   
    29   17   18 ar  
    30   17   20 1   
    31   18   34 1   
    32   19   35 1   
    33   20   21 1   
    34   20   36 1   
    35   20   37 1   
    36   21   22 1   
    37   21   24 1   
    38   21   48 1   
    39   22   23 1   
    40   22   38 1   
    41   22   39 1   
    42   23   40 1   
    43   23   41 1   
    44   23   42 1   
    45   24   25 1   
    46   24   43 1   
    47   24   44 1   
    48   25   45 1   
    49   25   46 1   
    50   25   47 1   
@<TRIPOS>SUBSTRUCTURE
     1 CQA         1 TEMP              0 ****  ****    0 ROOT
