@<TRIPOS>MOLECULE
CQA
   47    49     1     0     0
SMALL
bcc


@<TRIPOS>ATOM
      1 C1          5.5920   -0.7700   -0.3740 ca        1 CQA      0.028400
      2 C2          4.6600   -1.0360   -1.4070 ca        1 CQA     -0.134000
      3 C3          3.3630   -0.6030   -1.2820 ca        1 CQA     -0.098000
      4 C4          2.9290    0.1060   -0.1330 ca        1 CQA     -0.177300
      5 C5          3.8750    0.3910    0.9000 ca        1 CQA      0.424600
      6 C6          5.2230   -0.0730    0.7520 ca        1 CQA     -0.167300
      7 C7          1.5670    0.5720    0.0470 ca        1 CQA      0.204600
      8 C8          1.2710    1.2790    1.2110 ca        1 CQA     -0.330300
      9 C9          2.3010    1.5170    2.1600 ca        1 CQA      0.448200
     10 N1          3.5490    1.1000    2.0400 nb        1 CQA     -0.687000
     11 CL          7.1900   -1.3250   -0.5520 cl        1 CQA     -0.089400
     12 N2          0.6240    0.3450   -0.9600 nh        1 CQA     -0.617000
     13 C10        -0.7320    0.7190   -0.8030 ca        1 CQA      0.077600
     14 C11        -1.0890    2.0790   -0.6560 ca        1 CQA     -0.099000
     15 C12        -2.4220    2.4500   -0.5780 ca        1 CQA     -0.151000
     16 C13        -3.4330    1.4740   -0.6610 ca        1 CQA      0.149100
     17 C14        -3.1000    0.1200   -0.8270 ca        1 CQA     -0.147300
     18 C15        -1.7540   -0.2470   -0.8810 ca        1 CQA     -0.126000
     19 O          -4.7180    1.9520   -0.6040 oh        1 CQA     -0.503100
     20 C16        -4.1590   -0.9340   -0.9810 c3        1 CQA      0.214100
     21 N3         -4.9610   -1.1220    0.2230 n3        1 CQA     -0.758600
     22 C17        -6.2640   -1.7090   -0.0570 c3        1 CQA      0.171300
     23 C18        -7.2640   -0.7150   -0.6290 c3        1 CQA     -0.097600
     24 C19        -4.2300   -1.8040    1.2830 c3        1 CQA      0.171300
     25 C20        -4.7600   -1.5180    2.6790 c3        1 CQA     -0.097600
     26 H2          4.9860   -1.5840   -2.3040 ha        1 CQA      0.149000
     27 H3          2.6660   -0.8070   -2.1100 ha        1 CQA      0.133000
     28 H6          5.9500    0.1410    1.5530 ha        1 CQA      0.167000
     29 H8          0.2600    1.6530    1.4210 ha        1 CQA      0.155000
     30 H9          2.0650    2.0840    3.0810 h4        1 CQA      0.023100
     31 HN2         0.7480   -0.5100   -1.4620 hn        1 CQA      0.419800
     32 H11        -0.3060    2.8510   -0.6020 ha        1 CQA      0.150000
     33 H12        -2.7070    3.5060   -0.4590 ha        1 CQA      0.155000
     34 H15        -1.5000   -1.3130   -0.9990 ha        1 CQA      0.132000
     35 HO         -5.3280    1.2100   -0.4710 ho        1 CQA      0.442000
     36 H161       -3.6710   -1.9010   -1.3050 h1        1 CQA      0.042700
     37 H162       -4.8460   -0.6150   -1.8190 h1        1 CQA      0.042700
     38 H171       -6.6840   -2.1090    0.9100 h1        1 CQA      0.034450
     39 H172       -6.1770   -2.5830   -0.7680 h1        1 CQA      0.034450
     40 H181       -6.9470   -0.3430   -1.6330 hc        1 CQA      0.040200
     41 H182       -8.2520   -1.2240   -0.7380 hc        1 CQA      0.040200
     42 H183       -7.3890    0.1640    0.0500 hc        1 CQA      0.040200
     43 H191       -4.2270   -2.9230    1.1200 h1        1 CQA      0.034450
     44 H192       -3.1570   -1.4560    1.2370 h1        1 CQA      0.034450
     45 H201       -4.7910   -0.4210    2.8800 hc        1 CQA      0.040200
     46 H202       -5.7870   -1.9320    2.8220 hc        1 CQA      0.040200
     47 H203       -4.0790   -1.9990    3.4220 hc        1 CQA      0.040200
@<TRIPOS>BOND
     1    1    2 ar  
     2    1    6 ar  
     3    1   11 1   
     4    2    3 ar  
     5    2   26 1   
     6    3    4 ar  
     7    3   27 1   
     8    4    5 ar  
     9    4    7 ar  
    10    5    6 ar  
    11    5   10 ar  
    12    6   28 1   
    13    7    8 ar  
    14    7   12 1   
    15    8    9 ar  
    16    8   29 1   
    17    9   10 ar  
    18    9   30 1   
    19   12   13 1   
    20   12   31 1   
    21   13   14 ar  
    22   13   18 ar  
    23   14   15 ar  
    24   14   32 1   
    25   15   16 ar  
    26   15   33 1   
    27   16   17 ar  
    28   16   19 1   
    29   17   18 ar  
    30   17   20 1   
    31   18   34 1   
    32   19   35 1   
    33   20   21 1   
    34   20   36 1   
    35   20   37 1   
    36   21   22 1   
    37   21   24 1   
    38   22   23 1   
    39   22   38 1   
    40   22   39 1   
    41   23   40 1   
    42   23   41 1   
    43   23   42 1   
    44   24   25 1   
    45   24   43 1   
    46   24   44 1   
    47   25   45 1   
    48   25   46 1   
    49   25   47 1   
@<TRIPOS>SUBSTRUCTURE
     1 CQA         1 TEMP              0 ****  ****    0 ROOT
