@<TRIPOS>MOLECULE
CQA
   49    51     1     0     0
SMALL
bcc


@<TRIPOS>ATOM
      1 C1          0.7140    0.8310   -0.0640 ca        1 CQA      0.029400
      2 C2          1.8800    0.0260    0.0400 ca        1 CQA     -0.052000
      3 C3          2.3250   -0.3990    1.2680 ca        1 CQA     -0.168000
      4 C4          1.6380   -0.0460    2.4560 ca        1 CQA     -0.141300
      5 C5          0.4470    0.7530    2.3560 ca        1 CQA      0.415600
      6 C6          0.0080    1.1870    1.0650 ca        1 CQA     -0.136300
      7 C7          2.0290   -0.4430    3.7790 ca        1 CQA     -0.020400
      8 C8          1.2660   -0.0870    4.8760 ca        1 CQA     -0.192300
      9 C9          0.0950    0.7020    4.6500 ca        1 CQA      0.414200
     10 N1         -0.2980    1.1130    3.4610 nb        1 CQA     -0.575000
     11 CL          0.2040    1.3370   -1.5880 cl        1 CQA      0.002600
     12 N2          3.2340   -1.2730    3.9520 n4        1 CQA     -0.500800
     13 C10         3.9940   -0.9940    5.1760 ca        1 CQA     -0.076400
     14 C11         3.8690   -1.8570    6.2850 ca        1 CQA     -0.034000
     15 C12         4.6260   -1.6230    7.4230 ca        1 CQA     -0.176000
     16 C13         5.5130   -0.5330    7.4650 ca        1 CQA      0.197100
     17 C14         5.6410    0.3400    6.3610 ca        1 CQA     -0.172300
     18 C15         4.8670    0.1070    5.2220 ca        1 CQA     -0.033000
     19 O           6.2820   -0.2510    8.5580 oh        1 CQA     -0.512100
     20 C16         6.6820    1.4150    6.3450 c3        1 CQA      0.174100
     21 N3          6.5680    2.4210    7.4510 n4        1 CQA     -0.694400
     22 C17         7.8330    3.2330    7.5530 c3        1 CQA      0.112800
     23 C18         8.9680    2.5050    8.2390 c3        1 CQA     -0.135600
     24 C19         5.3750    3.3140    7.2520 c3        1 CQA      0.112800
     25 C20         4.8950    3.9720    8.5280 c3        1 CQA     -0.135600
     26 H2          2.4200   -0.2610   -0.8810 ha        1 CQA      0.180000
     27 H3          3.2200   -1.0380    1.2900 ha        1 CQA      0.122000
     28 H6         -0.9080    1.8040    0.9930 ha        1 CQA      0.200000
     29 H8          1.5170   -0.3860    5.9050 ha        1 CQA      0.162000
     30 H9         -0.5400    0.9940    5.5110 h4        1 CQA      0.066100
     31 HN2         3.8580   -1.1230    3.1450 hn        1 CQA      0.470800
     32 H11         3.1830   -2.7240    6.2650 ha        1 CQA      0.182000
     33 H12         4.5380   -2.3010    8.2910 ha        1 CQA      0.193000
     34 H15         4.9630    0.7870    4.3560 ha        1 CQA      0.169000
     35 HO          6.1900   -0.9640    9.2180 ho        1 CQA      0.481000
     36 H161        7.6960    0.9200    6.4500 hx        1 CQA      0.116200
     37 H162        6.6560    1.9790    5.3680 hx        1 CQA      0.116200
     38 H171        8.1330    3.5380    6.5090 hx        1 CQA      0.101950
     39 H172        7.5820    4.1670    8.1380 hx        1 CQA      0.101950
     40 H181        8.6860    2.1690    9.2670 hc        1 CQA      0.082867
     41 H182        9.3200    1.6220    7.6530 hc        1 CQA      0.082867
     42 H183        9.8270    3.2210    8.3340 hc        1 CQA      0.082867
     43 H191        4.5490    2.6770    6.8240 hx        1 CQA      0.101950
     44 H192        5.6560    4.0970    6.4900 hx        1 CQA      0.101950
     45 H201        4.6120    3.2180    9.3030 hc        1 CQA      0.082867
     46 H202        5.6590    4.6630    8.9600 hc        1 CQA      0.082867
     47 H203        3.9840    4.5780    8.2820 hc        1 CQA      0.082867
     48 H22         2.9390   -2.2620    3.9570 hn        1 CQA      0.470800
     49 H31         6.4480    1.9120    8.3410 hn        1 CQA      0.462800
@<TRIPOS>BOND
     1    1    2 ar  
     2    1    6 ar  
     3    1   11 1   
     4    2    3 ar  
     5    2   26 1   
     6    3    4 ar  
     7    3   27 1   
     8    4    5 ar  
     9    4    7 ar  
    10    5    6 ar  
    11    5   10 ar  
    12    6   28 1   
    13    7    8 ar  
    14    7   12 1   
    15    8    9 ar  
    16    8   29 1   
    17    9   10 ar  
    18    9   30 1   
    19   12   13 1   
    20   12   31 1   
    21   12   48 1   
    22   13   14 ar  
    23   13   18 ar  
    24   14   15 ar  
    25   14   32 1   
    26   15   16 ar  
    27   15   33 1   
    28   16   17 ar  
    29   16   19 1   
    30   17   18 ar  
    31   17   20 1   
    32   18   34 1   
    33   19   35 1   
    34   20   21 1   
    35   20   36 1   
    36   20   37 1   
    37   21   22 1   
    38   21   24 1   
    39   21   49 1   
    40   22   23 1   
    41   22   38 1   
    42   22   39 1   
    43   23   40 1   
    44   23   41 1   
    45   23   42 1   
    46   24   25 1   
    47   24   43 1   
    48   24   44 1   
    49   25   45 1   
    50   25   46 1   
    51   25   47 1   
@<TRIPOS>SUBSTRUCTURE
     1 CQA         1 TEMP              0 ****  ****    0 ROOT
