@<TRIPOS>MOLECULE
CQA
   48    50     1     0     0
SMALL
bcc


@<TRIPOS>ATOM
      1 C1          0.4450   -1.0140   -0.2460 ca        1 CQA      0.027400
      2 C2          1.7860   -0.6180   -0.0090 ca        1 CQA     -0.109000
      3 C3          2.1560   -0.1630    1.2320 ca        1 CQA     -0.119000
      4 C4          1.2190   -0.0780    2.2940 ca        1 CQA     -0.168300
      5 C5         -0.1290   -0.4950    2.0600 ca        1 CQA      0.417600
      6 C6         -0.4950   -0.9610    0.7560 ca        1 CQA     -0.155300
      7 C7          1.5520    0.4080    3.6150 ca        1 CQA      0.173600
      8 C8          0.5590    0.4180    4.5860 ca        1 CQA     -0.280300
      9 C9         -0.7470   -0.0400    4.2420 ca        1 CQA      0.430200
     10 N1         -1.0970   -0.4730    3.0470 nb        1 CQA     -0.646000
     11 CL          0.0180   -1.5610   -1.7930 cl        1 CQA     -0.060400
     12 N2          2.8300    0.9360    3.8790 nh        1 CQA     -0.640000
     13 C10         3.6110    0.5540    4.9680 ca        1 CQA      0.169600
     14 C11         3.2090   -0.4470    5.8910 ca        1 CQA     -0.118000
     15 C12         3.9900   -0.7530    6.9930 ca        1 CQA     -0.147000
     16 C13         5.2020   -0.0810    7.2010 ca        1 CQA      0.087100
     17 C14         5.6390    0.8940    6.2900 ca        1 CQA     -0.157300
     18 C15         4.8440    1.2130    5.1880 ca        1 CQA     -0.150000
     19 O           6.0060   -0.3140    8.2990 oh        1 CQA     -0.546100
     20 C16         6.9710    1.5410    6.4650 c3        1 CQA      0.187100
     21 N3          7.0590    2.3520    7.7310 n4        1 CQA     -0.692400
     22 C17         8.4830    2.7070    8.0370 c3        1 CQA      0.110300
     23 C18         9.2770    1.5690    8.6430 c3        1 CQA     -0.130100
     24 C19         6.2030    3.5800    7.6350 c3        1 CQA      0.110300
     25 C20         5.8040    4.1460    8.9810 c3        1 CQA     -0.130100
     26 H2          2.5210   -0.6820   -0.8270 ha        1 CQA      0.157000
     27 H3          3.2070    0.1230    1.3900 ha        1 CQA      0.125000
     28 H6         -1.5390   -1.2740    0.5760 ha        1 CQA      0.177000
     29 H8          0.7410    0.7870    5.6050 ha        1 CQA      0.150000
     30 H9         -1.5420   -0.0330    5.0130 h4        1 CQA      0.035100
     31 HN2         3.3260    1.2880    3.0880 hn        1 CQA      0.441800
     32 H11         2.2670   -0.9990    5.7300 ha        1 CQA      0.172000
     33 H12         3.6640   -1.5330    7.6990 ha        1 CQA      0.159000
     34 H15         5.1960    1.9780    4.4770 ha        1 CQA      0.145000
     35 HO          5.6980   -1.1230    8.7360 ho        1 CQA      0.453000
     36 H161        7.2100    2.2240    5.6010 hx        1 CQA      0.103700
     37 H162        7.7630    0.7370    6.5340 hx        1 CQA      0.103700
     38 H171        8.9660    3.0540    7.0800 hx        1 CQA      0.099700
     39 H172        8.4670    3.5740    8.7610 hx        1 CQA      0.099700
     40 H181       10.2970    1.9550    8.8970 hc        1 CQA      0.075200
     41 H182        8.8040    1.1880    9.5810 hc        1 CQA      0.075200
     42 H183        9.3950    0.7160    7.9310 hc        1 CQA      0.075200
     43 H191        6.7710    4.3490    7.0380 hx        1 CQA      0.099700
     44 H192        5.2730    3.2950    7.0580 hx        1 CQA      0.099700
     45 H201        5.2390    3.3990    9.5910 hc        1 CQA      0.075200
     46 H202        5.1340    5.0260    8.8000 hc        1 CQA      0.075200
     47 H203        6.6860    4.4980    9.5680 hc        1 CQA      0.075200
     48 H31         6.6990    1.7640    8.5010 hn        1 CQA      0.465800
@<TRIPOS>BOND
     1    1    2 ar  
     2    1    6 ar  
     3    1   11 1   
     4    2    3 ar  
     5    2   26 1   
     6    3    4 ar  
     7    3   27 1   
     8    4    5 ar  
     9    4    7 ar  
    10    5    6 ar  
    11    5   10 ar  
    12    6   28 1   
    13    7    8 ar  
    14    7   12 1   
    15    8    9 ar  
    16    8   29 1   
    17    9   10 ar  
    18    9   30 1   
    19   12   13 1   
    20   12   31 1   
    21   13   14 ar  
    22   13   18 ar  
    23   14   15 ar  
    24   14   32 1   
    25   15   16 ar  
    26   15   33 1   
    27   16   17 ar  
    28   16   19 1   
    29   17   18 ar  
    30   17   20 1   
    31   18   34 1   
    32   19   35 1   
    33   20   21 1   
    34   20   36 1   
    35   20   37 1   
    36   21   22 1   
    37   21   24 1   
    38   21   48 1   
    39   22   23 1   
    40   22   38 1   
    41   22   39 1   
    42   23   40 1   
    43   23   41 1   
    44   23   42 1   
    45   24   25 1   
    46   24   43 1   
    47   24   44 1   
    48   25   45 1   
    49   25   46 1   
    50   25   47 1   
@<TRIPOS>SUBSTRUCTURE
     1 CQA         1 TEMP              0 ****  ****    0 ROOT
