@<TRIPOS>MOLECULE
CQD
   39    41     1     0     0
SMALL
bcc


@<TRIPOS>ATOM
      1 O          -0.1960    0.9050    0.0980 o         1 CQD     -0.454100
      2 C           0.9100    0.3650    0.0940 c         1 CQD      0.492800
      3 CAS         1.7450    0.0990    1.2930 ca        1 CQD      0.374800
      4 NAM         1.1290    0.0920    2.4990 nb        1 CQD     -0.603000
      5 CAE         1.8910   -0.1220    3.5880 ca        1 CQD      0.436200
      6 CAD         3.2850   -0.3250    3.5370 ca        1 CQD     -0.203300
      7 CAF         3.9130   -0.3200    2.2920 ca        1 CQD     -0.030000
      8 CD2         3.1340   -0.1180    1.1410 ca        1 CQD     -0.259900
      9 CG          3.7760   -0.1200   -0.1780 c         1 CQD      0.576900
     10 OD1         4.9820    0.0330   -0.3570 o         1 CQD     -0.416100
     11 CB          2.8430   -0.3290   -1.3410 cc        1 CQD      0.028200
     12 CL          3.5190   -0.8600   -2.7860 cl        1 CQD      0.019600
     13 CA          1.5140   -0.0890   -1.2060 cd        1 CQD     -0.147200
     14 N           0.5710   -0.2430   -2.3140 n4        1 CQD     -0.623800
     15 CAG         0.3010    1.0600   -3.0080 c3        1 CQD      0.104800
     16 CAJ        -0.6030    0.8840   -4.2440 c3        1 CQD      0.140800
     17 NAV        -1.7610    0.0530   -3.9670 n3        1 CQD     -0.771600
     18 CAK        -2.2530   -0.6340   -5.1600 c3        1 CQD      0.121800
     19 CAH        -3.5220   -1.4520   -4.8810 c3        1 CQD      0.125400
     20 OAO        -4.5250   -0.6580   -4.2630 os        1 CQD     -0.391600
     21 CAI        -4.0740   -0.0760   -3.0480 c3        1 CQD      0.125400
     22 CAL        -2.8220    0.7820   -3.2730 c3        1 CQD      0.121800
     23 H1          1.3450   -0.1240    4.5530 h4        1 CQD      0.060100
     24 H2          3.8590   -0.4820    4.4630 ha        1 CQD      0.181000
     25 H3          5.0020   -0.4700    2.1990 ha        1 CQD      0.182000
     26 H6          0.9190   -0.9290   -2.9950 hn        1 CQD      0.472300
     27 H8         -0.1840    1.7420   -2.2500 hx        1 CQD      0.113700
     28 H9          1.2840    1.5020   -3.3320 hx        1 CQD      0.113700
     29 H10         0.0020    0.4150   -5.0730 h1        1 CQD      0.078200
     30 H11        -0.8740    1.9310   -4.5730 h1        1 CQD      0.078200
     31 H13        -2.4770    0.0990   -5.9880 h1        1 CQD      0.052450
     32 H14        -1.4480   -1.3330   -5.5180 h1        1 CQD      0.052450
     33 H15        -3.2880   -2.3410   -4.2380 h1        1 CQD      0.067450
     34 H16        -3.9820   -1.7840   -5.8490 h1        1 CQD      0.067450
     35 H17        -4.9270    0.5720   -2.7120 h1        1 CQD      0.067450
     36 H18        -3.8760   -0.8790   -2.2900 h1        1 CQD      0.067450
     37 H19        -3.1240    1.7070   -3.8450 h1        1 CQD      0.052450
     38 H20        -2.4220    1.1050   -2.2720 h1        1 CQD      0.052450
     39 H21        -0.3240   -0.5930   -1.9300 hn        1 CQD      0.472300
@<TRIPOS>BOND
     1    1    2 2   
     2    2    3 1   
     3    2   13 1   
     4    3    4 ar  
     5    3    8 ar  
     6    4    5 ar  
     7    5    6 ar  
     8    5   23 1   
     9    6    7 ar  
    10    6   24 1   
    11    7    8 ar  
    12    7   25 1   
    13    8    9 1   
    14    9   10 2   
    15    9   11 1   
    16   11   12 1   
    17   11   13 2   
    18   13   14 1   
    19   14   15 1   
    20   14   26 1   
    21   14   39 1   
    22   15   16 1   
    23   15   27 1   
    24   15   28 1   
    25   16   17 1   
    26   16   29 1   
    27   16   30 1   
    28   17   18 1   
    29   17   22 1   
    30   18   19 1   
    31   18   31 1   
    32   18   32 1   
    33   19   20 1   
    34   19   33 1   
    35   19   34 1   
    36   20   21 1   
    37   21   22 1   
    38   21   35 1   
    39   21   36 1   
    40   22   37 1   
    41   22   38 1   
@<TRIPOS>SUBSTRUCTURE
     1 CQD         1 TEMP              0 ****  ****    0 ROOT
