@<TRIPOS>MOLECULE
CQD
   39    41     1     0     0
SMALL
bcc


@<TRIPOS>ATOM
      1 O          -0.2640    0.7070    0.1780 o         1 CQD     -0.454100
      2 C           0.8860    0.2730    0.1230 c         1 CQD      0.492800
      3 CAS         1.7520   -0.0310    1.2910 ca        1 CQD      0.374800
      4 NAM         1.1490   -0.2100    2.4910 nb        1 CQD     -0.603000
      5 CAE         1.9370   -0.4570    3.5540 ca        1 CQD      0.436200
      6 CAD         3.3430   -0.5260    3.4840 ca        1 CQD     -0.203300
      7 CAF         3.9570   -0.3440    2.2460 ca        1 CQD     -0.030000
      8 CD2         3.1540   -0.1040    1.1190 ca        1 CQD     -0.259900
      9 CG          3.7820    0.0800   -0.1930 c         1 CQD      0.576900
     10 OD1         4.9670    0.3590   -0.3560 o         1 CQD     -0.416100
     11 CB          2.8620   -0.1010   -1.3710 cc        1 CQD      0.028200
     12 CL          3.5710   -0.4270   -2.8610 cl        1 CQD      0.019600
     13 CA          1.5180    0.0020   -1.2140 cd        1 CQD     -0.147200
     14 N           0.5840   -0.1310   -2.3320 n4        1 CQD     -0.623800
     15 CAG         0.1910    1.2030   -2.8980 c3        1 CQD      0.104800
     16 CAJ        -0.7040    1.0640   -4.1460 c3        1 CQD      0.140800
     17 NAV        -1.7800    0.1090   -3.9490 n3        1 CQD     -0.771600
     18 CAK        -2.2180   -0.5030   -5.2030 c3        1 CQD      0.121800
     19 CAH        -3.4050   -1.4560   -5.0040 c3        1 CQD      0.125400
     20 OAO        -4.4700   -0.8200   -4.3130 os        1 CQD     -0.391600
     21 CAI        -4.0640   -0.3170   -3.0480 c3        1 CQD      0.125400
     22 CAL        -2.8970    0.6690   -3.1900 c3        1 CQD      0.121800
     23 H1          1.4020   -0.6010    4.5140 h4        1 CQD      0.060100
     24 H2          3.9380   -0.7180    4.3910 ha        1 CQD      0.181000
     25 H3          5.0550   -0.3830    2.1390 ha        1 CQD      0.182000
     26 H6          0.9870   -0.7140   -3.0760 hn        1 CQD      0.472300
     27 H8         -0.3480    1.7620   -2.0780 hx        1 CQD      0.113700
     28 H9          1.1270    1.7620   -3.1780 hx        1 CQD      0.113700
     29 H10        -0.0660    0.7330   -5.0150 h1        1 CQD      0.078200
     30 H11        -1.0720    2.1090   -4.3730 h1        1 CQD      0.078200
     31 H13        -2.5140    0.2820   -5.9570 h1        1 CQD      0.052450
     32 H14        -1.3560   -1.0900   -5.6250 h1        1 CQD      0.052450
     33 H15        -3.0870   -2.3770   -4.4490 h1        1 CQD      0.067450
     34 H16        -3.8410   -1.7350   -6.0000 h1        1 CQD      0.067450
     35 H17        -3.7880   -1.1670   -2.3700 h1        1 CQD      0.067450
     36 H18        -4.9690    0.2160   -2.6520 h1        1 CQD      0.067450
     37 H19        -3.2860    1.6130   -3.6700 h1        1 CQD      0.052450
     38 H20        -2.5200    0.9300   -2.1620 h1        1 CQD      0.052450
     39 H21        -0.2730   -0.5960   -1.9840 hn        1 CQD      0.472300
@<TRIPOS>BOND
     1    1    2 2   
     2    2    3 1   
     3    2   13 1   
     4    3    4 ar  
     5    3    8 ar  
     6    4    5 ar  
     7    5    6 ar  
     8    5   23 1   
     9    6    7 ar  
    10    6   24 1   
    11    7    8 ar  
    12    7   25 1   
    13    8    9 1   
    14    9   10 2   
    15    9   11 1   
    16   11   12 1   
    17   11   13 2   
    18   13   14 1   
    19   14   15 1   
    20   14   26 1   
    21   14   39 1   
    22   15   16 1   
    23   15   27 1   
    24   15   28 1   
    25   16   17 1   
    26   16   29 1   
    27   16   30 1   
    28   17   18 1   
    29   17   22 1   
    30   18   19 1   
    31   18   31 1   
    32   18   32 1   
    33   19   20 1   
    34   19   33 1   
    35   19   34 1   
    36   20   21 1   
    37   21   22 1   
    38   21   35 1   
    39   21   36 1   
    40   22   37 1   
    41   22   38 1   
@<TRIPOS>SUBSTRUCTURE
     1 CQD         1 TEMP              0 ****  ****    0 ROOT
