@<TRIPOS>MOLECULE
CQD
   39    41     1     0     0
SMALL
bcc


@<TRIPOS>ATOM
      1 O          -0.2050    0.8740    0.1130 o         1 CQD     -0.454100
      2 C           0.9110    0.3570    0.0950 c         1 CQD      0.492800
      3 CAS         1.7580    0.0890    1.2860 ca        1 CQD      0.374800
      4 NAM         1.1480    0.0520    2.4950 nb        1 CQD     -0.603000
      5 CAE         1.9210   -0.1630    3.5760 ca        1 CQD      0.436200
      6 CAD         3.3180   -0.3360    3.5160 ca        1 CQD     -0.203300
      7 CAF         3.9390   -0.2990    2.2680 ca        1 CQD     -0.030000
      8 CD2         3.1500   -0.0960    1.1230 ca        1 CQD     -0.259900
      9 CG          3.7850   -0.0640   -0.1980 c         1 CQD      0.576900
     10 OD1         4.9870    0.1160   -0.3810 o         1 CQD     -0.416100
     11 CB          2.8510   -0.2750   -1.3590 cc        1 CQD      0.028200
     12 Cl          3.5300   -0.7700   -2.8160 cl        1 CQD      0.019600
     13 CA          1.5180   -0.0650   -1.2150 cd        1 CQD     -0.147200
     14 N           0.5720   -0.2220   -2.3200 ny        1 CQD     -0.623800
     15 CAG         0.2720    1.0850   -2.9930 c3        1 CQD      0.104800
     16 CAJ        -0.6340    0.9090   -4.2280 c3        1 CQD      0.140800
     17 NAV        -1.7740    0.0510   -3.9570 n3        1 CQD     -0.771600
     18 CAK        -2.2580   -0.6280   -5.1570 c3        1 CQD      0.121800
     19 CAH        -3.5080   -1.4760   -4.8850 c3        1 CQD      0.125400
     20 OAO        -4.5240   -0.7130   -4.2500 os        1 CQD     -0.391600
     21 CAI        -4.0800   -0.1390   -3.0290 c3        1 CQD      0.125400
     22 CAL        -2.8460    0.7470   -3.2480 c3        1 CQD      0.121800
     23 H1          1.3800   -0.1900    4.5440 h4        1 CQD      0.060100
     24 H2          3.9010   -0.4950    4.4360 ha        1 CQD      0.181000
     25 H3          5.0310   -0.4240    2.1670 ha        1 CQD      0.182000
     26 H6          0.9310   -0.8910   -3.0130 hn        1 CQD      0.472300
     27 H8          1.2440    1.5530   -3.3150 hx        1 CQD      0.113700
     28 H9         -0.2240    1.7460   -2.2220 hx        1 CQD      0.113700
     29 H10        -0.9290    1.9550   -4.5390 h1        1 CQD      0.078200
     30 H11        -0.0240    0.4650   -5.0660 h1        1 CQD      0.078200
     31 H13        -2.5010    0.1120   -5.9740 h1        1 CQD      0.052450
     32 H14        -1.4410   -1.3060   -5.5290 h1        1 CQD      0.052450
     33 H15        -3.2540   -2.3700   -4.2560 h1        1 CQD      0.067450
     34 H16        -3.9670   -1.8040   -5.8560 h1        1 CQD      0.067450
     35 H17        -3.8610   -0.9490   -2.2840 h1        1 CQD      0.067450
     36 H18        -4.9440    0.4860   -2.6800 h1        1 CQD      0.067450
     37 H19        -3.1700    1.6750   -3.8040 h1        1 CQD      0.052450
     38 H20        -2.4480    1.0640   -2.2430 h1        1 CQD      0.052450
     39 H21        -0.3140   -0.5960   -1.9360 hn        1 CQD      0.472300
@<TRIPOS>BOND
     1    1    2 2   
     2    2    3 1   
     3    2   13 1   
     4    3    4 ar  
     5    3    8 ar  
     6    4    5 ar  
     7    5    6 ar  
     8    5   23 1   
     9    6    7 ar  
    10    6   24 1   
    11    7    8 ar  
    12    7   25 1   
    13    8    9 1   
    14    9   10 2   
    15    9   11 1   
    16   11   12 1   
    17   11   13 2   
    18   13   14 1   
    19   14   15 1   
    20   14   26 1   
    21   14   39 1   
    22   15   16 1   
    23   15   27 1   
    24   15   28 1   
    25   16   17 1   
    26   16   29 1   
    27   16   30 1   
    28   17   18 1   
    29   17   22 1   
    30   18   19 1   
    31   18   31 1   
    32   18   32 1   
    33   19   20 1   
    34   19   33 1   
    35   19   34 1   
    36   20   21 1   
    37   21   22 1   
    38   21   35 1   
    39   21   36 1   
    40   22   37 1   
    41   22   38 1   
@<TRIPOS>SUBSTRUCTURE
     1 CQD         1 TEMP              0 ****  ****    0 ROOT
