@<TRIPOS>MOLECULE
CQE
   71    76     1     0     0
SMALL
bcc


@<TRIPOS>ATOM
      1 F18         0.5690    1.4250   -0.4680 f         1 CQE     -0.114900
      2 C13         1.8520    1.0260   -0.6060 ca        1 CQE      0.238900
      3 C14         2.7880    1.4400    0.3670 ca        1 CQE     -0.169000
      4 C15         4.1130    1.0520    0.2660 ca        1 CQE     -0.079000
      5 C16         4.5190    0.2440   -0.8170 ca        1 CQE      0.090900
      6 F19         5.8140   -0.1370   -0.9230 f         1 CQE     -0.129900
      7 C17         3.5870   -0.1610   -1.7800 ca        1 CQE     -0.051000
      8 C12         2.2400    0.2180   -1.6940 ca        1 CQE     -0.383500
      9 S9          1.2100   -0.3120   -2.9470 sy        1 CQE      1.516200
     10 O10         0.2490    0.6760   -3.2030 o         1 CQE     -0.638800
     11 O11         2.0250   -0.7070   -4.0280 o         1 CQE     -0.638800
     12 N8          0.5460   -1.6650   -2.3320 nh        1 CQE     -0.771500
     13 C5         -0.5660   -1.8050   -1.4870 ca        1 CQE      0.120600
     14 C6         -0.6230   -2.8950   -0.5620 ca        1 CQE      0.117900
     15 F7          0.3960   -3.7880   -0.5230 f         1 CQE     -0.130900
     16 C4         -1.6540   -0.9110   -1.5360 ca        1 CQE     -0.135000
     17 C3         -2.7460   -1.0820   -0.6910 ca        1 CQE     -0.119000
     18 C2         -2.7960   -2.1400    0.2090 ca        1 CQE     -0.103000
     19 C1         -1.7430   -3.0570    0.2800 ca        1 CQE     -0.129500
     20 C20        -1.8010   -4.1570    1.2430 cc        1 CQE      0.408800
     21 N21        -0.7850   -4.3140    2.1860 nc        1 CQE     -0.616000
     22 C22        -1.0540   -5.3600    2.9690 cd        1 CQE      0.402700
     23 C25        -0.1750   -5.8160    4.0870 c3        1 CQE     -0.097000
     24 C30        -0.8580   -6.9010    4.9090 c3        1 CQE     -0.113400
     25 C29         0.0830   -7.4160    6.0000 c3        1 CQE      0.169300
     26 C26         1.1600   -6.3170    3.5480 c3        1 CQE     -0.113400
     27 C27         2.0280   -6.8520    4.6880 c3        1 CQE      0.169300
     28 N28         1.4010   -7.8410    5.5520 n3        1 CQE     -0.697600
     29 C37         1.3970   -9.1650    4.9770 cx        1 CQE      0.096500
     30 C38         2.6280  -10.0440    5.0770 cx        1 CQE     -0.120900
     31 C39         1.4060  -10.3890    5.8730 cx        1 CQE     -0.120900
     32 S23        -2.5230   -6.1720    2.5950 ss        1 CQE     -0.068300
     33 C24        -2.8320   -5.0990    1.3350 cd        1 CQE     -0.154400
     34 C31        -4.0000   -5.2130    0.4910 ca        1 CQE      0.049000
     35 C36        -5.2820   -5.1060    1.0440 ca        1 CQE     -0.287300
     36 C32        -3.8750   -5.4580   -0.8820 ca        1 CQE     -0.252300
     37 C33        -5.0500   -5.5750   -1.6440 ca        1 CQE      0.426200
     38 N34        -6.2930   -5.4700   -1.1530 nb        1 CQE     -0.660000
     39 C35        -6.4190   -5.2460    0.1930 ca        1 CQE      0.541200
     40 N40        -7.6970   -5.1210    0.7720 n         1 CQE     -0.574400
     41 C41        -8.8860   -5.6740    0.2920 c         1 CQE      0.670100
     42 O42        -8.9230   -6.5160   -0.6150 o         1 CQE     -0.541100
     43 C43       -10.1460   -5.2020    0.9840 c3        1 CQE     -0.180100
     44 H14         2.4500    2.0730    1.2020 ha        1 CQE      0.163000
     45 H15         4.8530    1.3670    1.0190 ha        1 CQE      0.161000
     46 H17         3.9280   -0.7780   -2.6340 ha        1 CQE      0.182000
     47 H8          0.9990   -2.5390   -2.5040 hn        1 CQE      0.462800
     48 H4         -1.6450   -0.0580   -2.2370 ha        1 CQE      0.179000
     49 H3         -3.5820   -0.3670   -0.7430 ha        1 CQE      0.146000
     50 H2         -3.6660   -2.2670    0.8720 ha        1 CQE      0.146000
     51 H25         0.0270   -4.9330    4.7630 hc        1 CQE      0.080700
     52 H301       -1.1650   -7.7500    4.2410 hc        1 CQE      0.054950
     53 H302       -1.7820   -6.4920    5.3940 hc        1 CQE      0.054950
     54 H261        0.9840   -7.1240    2.7900 hc        1 CQE      0.054950
     55 H262        1.7010   -5.4800    3.0370 hc        1 CQE      0.054950
     56 H291        0.2520   -6.5890    6.7470 h1        1 CQE      0.056450
     57 H292       -0.4100   -8.2760    6.5320 h1        1 CQE      0.056450
     58 H271        2.3230   -5.9900    5.3520 h1        1 CQE      0.056450
     59 H272        2.9660   -7.2980    4.2550 h1        1 CQE      0.056450
     60 H37         0.8050   -9.2450    4.0330 h1        1 CQE      0.056700
     61 H381        2.8950  -10.6590    4.1990 hc        1 CQE      0.073950
     62 H382        3.5210   -9.6680    5.6080 hc        1 CQE      0.073950
     63 H391        1.4310  -10.2570    6.9690 hc        1 CQE      0.073950
     64 H392        0.7890  -11.2530    5.5710 hc        1 CQE      0.073950
     65 H36        -5.4040   -4.9180    2.1190 ha        1 CQE      0.143000
     66 H32        -2.8890   -5.5560   -1.3540 ha        1 CQE      0.155000
     67 H33        -4.9980   -5.7630   -2.7330 h4        1 CQE      0.031100
     68 H40        -7.7370   -4.5660    1.5960 hn        1 CQE      0.319500
     69 H431      -10.1110   -5.4360    2.0750 hc        1 CQE      0.068367
     70 H432      -11.0190   -5.7310    0.5290 hc        1 CQE      0.068367
     71 H433      -10.2770   -4.1020    0.8480 hc        1 CQE      0.068367
@<TRIPOS>BOND
     1    1    2 1   
     2    2    3 ar  
     3    2    8 ar  
     4    3    4 ar  
     5    3   44 1   
     6    4    5 ar  
     7    4   45 1   
     8    5    6 1   
     9    5    7 ar  
    10    7    8 ar  
    11    7   46 1   
    12    8    9 1   
    13    9   10 2   
    14    9   11 2   
    15    9   12 1   
    16   12   13 1   
    17   12   47 1   
    18   13   14 ar  
    19   13   16 ar  
    20   14   15 1   
    21   14   19 ar  
    22   16   17 ar  
    23   16   48 1   
    24   17   18 ar  
    25   17   49 1   
    26   18   19 ar  
    27   18   50 1   
    28   19   20 1   
    29   20   21 1   
    30   20   33 2   
    31   21   22 2   
    32   22   23 1   
    33   22   32 1   
    34   23   24 1   
    35   23   26 1   
    36   23   51 1   
    37   24   25 1   
    38   24   52 1   
    39   24   53 1   
    40   25   28 1   
    41   25   56 1   
    42   25   57 1   
    43   26   27 1   
    44   26   54 1   
    45   26   55 1   
    46   27   28 1   
    47   27   58 1   
    48   27   59 1   
    49   28   29 1   
    50   29   30 1   
    51   29   31 1   
    52   29   60 1   
    53   30   31 1   
    54   30   61 1   
    55   30   62 1   
    56   31   63 1   
    57   31   64 1   
    58   32   33 1   
    59   33   34 1   
    60   34   35 ar  
    61   34   36 ar  
    62   35   39 ar  
    63   35   65 1   
    64   36   37 ar  
    65   36   66 1   
    66   37   38 ar  
    67   37   67 1   
    68   38   39 ar  
    69   39   40 1   
    70   40   41 1   
    71   40   68 1   
    72   41   42 2   
    73   41   43 1   
    74   43   69 1   
    75   43   70 1   
    76   43   71 1   
@<TRIPOS>SUBSTRUCTURE
     1 CQE         1 TEMP              0 ****  ****    0 ROOT
