@<TRIPOS>MOLECULE
CQE
   71    76     1     0     0
SMALL
bcc


@<TRIPOS>ATOM
      1 F18         0.2360    1.4680    0.5260 f         1 CQE     -0.114900
      2 C13         1.5290    1.3020    0.1720 ca        1 CQE      0.237900
      3 C14         2.5240    1.5300    1.1480 ca        1 CQE     -0.169000
      4 C15         3.8610    1.3690    0.8290 ca        1 CQE     -0.080000
      5 C16         4.2200    0.9780   -0.4780 ca        1 CQE      0.090900
      6 F19         5.5270    0.8210   -0.7970 f         1 CQE     -0.129900
      7 C17         3.2300    0.7560   -1.4430 ca        1 CQE     -0.051000
      8 C12         1.8700    0.9110   -1.1390 ca        1 CQE     -0.382500
      9 S9          0.7620    0.6450   -2.4090 sy        1 CQE      1.516200
     10 O10        -0.3080    1.5420   -2.2830 o         1 CQE     -0.638800
     11 O11         1.4870    0.6820   -3.6180 o         1 CQE     -0.638800
     12 N8          0.2980   -0.8970   -2.1770 nu        1 CQE     -0.771500
     13 C5         -0.7110   -1.4060   -1.3450 ca        1 CQE      0.119600
     14 C6         -0.5670   -2.7070   -0.7660 ca        1 CQE      0.119900
     15 F7          0.5400   -3.4370   -1.0420 f         1 CQE     -0.129900
     16 C4         -1.8890   -0.6810   -1.0760 ca        1 CQE     -0.134000
     17 C3         -2.8770   -1.2170   -0.2570 ca        1 CQE     -0.120000
     18 C2         -2.7320   -2.4800    0.3060 ca        1 CQE     -0.104000
     19 C1         -1.5820   -3.2370    0.0570 ca        1 CQE     -0.129500
     20 C20        -1.4390   -4.5570    0.6710 cc        1 CQE      0.409800
     21 N21        -0.3120   -4.8590    1.4340 nc        1 CQE     -0.616000
     22 C22        -0.4070   -6.1040    1.9060 cd        1 CQE      0.401700
     23 C25         0.6270   -6.7550    2.7630 c3        1 CQE     -0.097000
     24 C30         0.7380   -6.0430    4.1070 c3        1 CQE     -0.113400
     25 C29         1.7460   -6.7580    5.0080 c3        1 CQE      0.168800
     26 C26         0.3140   -8.2320    2.9680 c3        1 CQE     -0.113400
     27 C27         1.3360   -8.8680    3.9120 c3        1 CQE      0.168800
     28 N28         1.5360   -8.1880    5.1820 n3        1 CQE     -0.696600
     29 C37         0.5060   -8.4890    6.1470 cx        1 CQE      0.096500
     30 C38         0.5530   -9.7830    6.9380 cx        1 CQE     -0.120900
     31 C39         0.8230   -8.4820    7.6300 cx        1 CQE     -0.120900
     32 S23        -1.8420   -6.9330    1.4460 ss        1 CQE     -0.065300
     33 C24        -2.3760   -5.5930    0.5810 cd        1 CQE     -0.157400
     34 C31        -3.6230   -5.5880   -0.1530 ca        1 CQE      0.049000
     35 C36        -4.8440   -5.5600    0.5310 ca        1 CQE     -0.285300
     36 C32        -3.6320   -5.6360   -1.5530 ca        1 CQE     -0.252300
     37 C33        -4.8760   -5.6440   -2.2060 ca        1 CQE      0.426200
     38 N34        -6.0650   -5.6110   -1.5870 nb        1 CQE     -0.660000
     39 C35        -6.0590   -5.5800   -0.2170 ca        1 CQE      0.540200
     40 N40        -7.2730   -5.5390    0.4940 ns        1 CQE     -0.574400
     41 C41        -8.5110   -6.0190    0.0580 c         1 CQE      0.670100
     42 O42        -8.6440   -6.7240   -0.9520 o         1 CQE     -0.541100
     43 C43        -9.6920   -5.6530    0.9290 c3        1 CQE     -0.180100
     44 H14         2.2200    1.8370    2.1610 ha        1 CQE      0.163000
     45 H15         4.6460    1.5420    1.5820 ha        1 CQE      0.161000
     46 H17         3.5320    0.4700   -2.4680 ha        1 CQE      0.182000
     47 H8          0.8180   -1.6250   -2.6230 hn        1 CQE      0.463800
     48 H4         -2.0340    0.3270   -1.5050 ha        1 CQE      0.179000
     49 H3         -3.7870   -0.6300   -0.0580 ha        1 CQE      0.145000
     50 H2         -3.5220   -2.8980    0.9490 ha        1 CQE      0.145000
     51 H25         1.6250   -6.6740    2.2380 hc        1 CQE      0.083700
     52 H301        1.0750   -4.9860    3.9480 hc        1 CQE      0.054450
     53 H302       -0.2660   -6.0120    4.6040 hc        1 CQE      0.054450
     54 H261       -0.7190   -8.3470    3.3930 hc        1 CQE      0.054450
     55 H262        0.3450   -8.7710    1.9870 hc        1 CQE      0.054450
     56 H291        1.7420   -6.2690    6.0210 h1        1 CQE      0.056950
     57 H292        2.7750   -6.6390    4.5640 h1        1 CQE      0.056950
     58 H271        2.3390   -8.8830    3.3970 h1        1 CQE      0.056950
     59 H272        1.0310   -9.9320    4.1170 h1        1 CQE      0.056950
     60 H37        -0.5070   -8.1230    5.8560 h1        1 CQE      0.054700
     61 H381        1.3910  -10.4850    6.7790 hc        1 CQE      0.073950
     62 H382       -0.4000  -10.3080    7.1240 hc        1 CQE      0.073950
     63 H391        0.0660   -8.0660    8.3180 hc        1 CQE      0.073950
     64 H392        1.8530   -8.2600    7.9630 hc        1 CQE      0.073950
     65 H36        -4.8580   -5.5240    1.6280 ha        1 CQE      0.144000
     66 H32        -2.6970   -5.6640   -2.1270 ha        1 CQE      0.155000
     67 H33        -4.9310   -5.6750   -3.3110 h4        1 CQE      0.031100
     68 H40        -7.2270   -5.1090    1.3890 hn        1 CQE      0.319500
     69 H431       -9.8220   -4.5440    0.9620 hc        1 CQE      0.068367
     70 H432      -10.6110   -6.1130    0.4900 hc        1 CQE      0.068367
     71 H433       -9.5550   -6.0380    1.9670 hc        1 CQE      0.068367
@<TRIPOS>BOND
     1    1    2 1   
     2    2    3 ar  
     3    2    8 ar  
     4    3    4 ar  
     5    3   44 1   
     6    4    5 ar  
     7    4   45 1   
     8    5    6 1   
     9    5    7 ar  
    10    7    8 ar  
    11    7   46 1   
    12    8    9 1   
    13    9   10 2   
    14    9   11 2   
    15    9   12 1   
    16   12   13 1   
    17   12   47 1   
    18   13   14 ar  
    19   13   16 ar  
    20   14   15 1   
    21   14   19 ar  
    22   16   17 ar  
    23   16   48 1   
    24   17   18 ar  
    25   17   49 1   
    26   18   19 ar  
    27   18   50 1   
    28   19   20 1   
    29   20   21 1   
    30   20   33 2   
    31   21   22 2   
    32   22   23 1   
    33   22   32 1   
    34   23   24 1   
    35   23   26 1   
    36   23   51 1   
    37   24   25 1   
    38   24   52 1   
    39   24   53 1   
    40   25   28 1   
    41   25   56 1   
    42   25   57 1   
    43   26   27 1   
    44   26   54 1   
    45   26   55 1   
    46   27   28 1   
    47   27   58 1   
    48   27   59 1   
    49   28   29 1   
    50   29   30 1   
    51   29   31 1   
    52   29   60 1   
    53   30   31 1   
    54   30   61 1   
    55   30   62 1   
    56   31   63 1   
    57   31   64 1   
    58   32   33 1   
    59   33   34 1   
    60   34   35 ar  
    61   34   36 ar  
    62   35   39 ar  
    63   35   65 1   
    64   36   37 ar  
    65   36   66 1   
    66   37   38 ar  
    67   37   67 1   
    68   38   39 ar  
    69   39   40 1   
    70   40   41 1   
    71   40   68 1   
    72   41   42 2   
    73   41   43 1   
    74   43   69 1   
    75   43   70 1   
    76   43   71 1   
@<TRIPOS>SUBSTRUCTURE
     1 CQE         1 TEMP              0 ****  ****    0 ROOT
