@<TRIPOS>MOLECULE
CQL
   18    16     1     0     0
SMALL
bcc


@<TRIPOS>ATOM
      1 OAA        -2.5680    0.0080    1.1960 oh        1 CQL     -0.232000
      2 CLAB        0.9510   -0.7870   -3.0870 cl        1 CQL     -0.007000
      3 IAC        -3.5550    1.4790   -1.3410 i         1 CQL      0.180000
      4 CAD         2.4160    0.0080    1.1960 c1        1 CQL     -0.107000
      5 CAE         1.4840    0.0080    2.2300 c1        1 CQL     -0.107000
      6 CAF         1.9930    0.0080   -0.1040 c1        1 CQL     -0.080000
      7 CAG        -1.1610    0.0080   -2.0160 c1        1 CQL     -0.059000
      8 NAH         0.1490    0.0080    1.9470 n1        1 CQL     -0.149000
      9 CAI         0.1980    0.0080   -1.7300 c2        1 CQL     -0.091000
     10 CAJ        -1.6590    0.0080    0.3400 c2        1 CQL      0.161000
     11 CAK        -2.0900    0.0080   -0.9810 c1        1 CQL     -0.309000
     12 CAL         0.6370    0.0080   -0.3920 c2        1 CQL     -0.030000
     13 CAM        -0.2810    0.0080    0.6310 c2        1 CQL     -0.061000
     14 HOAA       -2.8530   -0.8220    1.3260 ho        1 CQL      0.253000
     15 HAD         3.3710    0.0080    1.4000 ha        1 CQL      0.159000
     16 HAE         1.7860    0.0080    3.1590 ha        1 CQL      0.159000
     17 HAF         2.6470    0.0080   -0.8300 ha        1 CQL      0.157000
     18 HAG        -1.4640    0.0140   -2.9440 ha        1 CQL      0.163000
@<TRIPOS>BOND
     1    1   10 1   
     2    1   14 1   
     3    2    9 1   
     4    3   11 1   
     5    4    5 1   
     6    4   15 1   
     7    5   16 1   
     8    6   12 1   
     9    6   17 1   
    10    7    9 1   
    11    7   18 1   
    12    8   13 1   
    13    9   12 1   
    14   10   11 1   
    15   10   13 1   
    16   12   13 1   
@<TRIPOS>SUBSTRUCTURE
     1 CQL         1 TEMP              0 ****  ****    0 ROOT
