@<TRIPOS>MOLECULE
CQL
   18    17     1     0     0
SMALL
bcc


@<TRIPOS>ATOM
      1 OAA        -0.1210    0.2080   -0.2200 oh        1 CQL     -0.229000
      2 IAC        -1.0460    1.4590   -3.0370 i         1 CQL      0.225000
      3 CAD         5.3490    0.9470   -2.5180 c1        1 CQL      0.161000
      4 CAE         3.6970   -0.6500    1.1150 c2        1 CQL     -0.119000
      5 CAF         4.3980    0.8880   -1.5710 c2        1 CQL     -0.457000
      6 CAG         1.4200    0.2760   -3.4930 c1        1 CQL      0.241000
      7 NAH         2.5230   -0.3790    0.6820 n2        1 CQL     -0.145000
      8 CAI         3.2920   -0.8520   -2.7920 c2        1 CQL     -0.243000
      9 CAJ         0.9560    0.1990   -1.0560 c2        1 CQL      0.228000
     10 CAK         0.6520    0.5180   -2.4360 c2        1 CQL     -0.553000
     11 CAL         3.3020   -0.0510   -1.6870 c2        1 CQL      0.068000
     12 CAM         2.2490   -0.0950   -0.6650 c2        1 CQL     -0.202000
     13 HOAA        0.1620   -0.0240    0.6810 ho        1 CQL      0.257000
     14 HAD         4.6300   -0.6930    0.5240 h4        1 CQL      0.124000
     15 HAE         3.7930   -0.8630    2.1960 h4        1 CQL      0.124000
     16 HAF         4.4220    1.5620   -0.6990 ha        1 CQL      0.191000
     17 HAG         2.6490   -1.7100   -3.0110 h4        1 CQL      0.198000
     18 CLAB        4.5960   -0.6130   -3.8770 cl        1 CQL      0.131000
@<TRIPOS>BOND
     1    1    9 1   
     2    1   13 1   
     3    2   10 1   
     4    3    5 1   
     5    4    7 1   
     6    4   14 1   
     7    4   15 1   
     8    5   11 1   
     9    5   16 1   
    10    6   10 1   
    11    7   12 1   
    12    8   11 1   
    13    8   17 1   
    14    8   18 1   
    15    9   10 1   
    16    9   12 1   
    17   11   12 1   
@<TRIPOS>SUBSTRUCTURE
     1 CQL         1 TEMP              0 ****  ****    0 ROOT
