@<TRIPOS>MOLECULE
CQL
   18    17     1     0     0
SMALL
bcc


@<TRIPOS>ATOM
      1 OAA        -0.3130    0.7750   -1.0250 oh        1 CQL     -0.476100
      2 IAC         1.0820   -2.3570   -2.4300 i         1 CQL     -0.094800
      3 CAD         5.5560   -1.1910   -0.2390 c3        1 CQL     -0.026000
      4 CAE         1.2380    1.3880    2.3250 c1        1 CQL      0.469800
      5 CAF         4.2420   -0.6510   -0.1290 c1        1 CQL     -0.070100
      6 CAG         1.7490    0.3380   -3.3060 c1        1 CQL      0.022200
      7 NAH         1.4810    0.9090    1.2700 n1        1 CQL     -1.112500
      8 CAI         2.1600    1.0080   -4.3430 c2        1 CQL     -0.054700
      9 CAJ         0.9640    0.2730   -1.0030 ce        1 CQL      0.149100
     10 CAK         1.3230   -0.3440   -2.2840 ce        1 CQL      0.050700
     11 CAL         3.1340   -0.2030   -0.0480 ch        1 CQL     -0.185300
     12 CAM         1.8310    0.3360    0.0620 cf        1 CQL      0.605000
     13 HOAA       -0.5450    1.1190   -0.1490 ho        1 CQL      0.433000
     14 HAD         5.5130   -2.2990   -0.4020 hc        1 CQL      0.062700
     15 HAE         6.1010   -0.7260   -1.1020 hc        1 CQL      0.062700
     16 HAF         6.1390   -0.9920    0.6980 hc        1 CQL      0.062700
     17 HAG         1.4760    1.4240   -5.1010 h4        1 CQL      0.180000
     18 ClAB        3.7910    1.3210   -4.6570 cl        1 CQL     -0.076400
@<TRIPOS>BOND
     1    1    9 1   
     2    1   13 1   
     3    2   10 1   
     4    3    5 1   
     5    3   14 1   
     6    3   15 1   
     7    3   16 1   
     8    4    7 3   
     9    5   11 3   
    10    6    8 2   
    11    6   10 2   
    12    7   12 1   
    13    8   17 1   
    14    8   18 1   
    15    9   10 1   
    16    9   12 2   
    17   11   12 1   
@<TRIPOS>SUBSTRUCTURE
     1 CQL         1 TEMP              0 ****  ****    0 ROOT
