@<TRIPOS>MOLECULE
CQL
   18    19     1     0     0
SMALL
bcc


@<TRIPOS>ATOM
      1 OAA         0.6260    2.2330   -0.1720 oh        1 CQL     -0.478100
      2 IAC         2.5750   -0.2720   -0.0880 i         1 CQL     -0.105900
      3 CAD        -4.3360    1.1570   -0.0290 ca        1 CQL     -0.232300
      4 CAE        -3.5370    2.3420   -0.1010 ca        1 CQL      0.418200
      5 CAF        -3.7030   -0.0580    0.0170 ca        1 CQL     -0.080000
      6 CAG        -0.1670   -1.3280    0.0120 ca        1 CQL     -0.059000
      7 NAH        -2.2180    2.3380   -0.1250 nb        1 CQL     -0.675000
      8 CAI        -1.5440   -1.3310    0.0380 ca        1 CQL     -0.012600
      9 CAJ        -0.1200    1.0890   -0.1040 ca        1 CQL      0.140800
     10 CAK         0.5590   -0.1200   -0.0590 ca        1 CQL     -0.023100
     11 CAL        -2.2770   -0.1140   -0.0070 ca        1 CQL     -0.095300
     12 CAM        -1.5650    1.1210   -0.0790 ca        1 CQL      0.332600
     13 HOAA        0.0380    3.0060   -0.1980 ho        1 CQL      0.454000
     14 HAD        -5.4310    1.2440   -0.0130 ha        1 CQL      0.152000
     15 HAE        -4.0240    3.3340   -0.1390 h4        1 CQL      0.029100
     16 HAF        -4.2770   -0.9960    0.0720 ha        1 CQL      0.157000
     17 HAG         0.3860   -2.2830    0.0480 ha        1 CQL      0.163000
     18 CLAB       -2.3630   -2.8200    0.1240 cl        1 CQL     -0.085400
@<TRIPOS>BOND
     1    1    9 1   
     2    1   13 1   
     3    2   10 1   
     4    3    4 ar  
     5    3    5 ar  
     6    3   14 1   
     7    4    7 ar  
     8    4   15 1   
     9    5   11 ar  
    10    5   16 1   
    11    6    8 ar  
    12    6   10 ar  
    13    6   17 1   
    14    7   12 ar  
    15    8   11 ar  
    16    8   18 1   
    17    9   10 ar  
    18    9   12 ar  
    19   11   12 ar  
@<TRIPOS>SUBSTRUCTURE
     1 CQL         1 TEMP              0 ****  ****    0 ROOT
