@<TRIPOS>MOLECULE
CQP
   51    47     1     0     0
SMALL
bcc


@<TRIPOS>ATOM
      1 CL1        -8.8880    4.2970    0.1650 cl        1 CQP     -0.017000
      2 C2         -7.1460    4.2680    0.1440 c2        1 CQP     -0.060000
      3 C3         -6.4320    4.6770    1.2620 c1        1 CQP     -0.125000
      4 C4         -5.0420    4.6720    1.2390 c1        1 CQP     -0.121000
      5 C5         -4.3680    4.2570    0.0970 c1        1 CQP     -0.081000
      6 C6         -2.8370    4.2310    0.0800 c2        1 CQP      0.016000
      7 O7         -2.3660    3.0020    0.6860 os        1 CQP     -0.269000
      8 C8         -0.9060    2.8410    0.6460 c3        1 CQP      0.005000
      9 C10        -0.4100    2.7870    1.8870 c3        1 CQP     -0.125000
     10 N10         0.8480    1.7760    1.8290 n3        1 CQP     -0.265000
     11 C13         0.5100    0.8160    0.9900 c3        1 CQP     -0.058000
     12 C14         1.7380    0.3290    0.2190 c3        1 CQP     -0.019000
     13 N15         1.9310   -1.0710    0.4590 n3        1 CQP     -0.894000
     14 S16         1.9770   -2.1340   -0.8250 s4        1 CQP      2.068800
     15 O17         2.5090   -1.5060   -2.0060 o         1 CQP     -0.540900
     16 O18         0.6530   -2.4770   -1.2650 o         1 CQP     -0.540900
     17 C19         2.9140   -3.5930   -0.3890 c1        1 CQP     -0.815000
     18 C20         2.3390   -4.0850    0.7760 c2        1 CQP      0.015000
     19 C21         2.7140   -5.3270    1.2640 c1        1 CQP     -0.170000
     20 C22         3.6690   -6.0820    0.5870 c1        1 CQP     -0.034000
     21 C23         4.2570   -5.5800   -0.6020 c1        1 CQP     -0.126000
     22 C24         5.1720   -6.3720   -1.3270 c1        1 CQP     -0.032000
     23 N25         5.6910   -5.9120   -2.5140 n1        1 CQP     -0.140000
     24 C26         5.3200   -4.6860   -2.9960 c1        1 CQP     -0.127000
     25 C27         4.4160   -3.9000   -2.2840 c1        1 CQP     -0.127000
     26 C28         3.8880   -4.3630   -1.0800 c1        1 CQP      0.085000
     27 C29        -5.0820    3.8480   -1.0200 c2        1 CQP     -0.094000
     28 C31        -0.5280    1.4750    0.0030 c3        1 CQP     -0.182000
     29 C30        -6.4720    3.8540   -0.9970 c2        1 CQP     -0.126000
     30 H3         -6.9090    4.9700    2.0690 ha        1 CQP      0.147000
     31 H4         -4.5380    4.9610    2.0290 ha        1 CQP      0.135000
     32 H6C1       -2.5190    4.2800   -0.8500 h4        1 CQP      0.078500
     33 H6C2       -2.4920    4.9960    0.5830 h4        1 CQP      0.078500
     34 H8         -0.4970    3.5720    0.1500 h1        1 CQP      0.085000
     35 H101       -1.0890    2.4440    2.5080 h1        1 CQP      0.100000
     36 H102       -0.1140    3.6750    2.1690 h1        1 CQP      0.100000
     37 H10         1.5800    2.2190    1.5060 hn        1 CQP      0.142000
     38 H13         0.0940    0.0720    1.4740 h1        1 CQP      0.124000
     39 H141        2.5280    0.8240    0.5190 h1        1 CQP      0.092000
     40 H142        1.6030    0.4800   -0.7390 h1        1 CQP      0.092000
     41 H15         2.1200   -1.3660    1.3000 hn        1 CQP      0.255000
     42 H20         1.6650   -3.5530    1.2540 ha        1 CQP      0.168000
     43 H21         2.3080   -5.6730    2.0860 ha        1 CQP      0.147000
     44 H22         3.9330   -6.9560    0.9310 ha        1 CQP      0.141000
     45 H24         5.4380   -7.2450   -0.9850 ha        1 CQP      0.161000
     46 H26         5.6910   -4.3600   -3.8440 ha        1 CQP      0.165500
     47 H27         4.1520   -3.0280   -2.6290 ha        1 CQP      0.165500
     48 H29        -4.6050    3.5560   -1.8270 ha        1 CQP      0.157000
     49 H311       -0.1210    1.6150   -0.8670 hc        1 CQP      0.107500
     50 H312       -1.3230    0.9090   -0.0810 hc        1 CQP      0.107500
     51 H30        -6.9750    3.5650   -1.7850 ha        1 CQP      0.149000
@<TRIPOS>BOND
     1    1    2 1   
     2    2    3 1   
     3    2   29 1   
     4    3   30 1   
     5    4    5 1   
     6    4   31 1   
     7    5   27 1   
     8    6    7 1   
     9    6   32 1   
    10    6   33 1   
    11    7    8 1   
    12    8    9 1   
    13    8   28 1   
    14    8   34 1   
    15    9   10 1   
    16    9   35 1   
    17    9   36 1   
    18   10   11 1   
    19   10   37 1   
    20   11   12 1   
    21   11   28 1   
    22   11   38 1   
    23   12   13 1   
    24   12   39 1   
    25   12   40 1   
    26   13   14 1   
    27   13   41 1   
    28   14   15 1   
    29   14   16 1   
    30   17   18 1   
    31   17   26 1   
    32   18   19 1   
    33   18   42 1   
    34   19   43 1   
    35   20   21 1   
    36   20   44 1   
    37   21   26 1   
    38   22   23 1   
    39   22   45 1   
    40   24   25 1   
    41   24   46 1   
    42   25   47 1   
    43   27   29 1   
    44   27   48 1   
    45   28   49 1   
    46   28   50 1   
    47   29   51 1   
@<TRIPOS>SUBSTRUCTURE
     1 CQP         1 TEMP              0 ****  ****    0 ROOT
