@<TRIPOS>MOLECULE
CQP
   51    54     1     0     0
SMALL
bcc


@<TRIPOS>ATOM
      1 CL1        -9.7050   -1.1390    1.0250 cl        1 CQP     -0.094400
      2 C2         -8.1830   -0.4780    0.6570 ca        1 CQP      0.018400
      3 C3         -7.9750    0.8990    0.7930 ca        1 CQP     -0.125000
      4 C4         -6.7270    1.4370    0.4910 ca        1 CQP     -0.108500
      5 C5         -5.6860    0.6100    0.0510 ca        1 CQP     -0.089300
      6 C6         -4.3730    1.2360   -0.2830 c3        1 CQP      0.174700
      7 O7         -3.3840    0.2110   -0.3900 os        1 CQP     -0.420600
      8 C8         -2.0740    0.7290   -0.6170 c3        1 CQP      0.116100
      9 C10        -1.3990    1.1420    0.7160 c3        1 CQP      0.120800
     10 N10        -0.3780    0.1630    1.0620 n3        1 CQP     -0.800200
     11 C13        -0.1290   -0.6870   -0.1100 c3        1 CQP      0.143500
     12 C14         1.2570   -0.4010   -0.7470 c3        1 CQP      0.238800
     13 N15         2.3620   -0.6050    0.1410 n3        1 CQP     -0.917100
     14 S16         3.5960   -1.6010   -0.1340 sy        1 CQP      1.511200
     15 O17         3.2890   -2.4880   -1.1940 o         1 CQP     -0.656800
     16 O18         3.9950   -2.1940    1.0820 o         1 CQP     -0.656800
     17 C19         4.8180   -0.5490   -0.6780 ca        1 CQP     -0.367500
     18 C20         5.1780   -0.6000   -2.0130 ca        1 CQP      0.015000
     19 C21         6.1660    0.2480   -2.5560 ca        1 CQP     -0.170000
     20 C22         6.7960    1.1680   -1.7520 ca        1 CQP     -0.035000
     21 C23         6.4660    1.2500   -0.3780 ca        1 CQP     -0.190300
     22 C24         7.1040    2.1930    0.4960 ca        1 CQP      0.433200
     23 N25         6.8420    2.2970    1.7880 nb        1 CQP     -0.666000
     24 C26         5.9120    1.4370    2.3120 ca        1 CQP      0.409200
     25 C27         5.2290    0.4910    1.5700 ca        1 CQP     -0.260300
     26 C28         5.4860    0.3800    0.1720 ca        1 CQP      0.084000
     27 C29        -5.9040   -0.7640   -0.0810 ca        1 CQP     -0.108500
     28 C31        -1.2270   -0.4270   -1.1640 c3        1 CQP     -0.100400
     29 C30        -7.1500   -1.3120    0.2210 ca        1 CQP     -0.125000
     30 H3         -8.7900    1.5540    1.1370 ha        1 CQP      0.148500
     31 H4         -6.5600    2.5190    0.6000 ha        1 CQP      0.145500
     32 H6C1       -4.4470    1.7790   -1.2660 h1        1 CQP      0.039200
     33 H6C2       -4.0730    1.9680    0.5160 h1        1 CQP      0.039200
     34 H8         -2.1170    1.5920   -1.3300 h1        1 CQP      0.051700
     35 H101       -0.8860    2.1340    0.5810 h1        1 CQP      0.056700
     36 H102       -2.1650    1.2460    1.5290 h1        1 CQP      0.056700
     37 H10        -0.6830   -0.4040    1.8310 hn        1 CQP      0.362800
     38 H13        -0.1500   -1.7730    0.1920 h1        1 CQP      0.059700
     39 H141        1.3650   -1.0920   -1.6330 h1        1 CQP      0.054200
     40 H142        1.2680    0.6640   -1.1210 h1        1 CQP      0.054200
     41 H15         2.2960   -0.0720    0.9770 hn        1 CQP      0.461800
     42 H20         4.6830   -1.3290   -2.6840 ha        1 CQP      0.165000
     43 H21         6.4190    0.1640   -3.6240 ha        1 CQP      0.146000
     44 H22         7.5630    1.8470   -2.1580 ha        1 CQP      0.141000
     45 H24         7.8640    2.8830    0.0840 h4        1 CQP      0.024100
     46 H26         5.7420    1.5480    3.3990 h4        1 CQP      0.029100
     47 H27         4.5260   -0.1970    2.0650 ha        1 CQP      0.165000
     48 H29        -5.0840   -1.4160   -0.4230 ha        1 CQP      0.145500
     49 H311       -1.8580   -1.3390   -1.3020 hc        1 CQP      0.067200
     50 H312       -0.7900   -0.1510   -2.1540 hc        1 CQP      0.067200
     51 H30        -7.3150   -2.3950    0.1170 ha        1 CQP      0.148500
@<TRIPOS>BOND
     1    1    2 1   
     2    2    3 ar  
     3    2   29 ar  
     4    3    4 ar  
     5    3   30 1   
     6    4    5 ar  
     7    4   31 1   
     8    5    6 1   
     9    5   27 ar  
    10    6    7 1   
    11    6   32 1   
    12    6   33 1   
    13    7    8 1   
    14    8    9 1   
    15    8   28 1   
    16    8   34 1   
    17    9   10 1   
    18    9   35 1   
    19    9   36 1   
    20   10   11 1   
    21   10   37 1   
    22   11   12 1   
    23   11   28 1   
    24   11   38 1   
    25   12   13 1   
    26   12   39 1   
    27   12   40 1   
    28   13   14 1   
    29   13   41 1   
    30   14   15 2   
    31   14   16 2   
    32   14   17 1   
    33   17   18 ar  
    34   17   26 ar  
    35   18   19 ar  
    36   18   42 1   
    37   19   20 ar  
    38   19   43 1   
    39   20   21 ar  
    40   20   44 1   
    41   21   22 ar  
    42   21   26 ar  
    43   22   23 ar  
    44   22   45 1   
    45   23   24 ar  
    46   24   25 ar  
    47   24   46 1   
    48   25   26 ar  
    49   25   47 1   
    50   27   29 ar  
    51   27   48 1   
    52   28   49 1   
    53   28   50 1   
    54   29   51 1   
@<TRIPOS>SUBSTRUCTURE
     1 CQP         1 TEMP              0 ****  ****    0 ROOT
