@<TRIPOS>MOLECULE
CQP
   52    55     1     0     0
SMALL
bcc


@<TRIPOS>ATOM
      1 CL1         1.1650    1.8230    2.1490 cl        1 CQP     -0.075400
      2 C2          2.2790    0.8930    1.2700 ca        1 CQP      0.025400
      3 C3          2.9420   -0.1690    1.8920 ca        1 CQP     -0.123500
      4 C4          3.8540   -0.9320    1.1640 ca        1 CQP     -0.105000
      5 C5          4.1090   -0.6360   -0.1780 ca        1 CQP     -0.104300
      6 C6          5.0550   -1.4620   -0.9820 c3        1 CQP      0.176700
      7 O7          6.0990   -1.9210   -0.1130 os        1 CQP     -0.419600
      8 C8          7.1410   -2.5990   -0.8020 c3        1 CQP      0.120100
      9 C10         8.2180   -1.5920   -1.2830 c3        1 CQP      0.112800
     10 N10         9.3460   -1.6260   -0.3560 n3        1 CQP     -0.828200
     11 C13         9.2530   -2.8660    0.4240 c3        1 CQP      0.142500
     12 C14        10.3140   -3.8940   -0.0390 c3        1 CQP      0.099800
     13 N15        11.6790   -3.3360   -0.1530 n4        1 CQP     -0.693900
     14 S16        12.9280   -4.6730   -0.6230 sy        1 CQP      1.483200
     15 O17        12.4850   -5.0590   -1.8770 o         1 CQP     -0.578300
     16 O18        12.8110   -5.5410    0.4440 o         1 CQP     -0.578300
     17 C19        14.2240   -3.7230   -0.6630 ca        1 CQP     -0.553500
     18 C20        14.7750   -3.3980   -1.9150 ca        1 CQP      0.068000
     19 C21        15.9190   -2.6110   -2.0500 ca        1 CQP     -0.184000
     20 C22        16.5520   -2.1130   -0.9230 ca        1 CQP      0.055000
     21 C23        16.0400   -2.4050    0.3590 ca        1 CQP     -0.213300
     22 C24        16.6710   -1.8990    1.5500 ca        1 CQP      0.475200
     23 N25        16.2390   -2.1520    2.7730 nb        1 CQP     -0.646000
     24 C26        15.1360   -2.9510    2.9020 ca        1 CQP      0.477200
     25 C27        14.4400   -3.4900    1.8290 ca        1 CQP     -0.333300
     26 C28        14.8830   -3.2210    0.5060 ca        1 CQP      0.112000
     27 C29         3.4440    0.4310   -0.7930 ca        1 CQP     -0.105000
     28 C31         7.8500   -3.4840    0.2360 c3        1 CQP     -0.102400
     29 C30         2.5270    1.1940   -0.0740 ca        1 CQP     -0.123500
     30 H3          2.7450   -0.4060    2.9490 ha        1 CQP      0.154000
     31 H4          4.3810   -1.7680    1.6470 ha        1 CQP      0.141000
     32 H6C1        5.5030   -0.8620   -1.8200 h1        1 CQP      0.042700
     33 H6C2        4.5240   -2.3570   -1.4110 h1        1 CQP      0.042700
     34 H8          6.7340   -3.1960   -1.6570 h1        1 CQP      0.068700
     35 H101        8.5950   -1.8980   -2.2960 h1        1 CQP      0.071700
     36 H102        7.7850   -0.5590   -1.3590 h1        1 CQP      0.071700
     37 H10         9.3100   -0.8350    0.2610 hn        1 CQP      0.379800
     38 H13         9.4340   -2.6560    1.5170 h1        1 CQP      0.068700
     39 H141       10.0320   -4.3010   -1.0540 hx        1 CQP      0.108700
     40 H142       10.3390   -4.7380    0.7090 hx        1 CQP      0.108700
     41 H15        11.6620   -2.5900   -0.8530 hn        1 CQP      0.453800
     42 H20        14.2890   -3.7860   -2.8350 ha        1 CQP      0.176000
     43 H21        16.3160   -2.3940   -3.0570 ha        1 CQP      0.179000
     44 H22        17.4580   -1.4880   -1.0160 ha        1 CQP      0.171000
     45 H24        17.5730   -1.2600    1.4590 h4        1 CQP      0.051100
     46 H26        14.8280   -3.1520    3.9480 h4        1 CQP      0.054100
     47 H27        13.5950   -4.1660    2.0280 ha        1 CQP      0.163000
     48 H29         3.6390    0.6700   -1.8490 ha        1 CQP      0.141000
     49 H311        7.2880   -3.4680    1.2040 hc        1 CQP      0.081700
     50 H312        7.9030   -4.5400   -0.1220 hc        1 CQP      0.081700
     51 H30         2.0010    2.0290   -0.5630 ha        1 CQP      0.154000
     52 H152       11.9310   -2.8990    0.7320 hn        1 CQP      0.453800
@<TRIPOS>BOND
     1    1    2 1   
     2    2    3 ar  
     3    2   29 ar  
     4    3    4 ar  
     5    3   30 1   
     6    4    5 ar  
     7    4   31 1   
     8    5    6 1   
     9    5   27 ar  
    10    6    7 1   
    11    6   32 1   
    12    6   33 1   
    13    7    8 1   
    14    8    9 1   
    15    8   28 1   
    16    8   34 1   
    17    9   10 1   
    18    9   35 1   
    19    9   36 1   
    20   10   11 1   
    21   10   37 1   
    22   11   12 1   
    23   11   28 1   
    24   11   38 1   
    25   12   13 1   
    26   12   39 1   
    27   12   40 1   
    28   13   14 1   
    29   13   41 1   
    30   13   52 1   
    31   14   15 2   
    32   14   16 2   
    33   14   17 1   
    34   17   18 ar  
    35   17   26 ar  
    36   18   19 ar  
    37   18   42 1   
    38   19   20 ar  
    39   19   43 1   
    40   20   21 ar  
    41   20   44 1   
    42   21   22 ar  
    43   21   26 ar  
    44   22   23 ar  
    45   22   45 1   
    46   23   24 ar  
    47   24   25 ar  
    48   24   46 1   
    49   25   26 ar  
    50   25   47 1   
    51   27   29 ar  
    52   27   48 1   
    53   28   49 1   
    54   28   50 1   
    55   29   51 1   
@<TRIPOS>SUBSTRUCTURE
     1 CQP         1 TEMP              0 ****  ****    0 ROOT
