@<TRIPOS>MOLECULE
CQP
   52    55     1     0     0
SMALL
bcc


@<TRIPOS>ATOM
      1 CL1         1.1550    1.8320    2.0800 cl        1 CQP     -0.075400
      2 C2          2.2700    0.8860    1.2180 ca        1 CQP      0.025400
      3 C3          2.9390   -0.1590    1.8610 ca        1 CQP     -0.123500
      4 C4          3.8520   -0.9340    1.1480 ca        1 CQP     -0.105000
      5 C5          4.1020   -0.6670   -0.2010 ca        1 CQP     -0.104300
      6 C6          5.0490   -1.5070   -0.9900 c3        1 CQP      0.176700
      7 O7          6.0980   -1.9420   -0.1140 os        1 CQP     -0.419600
      8 C8          7.1410   -2.6300   -0.7910 c3        1 CQP      0.120100
      9 C10         8.2120   -1.6280   -1.2970 c3        1 CQP      0.112800
     10 N10         9.3420   -1.6370   -0.3710 n3        1 CQP     -0.828200
     11 C13         9.2570   -2.8610    0.4350 c3        1 CQP      0.142500
     12 C14        10.3220   -3.8920   -0.0080 c3        1 CQP      0.099800
     13 N15        11.6840   -3.3300   -0.1360 n4        1 CQP     -0.693900
     14 S16        12.9400   -4.6700   -0.5790 sy        1 CQP      1.483200
     15 O17        12.4990   -5.0830   -1.8250 o         1 CQP     -0.578300
     16 O18        12.8260   -5.5170    0.5050 o         1 CQP     -0.578300
     17 C19        14.2310   -3.7140   -0.6380 ca        1 CQP     -0.553500
     18 C20        14.7800   -3.4110   -1.8960 ca        1 CQP      0.068000
     19 C21        15.9210   -2.6230   -2.0460 ca        1 CQP     -0.184000
     20 C22        16.5510   -2.0990   -0.9290 ca        1 CQP      0.055000
     21 C23        16.0400   -2.3680    0.3590 ca        1 CQP     -0.213300
     22 C24        16.6700   -1.8360    1.5390 ca        1 CQP      0.475200
     23 N25        16.2390   -2.0680    2.7670 nb        1 CQP     -0.646000
     24 C26        15.1400   -2.8690    2.9120 ca        1 CQP      0.477200
     25 C27        14.4460   -3.4320    1.8490 ca        1 CQP     -0.333300
     26 C28        14.8880   -3.1870    0.5210 ca        1 CQP      0.112000
     27 C29         3.4310    0.3840   -0.8370 ca        1 CQP     -0.105000
     28 C31         7.8570   -3.4900    0.2630 c3        1 CQP     -0.102400
     29 C30         2.5130    1.1590   -0.1330 ca        1 CQP     -0.123500
     30 H3          2.7450   -0.3730    2.9240 ha        1 CQP      0.154000
     31 H4          4.3840   -1.7580    1.6470 ha        1 CQP      0.141000
     32 H6C1        5.4920   -0.9230   -1.8420 h1        1 CQP      0.042700
     33 H6C2        4.5210   -2.4130   -1.3970 h1        1 CQP      0.042700
     34 H8          6.7340   -3.2470   -1.6320 h1        1 CQP      0.068700
     35 H101        8.5880   -1.9540   -2.3040 h1        1 CQP      0.071700
     36 H102        7.7740   -0.5990   -1.3930 h1        1 CQP      0.071700
     37 H10         9.3030   -0.8330    0.2290 hn        1 CQP      0.379800
     38 H13         9.4380   -2.6270    1.5240 h1        1 CQP      0.068700
     39 H141       10.3530   -4.7210    0.7580 hx        1 CQP      0.108700
     40 H142       10.0400   -4.3220   -1.0140 hx        1 CQP      0.108700
     41 H15        11.9350   -2.8730    0.7390 hn        1 CQP      0.453800
     42 H20        14.2960   -3.8200   -2.8080 ha        1 CQP      0.176000
     43 H21        16.3170   -2.4230   -3.0570 ha        1 CQP      0.179000
     44 H22        17.4540   -1.4720   -1.0350 ha        1 CQP      0.171000
     45 H24        17.5690   -1.1960    1.4360 h4        1 CQP      0.051100
     46 H26        14.8320   -3.0510    3.9610 h4        1 CQP      0.054100
     47 H27        13.6040   -4.1080    2.0620 ha        1 CQP      0.163000
     48 H29         3.6230    0.6000   -1.8990 ha        1 CQP      0.141000
     49 H311        7.9140   -4.5520   -0.0730 hc        1 CQP      0.081700
     50 H312        7.2970   -3.4570    1.2320 hc        1 CQP      0.081700
     51 H30         1.9830    1.9820   -0.6380 ha        1 CQP      0.154000
     52 H152       11.6620   -2.5990   -0.8510 hn        1 CQP      0.453800
@<TRIPOS>BOND
     1    1    2 1   
     2    2    3 ar  
     3    2   29 ar  
     4    3    4 ar  
     5    3   30 1   
     6    4    5 ar  
     7    4   31 1   
     8    5    6 1   
     9    5   27 ar  
    10    6    7 1   
    11    6   32 1   
    12    6   33 1   
    13    7    8 1   
    14    8    9 1   
    15    8   28 1   
    16    8   34 1   
    17    9   10 1   
    18    9   35 1   
    19    9   36 1   
    20   10   11 1   
    21   10   37 1   
    22   11   12 1   
    23   11   28 1   
    24   11   38 1   
    25   12   13 1   
    26   12   39 1   
    27   12   40 1   
    28   13   14 1   
    29   13   41 1   
    30   13   52 1   
    31   14   15 2   
    32   14   16 2   
    33   14   17 1   
    34   17   18 ar  
    35   17   26 ar  
    36   18   19 ar  
    37   18   42 1   
    38   19   20 ar  
    39   19   43 1   
    40   20   21 ar  
    41   20   44 1   
    42   21   22 ar  
    43   21   26 ar  
    44   22   23 ar  
    45   22   45 1   
    46   23   24 ar  
    47   24   25 ar  
    48   24   46 1   
    49   25   26 ar  
    50   25   47 1   
    51   27   29 ar  
    52   27   48 1   
    53   28   49 1   
    54   28   50 1   
    55   29   51 1   
@<TRIPOS>SUBSTRUCTURE
     1 CQP         1 TEMP              0 ****  ****    0 ROOT
