@<TRIPOS>MOLECULE
CQP
   52    55     1     0     0
SMALL
bcc


@<TRIPOS>ATOM
      1 Cl1         1.1660    1.8970    2.0130 cl        1 CQP     -0.075400
      2 C2          2.2780    0.9330    1.1680 ca        1 CQP      0.025400
      3 C3          2.9450   -0.1020    1.8310 ca        1 CQP     -0.123500
      4 C4          3.8550   -0.8930    1.1320 ca        1 CQP     -0.105000
      5 C5          4.1060   -0.6520   -0.2220 ca        1 CQP     -0.104300
      6 C6          5.0510   -1.5090   -0.9950 c3        1 CQP      0.176700
      7 O7          6.0980   -1.9290   -0.1100 os        1 CQP     -0.419600
      8 C8          7.1390   -2.6340   -0.7740 c3        1 CQP      0.120100
      9 C10         8.2130   -1.6470   -1.3010 c3        1 CQP      0.112800
     10 N10         9.3440   -1.6420   -0.3770 n7        1 CQP     -0.828200
     11 C13         9.2550   -2.8490    0.4540 c3        1 CQP      0.142500
     12 C14        10.3160   -3.8940    0.0290 c3        1 CQP      0.099800
     13 N15        11.6800   -3.3390   -0.1130 ny        1 CQP     -0.693900
     14 S16        12.9280   -4.6940   -0.5340 sy        1 CQP      1.483200
     15 O17        12.4810   -5.1300   -1.7700 o         1 CQP     -0.578300
     16 O18        12.8160   -5.5180    0.5680 o         1 CQP     -0.578300
     17 C19        14.2240   -3.7440   -0.6170 ca        1 CQP     -0.553500
     18 C20        14.7690   -3.4690   -1.8820 ca        1 CQP      0.068000
     19 C21        15.9130   -2.6880   -2.0530 ca        1 CQP     -0.184000
     20 C22        16.5490   -2.1450   -0.9490 ca        1 CQP      0.055000
     21 C23        16.0420   -2.3850    0.3460 ca        1 CQP     -0.213300
     22 C24        16.6770   -1.8320    1.5120 ca        1 CQP      0.475200
     23 N25        16.2500   -2.0370    2.7470 nb        1 CQP     -0.646000
     24 C26        15.1480   -2.8300    2.9120 ca        1 CQP      0.477200
     25 C27        14.4480   -3.4120    1.8630 ca        1 CQP     -0.333300
     26 C28        14.8870   -3.1960    0.5290 ca        1 CQP      0.112000
     27 C29         3.4380    0.3890   -0.8770 ca        1 CQP     -0.105000
     28 C31         7.8530   -3.4750    0.2960 c3        1 CQP     -0.102400
     29 C30         2.5220    1.1800   -0.1880 ca        1 CQP     -0.123500
     30 H3          2.7500   -0.2960    2.8970 ha        1 CQP      0.154000
     31 H4          4.3850   -1.7090    1.6460 ha        1 CQP      0.141000
     32 H6C1        5.4950   -0.9420   -1.8570 h1        1 CQP      0.042700
     33 H6C2        4.5200   -2.4210   -1.3850 h1        1 CQP      0.042700
     34 H8          6.7300   -3.2670   -1.6030 h1        1 CQP      0.068700
     35 H101        7.7780   -0.6180   -1.4160 h1        1 CQP      0.071700
     36 H102        8.5870   -1.9930   -2.3020 h1        1 CQP      0.071700
     37 H10         9.3090   -0.8260    0.2080 hn        1 CQP      0.379800
     38 H13         9.4400   -2.5940    1.5370 h1        1 CQP      0.068700
     39 H141       10.0300   -4.3420   -0.9680 hx        1 CQP      0.108700
     40 H142       10.3450   -4.7070    0.8100 hx        1 CQP      0.108700
     41 H15        11.9350   -2.8670    0.7530 hn        1 CQP      0.453800
     42 H20        14.2800   -3.8940   -2.7840 ha        1 CQP      0.176000
     43 H21        16.3060   -2.5120   -3.0690 ha        1 CQP      0.179000
     44 H22        17.4540   -1.5230   -1.0710 ha        1 CQP      0.171000
     45 H24        17.5790   -1.1970    1.3930 h4        1 CQP      0.051100
     46 H26        14.8440   -2.9890    3.9660 h4        1 CQP      0.054100
     47 H27        13.6050   -4.0800    2.0920 ha        1 CQP      0.163000
     48 H29         3.6300    0.5850   -1.9430 ha        1 CQP      0.141000
     49 H311        7.9050   -4.5450   -0.0180 hc        1 CQP      0.081700
     50 H312        7.2940   -3.4200    1.2650 hc        1 CQP      0.081700
     51 H30         1.9950    1.9940   -0.7080 ha        1 CQP      0.154000
     52 H152       11.6590   -2.6230   -0.8420 hn        1 CQP      0.453800
@<TRIPOS>BOND
     1    1    2 1   
     2    2    3 ar  
     3    2   29 ar  
     4    3    4 ar  
     5    3   30 1   
     6    4    5 ar  
     7    4   31 1   
     8    5    6 1   
     9    5   27 ar  
    10    6    7 1   
    11    6   32 1   
    12    6   33 1   
    13    7    8 1   
    14    8    9 1   
    15    8   28 1   
    16    8   34 1   
    17    9   10 1   
    18    9   35 1   
    19    9   36 1   
    20   10   11 1   
    21   10   37 1   
    22   11   12 1   
    23   11   28 1   
    24   11   38 1   
    25   12   13 1   
    26   12   39 1   
    27   12   40 1   
    28   13   14 1   
    29   13   41 1   
    30   13   52 1   
    31   14   15 2   
    32   14   16 2   
    33   14   17 1   
    34   17   18 ar  
    35   17   26 ar  
    36   18   19 ar  
    37   18   42 1   
    38   19   20 ar  
    39   19   43 1   
    40   20   21 ar  
    41   20   44 1   
    42   21   22 ar  
    43   21   26 ar  
    44   22   23 ar  
    45   22   45 1   
    46   23   24 ar  
    47   24   25 ar  
    48   24   46 1   
    49   25   26 ar  
    50   25   47 1   
    51   27   29 ar  
    52   27   48 1   
    53   28   49 1   
    54   28   50 1   
    55   29   51 1   
@<TRIPOS>SUBSTRUCTURE
     1 CQP         1 TEMP              0 ****  ****    0 ROOT
