@<TRIPOS>MOLECULE
CQQ
   67    70     1     0     0
SMALL
bcc


@<TRIPOS>ATOM
      1 C01        -0.0730    0.5120   -0.2940 ca        1 CQQ      0.418200
      2 N02         1.2530    0.3200   -0.3990 nb        1 CQQ     -0.665000
      3 C03         1.8640   -0.3590    0.5920 ca        1 CQQ      0.408200
      4 C04         1.1870   -0.8610    1.7180 ca        1 CQQ     -0.254300
      5 C05        -0.1900   -0.6530    1.8180 ca        1 CQQ     -0.051000
      6 C06        -0.8460    0.0400    0.7920 cp        1 CQQ     -0.277800
      7 C07        -2.2960    0.2830    0.8220 cp        1 CQQ      0.538800
      8 N08        -2.8910    0.5310    2.0120 nb        1 CQQ     -0.745000
      9 C09        -3.0280    0.2420   -0.3880 ca        1 CQQ     -0.404600
     10 C10        -4.4100    0.4760   -0.3020 ca        1 CQQ      0.461200
     11 N11        -5.0500    0.7370    0.8470 nb        1 CQQ     -0.732000
     12 C12        -4.2600    0.7710    1.9890 ca        1 CQQ      0.870900
     13 N13        -4.8380    1.1290    3.2260 nu        1 CQQ     -0.709300
     14 C14        -6.2340    1.0620    3.4500 ca        1 CQQ      0.159600
     15 C15        -6.7140    0.2890    4.5300 ca        1 CQQ     -0.190000
     16 C16        -7.1360    1.8180    2.6780 ca        1 CQQ     -0.126000
     17 C17        -8.4940    1.7860    2.9860 ca        1 CQQ     -0.094000
     18 C18        -8.9790    1.0380    4.0500 ca        1 CQQ     -0.191000
     19 C19        -8.0840    0.2800    4.8430 ca        1 CQQ      0.073600
     20 N20        -8.6170   -0.4820    5.9020 ns        1 CQQ     -0.465100
     21 C21        -7.9190   -1.0460    6.9570 c         1 CQQ      0.679700
     22 O22        -6.6830   -0.9760    7.0830 o         1 CQQ     -0.580100
     23 C23        -8.7440   -1.7630    7.9780 ca        1 CQQ     -0.158600
     24 C24        -8.4070   -1.6090    9.3250 ca        1 CQQ     -0.064000
     25 C25        -9.1200   -2.2730   10.3190 ca        1 CQQ     -0.169000
     26 C26        -9.8000   -2.6070    7.6230 ca        1 CQQ     -0.064000
     27 C27       -10.5180   -3.2830    8.6030 ca        1 CQQ     -0.169000
     28 C28       -10.1890   -3.1230    9.9710 ca        1 CQQ      0.067600
     29 N29       -10.9510   -3.8350   10.9200 ns        1 CQQ     -0.454100
     30 C30       -10.7910   -3.8320   12.2890 c         1 CQQ      0.666100
     31 O31        -9.9420   -3.1580   12.9000 o         1 CQQ     -0.590100
     32 C32       -11.7470   -4.7340   13.0730 c3        1 CQQ     -0.160400
     33 C33       -11.4270   -4.6160   14.5500 c3        1 CQQ     -0.103400
     34 C34       -12.3350   -5.5350   15.3550 c3        1 CQQ      0.105800
     35 N35       -12.1300   -5.4020   16.8380 nx        1 CQQ     -0.679400
     36 C36       -13.2890   -5.9630   17.5800 c3        1 CQQ      0.081100
     37 C37       -10.8660   -6.0530   17.2730 c3        1 CQQ      0.081100
     38 H1         -0.5430    1.0830   -1.1160 h4        1 CQQ      0.028100
     39 H2          2.9540   -0.5010    0.4740 h4        1 CQQ      0.027100
     40 H3          1.7340   -1.4020    2.5010 ha        1 CQQ      0.147000
     41 H4         -0.7490   -1.0280    2.6890 ha        1 CQQ      0.154000
     42 H5         -2.5420    0.0250   -1.3450 ha        1 CQQ      0.160000
     43 H6         -5.0500    0.4500   -1.2050 h4        1 CQQ      0.030100
     44 H7         -4.2820    0.8990    4.0270 hn        1 CQQ      0.443800
     45 H8         -6.0070   -0.3020    5.1370 ha        1 CQQ      0.170000
     46 H9         -6.7850    2.4350    1.8370 ha        1 CQQ      0.160000
     47 H10        -9.1970    2.3740    2.3750 ha        1 CQQ      0.139000
     48 H11       -10.0570    1.0430    4.2660 ha        1 CQQ      0.129000
     49 H12        -9.6110   -0.5140    5.9440 hn        1 CQQ      0.317500
     50 H13        -7.5560   -0.9620    9.5990 ha        1 CQQ      0.157000
     51 H14        -8.8280   -2.1250   11.3720 ha        1 CQQ      0.155500
     52 H15       -10.0640   -2.7630    6.5650 ha        1 CQQ      0.157000
     53 H16       -11.3410   -3.9460    8.2950 ha        1 CQQ      0.155500
     54 H17       -11.6680   -4.4150   10.5420 hn        1 CQQ      0.321500
     55 H18       -12.8050   -4.4200   12.8750 hc        1 CQQ      0.076700
     56 H19       -11.6250   -5.7950   12.7310 hc        1 CQQ      0.076700
     57 H20       -11.5560   -3.5440   14.8650 hc        1 CQQ      0.087700
     58 H21       -13.4150   -5.2860   15.1370 hx        1 CQQ      0.103200
     59 H22       -12.1520   -6.6120   15.0760 hx        1 CQQ      0.103200
     60 H24       -13.4180   -7.0450   17.3120 hx        1 CQQ      0.107700
     61 H25       -13.1040   -5.8690   18.6840 hx        1 CQQ      0.107700
     62 H26       -14.2190   -5.3950   17.3060 hx        1 CQQ      0.107700
     63 H27       -10.7230   -5.8880   18.3750 hx        1 CQQ      0.107700
     64 H28       -10.9180   -7.1550   17.0630 hx        1 CQQ      0.107700
     65 H29       -10.0020   -5.6040   16.7120 hx        1 CQQ      0.107700
     66 H30       -10.3460   -4.8770   14.7080 hc        1 CQQ      0.087700
     67 H351      -12.0600   -4.3970   17.0550 hn        1 CQQ      0.454800
@<TRIPOS>BOND
     1    1    2 ar  
     2    1    6 ar  
     3    1   38 1   
     4    2    3 ar  
     5    3    4 ar  
     6    3   39 1   
     7    4    5 ar  
     8    4   40 1   
     9    5    6 ar  
    10    5   41 1   
    11    6    7 1   
    12    7    8 ar  
    13    7    9 ar  
    14    8   12 ar  
    15    9   10 ar  
    16    9   42 1   
    17   10   11 ar  
    18   10   43 1   
    19   11   12 ar  
    20   12   13 1   
    21   13   14 1   
    22   13   44 1   
    23   14   15 ar  
    24   14   16 ar  
    25   15   19 ar  
    26   15   45 1   
    27   16   17 ar  
    28   16   46 1   
    29   17   18 ar  
    30   17   47 1   
    31   18   19 ar  
    32   18   48 1   
    33   19   20 1   
    34   20   21 1   
    35   20   49 1   
    36   21   22 2   
    37   21   23 1   
    38   23   24 ar  
    39   23   26 ar  
    40   24   25 ar  
    41   24   50 1   
    42   25   28 ar  
    43   25   51 1   
    44   26   27 ar  
    45   26   52 1   
    46   27   28 ar  
    47   27   53 1   
    48   28   29 1   
    49   29   30 1   
    50   29   54 1   
    51   30   31 2   
    52   30   32 1   
    53   32   33 1   
    54   32   55 1   
    55   32   56 1   
    56   33   34 1   
    57   33   57 1   
    58   33   66 1   
    59   34   35 1   
    60   34   58 1   
    61   34   59 1   
    62   35   36 1   
    63   35   37 1   
    64   35   67 1   
    65   36   60 1   
    66   36   61 1   
    67   36   62 1   
    68   37   63 1   
    69   37   64 1   
    70   37   65 1   
@<TRIPOS>SUBSTRUCTURE
     1 CQQ         1 TEMP              0 ****  ****    0 ROOT
