@<TRIPOS>MOLECULE
CQQ
   67    70     1     0     0
SMALL
bcc


@<TRIPOS>ATOM
      1 C01        -0.0780    0.5060   -0.2970 ca        1 CQQ      0.418200
      2 N02         1.2470    0.3060   -0.4060 nb        1 CQQ     -0.665000
      3 C03         1.8560   -0.3810    0.5810 ca        1 CQQ      0.408200
      4 C04         1.1780   -0.8830    1.7060 ca        1 CQQ     -0.254300
      5 C05        -0.1970   -0.6680    1.8100 ca        1 CQQ     -0.051000
      6 C06        -0.8510    0.0340    0.7880 cp        1 CQQ     -0.277800
      7 C07        -2.2990    0.2860    0.8220 cp        1 CQQ      0.538800
      8 N08        -2.8900    0.5330    2.0150 nb        1 CQQ     -0.745000
      9 C09        -3.0340    0.2550   -0.3860 ca        1 CQQ     -0.404600
     10 C10        -4.4140    0.4960   -0.2960 ca        1 CQQ      0.461200
     11 N11        -5.0500    0.7570    0.8560 nb        1 CQQ     -0.732000
     12 C12        -4.2570    0.7820    1.9960 ca        1 CQQ      0.870900
     13 N13        -4.8310    1.1380    3.2360 nh        1 CQQ     -0.709300
     14 C14        -6.2260    1.0780    3.4620 ca        1 CQQ      0.159600
     15 C15        -6.7090    0.3030    4.5400 ca        1 CQQ     -0.190000
     16 C16        -7.1260    1.8440    2.6960 ca        1 CQQ     -0.126000
     17 C17        -8.4830    1.8180    3.0060 ca        1 CQQ     -0.094000
     18 C18        -8.9700    1.0680    4.0680 ca        1 CQQ     -0.191000
     19 C19        -8.0790    0.3010    4.8560 ca        1 CQQ      0.073600
     20 N20        -8.6140   -0.4630    5.9120 n         1 CQQ     -0.465100
     21 C21        -7.9170   -1.0370    6.9620 c         1 CQQ      0.679700
     22 O22        -6.6800   -0.9750    7.0850 o         1 CQQ     -0.580100
     23 C23        -8.7450   -1.7540    7.9810 ca        1 CQQ     -0.158600
     24 C24        -8.4030   -1.6090    9.3290 ca        1 CQQ     -0.064000
     25 C25        -9.1180   -2.2740   10.3210 ca        1 CQQ     -0.169000
     26 C26        -9.8070   -2.5900    7.6250 ca        1 CQQ     -0.064000
     27 C27       -10.5260   -3.2660    8.6020 ca        1 CQQ     -0.169000
     28 C28       -10.1930   -3.1160    9.9710 ca        1 CQQ      0.067600
     29 N29       -10.9570   -3.8280   10.9180 n         1 CQQ     -0.454100
     30 C30       -10.7910   -3.8360   12.2860 c         1 CQQ      0.666100
     31 O31        -9.9350   -3.1720   12.8990 o         1 CQQ     -0.590100
     32 C32       -11.7510   -4.7360   13.0680 c3        1 CQQ     -0.160400
     33 C33       -11.4250   -4.6300   14.5450 c3        1 CQQ     -0.103400
     34 C34       -12.3370   -5.5470   15.3470 c3        1 CQQ      0.105800
     35 N35       -12.1250   -5.4250   16.8300 n4        1 CQQ     -0.679400
     36 C36       -13.2860   -5.9810   17.5730 c3        1 CQQ      0.081100
     37 C37       -10.8640   -6.0900   17.2560 c3        1 CQQ      0.081100
     38 H1         -0.5460    1.0830   -1.1160 h4        1 CQQ      0.028100
     39 H2          2.9450   -0.5290    0.4600 h4        1 CQQ      0.027100
     40 H3          1.7240   -1.4310    2.4850 ha        1 CQQ      0.147000
     41 H4         -0.7560   -1.0430    2.6810 ha        1 CQQ      0.154000
     42 H5         -2.5520    0.0380   -1.3450 ha        1 CQQ      0.160000
     43 H6         -5.0560    0.4780   -1.1970 h4        1 CQQ      0.030100
     44 H7         -4.2750    0.9010    4.0350 hn        1 CQQ      0.443800
     45 H8         -6.0040   -0.2950    5.1420 ha        1 CQQ      0.170000
     46 H9         -6.7720    2.4620    1.8570 ha        1 CQQ      0.160000
     47 H10        -9.1840    2.4130    2.4000 ha        1 CQQ      0.139000
     48 H11       -10.0480    1.0790    4.2860 ha        1 CQQ      0.129000
     49 H12        -9.6080   -0.4890    5.9570 hn        1 CQQ      0.317500
     50 H13        -7.5480   -0.9690    9.6040 ha        1 CQQ      0.157000
     51 H14        -8.8220   -2.1330   11.3740 ha        1 CQQ      0.155500
     52 H15       -10.0740   -2.7380    6.5660 ha        1 CQQ      0.157000
     53 H16       -11.3540   -3.9230    8.2930 ha        1 CQQ      0.155500
     54 H17       -11.6790   -4.4000   10.5390 hn        1 CQQ      0.321500
     55 H18       -11.6390   -5.7960   12.7190 hc        1 CQQ      0.076700
     56 H19       -12.8080   -4.4120   12.8760 hc        1 CQQ      0.076700
     57 H20       -10.3450   -4.9010   14.6970 hc        1 CQQ      0.087700
     58 H21       -13.4150   -5.2870   15.1350 hx        1 CQQ      0.103200
     59 H22       -12.1640   -6.6230   15.0610 hx        1 CQQ      0.103200
     60 H24       -13.0960   -5.8960   18.6770 hx        1 CQQ      0.107700
     61 H25       -13.4250   -7.0600   17.2980 hx        1 CQQ      0.107700
     62 H26       -14.2120   -5.4030   17.3070 hx        1 CQQ      0.107700
     63 H27       -10.7170   -5.9330   18.3580 hx        1 CQQ      0.107700
     64 H28       -10.9270   -7.1890   17.0390 hx        1 CQQ      0.107700
     65 H29        -9.9990   -5.6440   16.6940 hx        1 CQQ      0.107700
     66 H30       -11.5430   -3.5590   14.8660 hc        1 CQQ      0.087700
     67 H351      -12.0460   -4.4220   17.0540 hn        1 CQQ      0.454800
@<TRIPOS>BOND
     1    1    2 ar  
     2    1    6 ar  
     3    1   38 1   
     4    2    3 ar  
     5    3    4 ar  
     6    3   39 1   
     7    4    5 ar  
     8    4   40 1   
     9    5    6 ar  
    10    5   41 1   
    11    6    7 1   
    12    7    8 ar  
    13    7    9 ar  
    14    8   12 ar  
    15    9   10 ar  
    16    9   42 1   
    17   10   11 ar  
    18   10   43 1   
    19   11   12 ar  
    20   12   13 1   
    21   13   14 1   
    22   13   44 1   
    23   14   15 ar  
    24   14   16 ar  
    25   15   19 ar  
    26   15   45 1   
    27   16   17 ar  
    28   16   46 1   
    29   17   18 ar  
    30   17   47 1   
    31   18   19 ar  
    32   18   48 1   
    33   19   20 1   
    34   20   21 1   
    35   20   49 1   
    36   21   22 2   
    37   21   23 1   
    38   23   24 ar  
    39   23   26 ar  
    40   24   25 ar  
    41   24   50 1   
    42   25   28 ar  
    43   25   51 1   
    44   26   27 ar  
    45   26   52 1   
    46   27   28 ar  
    47   27   53 1   
    48   28   29 1   
    49   29   30 1   
    50   29   54 1   
    51   30   31 2   
    52   30   32 1   
    53   32   33 1   
    54   32   55 1   
    55   32   56 1   
    56   33   34 1   
    57   33   57 1   
    58   33   66 1   
    59   34   35 1   
    60   34   58 1   
    61   34   59 1   
    62   35   36 1   
    63   35   37 1   
    64   35   67 1   
    65   36   60 1   
    66   36   61 1   
    67   36   62 1   
    68   37   63 1   
    69   37   64 1   
    70   37   65 1   
@<TRIPOS>SUBSTRUCTURE
     1 CQQ         1 TEMP              0 ****  ****    0 ROOT
