@<TRIPOS>MOLECULE
CQQ
   66    56     1     0     0
SMALL
bcc


@<TRIPOS>ATOM
      1 C01         0.8960    7.7380   -7.8390 c1        1 CQQ     -0.123500
      2 N02         0.8700    8.2890   -9.0940 n1        1 CQQ     -0.141000
      3 C03         1.9590    8.1820   -9.9130 c1        1 CQQ     -0.060000
      4 C04         3.0970    7.5110   -9.4740 c1        1 CQQ     -0.123750
      5 C05         3.1240    6.9560   -8.2110 c1        1 CQQ     -0.123750
      6 C06         2.0320    7.0660   -7.3940 c1        1 CQQ      0.002000
      7 C07         2.0170    6.3540   -6.0210 c1        1 CQQ      0.101000
      8 N08         1.6580    5.0670   -5.9340 n1        1 CQQ     -0.223000
      9 C09         2.4090    7.0230   -4.9080 c2        1 CQQ     -0.278000
     10 C10         2.4370    6.3860   -3.7030 c1        1 CQQ     -0.004000
     11 N11         2.0800    5.1080   -3.6160 n1        1 CQQ     -0.204000
     12 C12         1.6870    4.4330   -4.7230 c1        1 CQQ      0.153000
     13 N13         1.4160    3.0570   -4.6390 n2        1 CQQ     -0.226000
     14 C14         2.0510    2.2720   -3.6380 c2        1 CQQ      0.068000
     15 C15         1.3150    1.8060   -2.5480 c2        1 CQQ     -0.161000
     16 C16         3.4170    2.0390   -3.7020 c1        1 CQQ     -0.192000
     17 C17         4.0570    1.3380   -2.6770 c1        1 CQQ     -0.123750
     18 C18         3.3250    0.8740   -1.5920 c1        1 CQQ     -0.123750
     19 C19         1.9490    1.1080   -1.5270 c1        1 CQQ      0.089000
     20 N20         1.1620    0.5070   -0.4630 n3        1 CQQ     -0.323000
     21 C21         1.8180   -0.0200    0.7000 c1        1 CQQ      0.360000
     22 O22         3.0270    0.0370    0.7920 o         1 CQQ     -0.350000
     23 C23         1.0170   -0.7170    1.7630 c1        1 CQQ     -0.162000
     24 C24        -0.2190   -0.1980    2.1620 c2        1 CQQ     -0.076000
     25 C25        -0.9760   -0.8640    3.1120 c1        1 CQQ     -0.168000
     26 C26         1.4890   -1.9110    2.3250 c1        1 CQQ     -0.048000
     27 C27         0.7330   -2.5750    3.2730 c1        1 CQQ     -0.123500
     28 C28        -0.5050   -2.0540    3.6720 c1        1 CQQ      0.002000
     29 N29        -1.2000   -2.6400    4.7580 n2        1 CQQ     -0.326000
     30 C30        -2.4070   -3.3460    4.5320 c2        1 CQQ      0.313000
     31 O31        -2.8530   -3.4520    3.3930 o         1 CQQ     -0.342000
     32 C32        -3.1060   -4.0640    5.7040 c3        1 CQQ     -0.188000
     33 C33        -3.5390   -5.5120    5.2530 c3        1 CQQ     -0.160000
     34 C34        -4.2220   -6.2750    6.4850 c3        1 CQQ     -0.063000
     35 N35        -4.0460   -7.6740    6.3350 n3        1 CQQ     -0.267000
     36 C36        -3.3730   -8.1820    7.4530 c3        1 CQQ     -0.118000
     37 C37        -5.3310   -8.3120    6.2270 c3        1 CQQ     -0.118000
     38 H1          0.0990    7.8190   -7.2420 ha        1 CQQ      0.149500
     39 H2          1.9370    8.5830  -10.8260 ha        1 CQQ      0.162000
     40 H3          3.8600    7.4370  -10.0460 ha        1 CQQ      0.153000
     41 H4          3.8910    6.5030   -7.9130 ha        1 CQQ      0.153000
     42 H5          2.6700    7.9550   -4.9680 ha        1 CQQ      0.158000
     43 H6          2.7160    6.8650   -2.9130 ha        1 CQQ      0.166000
     44 H7          0.8790    2.6750   -5.2270 hn        1 CQQ      0.234000
     45 H8          0.3520    1.9700   -2.5010 ha        1 CQQ      0.152000
     46 H9          3.9460    2.3750   -4.4830 ha        1 CQQ      0.133000
     47 H10         4.9970    1.1790   -2.7240 ha        1 CQQ      0.153000
     48 H11         3.7830    0.3720   -0.8570 ha        1 CQQ      0.153000
     49 H12         0.2390    0.5490   -0.4920 hn        1 CQQ      0.236000
     50 H13        -0.5580    0.6550    1.7590 ha        1 CQQ      0.140000
     51 H14        -1.8430   -0.5000    3.3920 ha        1 CQQ      0.179000
     52 H15         2.3740   -2.2840    2.0390 ha        1 CQQ      0.156000
     53 H16         1.0610   -3.4040    3.6640 ha        1 CQQ      0.149500
     54 H17        -0.8820   -2.5520    5.5940 hn        1 CQQ      0.232000
     55 H18        -2.4780   -4.1310    6.4740 hc        1 CQQ      0.115500
     56 H19        -3.8720   -3.5700    5.9640 hc        1 CQQ      0.115500
     57 H20        -2.7470   -6.0100    4.9570 hc        1 CQQ      0.094500
     58 H21        -5.1600   -6.0720    6.5080 h1        1 CQQ      0.072000
     59 H22        -3.8170   -5.9900    7.2970 h1        1 CQQ      0.072000
     60 H24        -2.4280   -7.9230    7.4140 h1        1 CQQ      0.071500
     61 H25        -3.4460   -9.1820    7.4620 h1        1 CQQ      0.071500
     62 H26        -3.7670   -7.8290    8.2440 h1        1 CQQ      0.071500
     63 H27        -5.7170   -8.1190    5.3590 h1        1 CQQ      0.071500
     64 H28        -5.2220   -9.3060    6.3310 h1        1 CQQ      0.071500
     65 H29        -5.9240   -7.9740    6.9330 h1        1 CQQ      0.071500
     66 H30        -4.2100   -5.4430    4.4790 hc        1 CQQ      0.094500
@<TRIPOS>BOND
     1    1    6 1   
     2    1   38 1   
     3    2    3 1   
     4    3   39 1   
     5    4    5 1   
     6    4   40 1   
     7    5   41 1   
     8    7    8 1   
     9    7    9 1   
    10    9   10 1   
    11    9   42 1   
    12   10   43 1   
    13   11   12 1   
    14   13   14 1   
    15   13   44 1   
    16   14   15 1   
    17   14   16 1   
    18   15   19 1   
    19   15   45 1   
    20   16   46 1   
    21   17   18 1   
    22   17   47 1   
    23   18   48 1   
    24   19   20 1   
    25   20   21 1   
    26   20   49 1   
    27   21   22 1   
    28   23   24 1   
    29   23   26 1   
    30   24   25 1   
    31   24   50 1   
    32   25   51 1   
    33   26   52 1   
    34   27   28 1   
    35   27   53 1   
    36   29   30 1   
    37   29   54 1   
    38   30   31 1   
    39   30   32 1   
    40   32   33 1   
    41   32   55 1   
    42   32   56 1   
    43   33   34 1   
    44   33   57 1   
    45   33   66 1   
    46   34   35 1   
    47   34   58 1   
    48   34   59 1   
    49   35   36 1   
    50   35   37 1   
    51   36   60 1   
    52   36   61 1   
    53   36   62 1   
    54   37   63 1   
    55   37   64 1   
    56   37   65 1   
@<TRIPOS>SUBSTRUCTURE
     1 CQQ         1 TEMP              0 ****  ****    0 ROOT
