@<TRIPOS>MOLECULE
CQQ
   66    69     1     0     0
SMALL
bcc


@<TRIPOS>ATOM
      1 C01        -9.5940    1.8630   -0.1630 ca        1 CQQ      0.415200
      2 N02       -10.3820    2.8920    0.1950 nb        1 CQQ     -0.668000
      3 C03        -9.7880    3.9670    0.7510 ca        1 CQQ      0.404200
      4 C04        -8.4030    4.0560    0.9740 ca        1 CQQ     -0.254300
      5 C05        -7.5940    2.9810    0.6010 ca        1 CQQ     -0.050000
      6 C06        -8.1910    1.8580    0.0110 cp        1 CQQ     -0.273800
      7 C07        -7.4010    0.6960   -0.4230 cp        1 CQQ      0.536800
      8 N08        -6.3280    0.3280    0.3150 nb        1 CQQ     -0.746000
      9 C09        -7.7760    0.0060   -1.5990 ca        1 CQQ     -0.409600
     10 C10        -6.9820   -1.0910   -1.9700 ca        1 CQQ      0.461200
     11 N11        -5.9160   -1.5080   -1.2740 nb        1 CQQ     -0.729000
     12 C12        -5.6170   -0.7840   -0.1250 ca        1 CQQ      0.872900
     13 N13        -4.5670   -1.2110    0.7140 nh        1 CQQ     -0.705300
     14 C14        -3.5330   -2.0580    0.2440 ca        1 CQQ      0.152600
     15 C15        -2.1950   -1.6170    0.3380 ca        1 CQQ     -0.193000
     16 C16        -3.8100   -3.3550   -0.2280 ca        1 CQQ     -0.132000
     17 C17        -2.7560   -4.1830   -0.6040 ca        1 CQQ     -0.096000
     18 C18        -1.4360   -3.7660   -0.5080 ca        1 CQQ     -0.193000
     19 C19        -1.1370   -2.4680   -0.0270 ca        1 CQQ      0.084600
     20 N20         0.2110   -2.0770    0.0370 n         1 CQQ     -0.471100
     21 C21         0.7390   -0.9660    0.6860 c         1 CQQ      0.686700
     22 O22         0.0360   -0.1450    1.3040 o         1 CQQ     -0.587100
     23 C23         2.2200   -0.8160    0.6130 ca        1 CQQ     -0.183600
     24 C24         2.9000   -0.3760    1.7530 ca        1 CQQ     -0.062000
     25 C25         4.2800   -0.2050    1.7410 ca        1 CQQ     -0.183500
     26 C26         2.9380   -1.0630   -0.5610 ca        1 CQQ     -0.062000
     27 C27         4.3150   -0.8900   -0.5930 ca        1 CQQ     -0.183500
     28 C28         5.0170   -0.4630    0.5640 ca        1 CQQ      0.099600
     29 N29         6.4070   -0.3180    0.4780 n         1 CQQ     -0.473100
     30 C30         7.2870    0.0750    1.4820 c         1 CQQ      0.668100
     31 O31         6.9230    0.3310    2.6420 o         1 CQQ     -0.578100
     32 C32         8.7550    0.1540    1.0950 c3        1 CQQ     -0.159400
     33 C33         9.0090    1.1930    0.0250 c3        1 CQQ     -0.081400
     34 C34        10.5180    1.3700   -0.1640 c3        1 CQQ      0.173800
     35 N35        10.8560    2.3990   -1.1360 n3        1 CQQ     -0.741600
     36 C36        12.1590    2.9810   -0.9060 c3        1 CQQ      0.158100
     37 C37        10.6630    1.9800   -2.5050 c3        1 CQQ      0.158100
     38 H1        -10.1120    0.9920   -0.6050 h4        1 CQQ      0.026100
     39 H2        -10.4630    4.7950    1.0320 h4        1 CQQ      0.024100
     40 H3         -7.9700    4.9520    1.4370 ha        1 CQQ      0.147000
     41 H4         -6.5060    3.0160    0.7670 ha        1 CQQ      0.157000
     42 H5         -8.6350    0.3210   -2.2000 ha        1 CQQ      0.157000
     43 H6         -7.2080   -1.6740   -2.8830 h4        1 CQQ      0.028100
     44 H7         -4.2610   -0.5250    1.3780 hn        1 CQQ      0.443800
     45 H8         -1.9800   -0.6000    0.7100 ha        1 CQQ      0.173000
     46 H9         -4.8440   -3.7210   -0.3040 ha        1 CQQ      0.155000
     47 H10        -2.9760   -5.1950   -0.9780 ha        1 CQQ      0.134000
     48 H11        -0.6310   -4.4530   -0.8080 ha        1 CQQ      0.129000
     49 H12         0.8620   -2.7250   -0.3480 hn        1 CQQ      0.318500
     50 H13         2.3290   -0.1530    2.6700 ha        1 CQQ      0.147500
     51 H14         4.7850    0.1390    2.6590 ha        1 CQQ      0.157000
     52 H15         2.4190   -1.3780   -1.4800 ha        1 CQQ      0.147500
     53 H16         4.8540   -1.0860   -1.5330 ha        1 CQQ      0.157000
     54 H17         6.8020   -0.4860   -0.4210 hn        1 CQQ      0.318500
     55 H18         9.3250    0.4140    2.0270 hc        1 CQQ      0.076200
     56 H19         9.1050   -0.8560    0.7520 hc        1 CQQ      0.076200
     57 H20         8.5360    0.8800   -0.9420 hc        1 CQQ      0.055700
     58 H21        10.9600    1.6610    0.8320 h1        1 CQQ      0.033200
     59 H22        10.9610    0.3690   -0.4480 h1        1 CQQ      0.033200
     60 H24        13.0000    2.2410   -1.0050 h1        1 CQQ      0.032033
     61 H25        12.3230    3.8060   -1.6470 h1        1 CQQ      0.032033
     62 H26        12.1880    3.4180    0.1270 h1        1 CQQ      0.032033
     63 H27         9.6000    1.6500   -2.6410 h1        1 CQQ      0.032033
     64 H28        10.8550    2.8520   -3.1830 h1        1 CQQ      0.032033
     65 H29        11.3400    1.1340   -2.8100 h1        1 CQQ      0.032033
     66 H30         8.5480    2.1710    0.3240 hc        1 CQQ      0.055700
@<TRIPOS>BOND
     1    1    2 ar  
     2    1    6 ar  
     3    1   38 1   
     4    2    3 ar  
     5    3    4 ar  
     6    3   39 1   
     7    4    5 ar  
     8    4   40 1   
     9    5    6 ar  
    10    5   41 1   
    11    6    7 1   
    12    7    8 ar  
    13    7    9 ar  
    14    8   12 ar  
    15    9   10 ar  
    16    9   42 1   
    17   10   11 ar  
    18   10   43 1   
    19   11   12 ar  
    20   12   13 1   
    21   13   14 1   
    22   13   44 1   
    23   14   15 ar  
    24   14   16 ar  
    25   15   19 ar  
    26   15   45 1   
    27   16   17 ar  
    28   16   46 1   
    29   17   18 ar  
    30   17   47 1   
    31   18   19 ar  
    32   18   48 1   
    33   19   20 1   
    34   20   21 1   
    35   20   49 1   
    36   21   22 2   
    37   21   23 1   
    38   23   24 ar  
    39   23   26 ar  
    40   24   25 ar  
    41   24   50 1   
    42   25   28 ar  
    43   25   51 1   
    44   26   27 ar  
    45   26   52 1   
    46   27   28 ar  
    47   27   53 1   
    48   28   29 1   
    49   29   30 1   
    50   29   54 1   
    51   30   31 2   
    52   30   32 1   
    53   32   33 1   
    54   32   55 1   
    55   32   56 1   
    56   33   34 1   
    57   33   57 1   
    58   33   66 1   
    59   34   35 1   
    60   34   58 1   
    61   34   59 1   
    62   35   36 1   
    63   35   37 1   
    64   36   60 1   
    65   36   61 1   
    66   36   62 1   
    67   37   63 1   
    68   37   64 1   
    69   37   65 1   
@<TRIPOS>SUBSTRUCTURE
     1 CQQ         1 TEMP              0 ****  ****    0 ROOT
