@<TRIPOS>MOLECULE
CQQ
   70    73     1     0     0
SMALL
bcc


@<TRIPOS>ATOM
      1 C01        -0.1660    0.2680   -0.2910 ca        1 CQQ      0.457200
      2 N02         1.1230   -0.0920   -0.3920 nb        1 CQQ     -0.634000
      3 C03         1.6900   -0.7130    0.6600 ca        1 CQQ      0.470200
      4 C04         0.9950   -0.9910    1.8560 ca        1 CQQ     -0.247300
      5 C05        -0.3410   -0.6140    1.9560 ca        1 CQQ     -0.037000
      6 C06        -0.9560    0.0230    0.8620 cp        1 CQQ     -0.354800
      7 C07        -2.3510    0.4440    0.8840 cp        1 CQQ      0.586800
      8 N08        -2.9300    0.7990    2.0710 nb        1 CQQ     -0.693000
      9 C09        -3.1000    0.5030   -0.3270 ca        1 CQQ     -0.293600
     10 C10        -4.4300    0.9480   -0.2700 ca        1 CQQ      0.466200
     11 N11        -5.0260    1.3250    0.8850 nb        1 CQQ     -0.698000
     12 C12        -4.2220    1.2340    1.9880 ca        1 CQQ      0.689900
     13 N13        -4.8100    1.7280    3.2890 n4        1 CQQ     -0.622100
     14 C14        -6.1440    1.1830    3.5630 ca        1 CQQ      0.005600
     15 C15        -6.2990    0.1550    4.5100 ca        1 CQQ     -0.064000
     16 C16        -7.2580    1.7060    2.8780 ca        1 CQQ     -0.008000
     17 C17        -8.5290    1.1950    3.1490 ca        1 CQQ     -0.078000
     18 C18        -8.7110    0.1810    4.0850 ca        1 CQQ     -0.064000
     19 C19        -7.5920   -0.3380    4.7660 ca        1 CQQ     -0.049400
     20 N20        -7.7840   -1.4310    5.7310 n4        1 CQQ     -0.543200
     21 C21        -7.8180   -0.9680    7.1840 c         1 CQQ      0.557700
     22 O22        -7.0090   -0.1120    7.4970 o         1 CQQ     -0.360100
     23 C23        -8.8180   -1.6000    8.0710 ca        1 CQQ     -0.144600
     24 C24        -9.3490   -0.8000    9.0970 ca        1 CQQ     -0.046000
     25 C25       -10.2430   -1.3400   10.0230 ca        1 CQQ     -0.085000
     26 C26        -9.1790   -2.9500    7.9850 ca        1 CQQ     -0.046000
     27 C27       -10.0660   -3.5020    8.9110 ca        1 CQQ     -0.085000
     28 C28       -10.6050   -2.6950    9.9310 ca        1 CQQ      0.017600
     29 N29       -11.5690   -3.2610   10.8850 n4        1 CQQ     -0.567200
     30 C30       -10.9650   -3.8380   12.1780 c         1 CQQ      0.544100
     31 O31        -9.7570   -3.9510   12.2160 o         1 CQQ     -0.355100
     32 C32       -11.9820   -4.1910   13.2330 c3        1 CQQ     -0.148400
     33 C33       -11.3000   -4.8360   14.4330 c3        1 CQQ     -0.108400
     34 C34       -12.3500   -5.1730   15.4930 c3        1 CQQ      0.102800
     35 N35       -11.7830   -5.7520   16.7540 n4        1 CQQ     -0.677400
     36 C36       -12.7710   -5.6320   17.8680 c3        1 CQQ      0.077600
     37 C37       -11.3790   -7.1750   16.5790 c3        1 CQQ      0.077600
     38 H1         -0.5770    0.7960   -1.1730 h4        1 CQQ      0.037100
     39 H2          2.7560   -0.9970    0.5350 h4        1 CQQ      0.064100
     40 H3          1.5080   -1.4960    2.6880 ha        1 CQQ      0.171000
     41 H4         -0.9040   -0.8230    2.8770 ha        1 CQQ      0.137000
     42 H5         -2.6480    0.2000   -1.2860 ha        1 CQQ      0.211000
     43 H6         -5.0650    1.0190   -1.1790 h4        1 CQQ      0.083100
     44 H7         -4.8760    2.7580    3.2150 hn        1 CQQ      0.488300
     45 H8         -5.4240   -0.2540    5.0480 ha        1 CQQ      0.177000
     46 H9         -7.1500    2.5070    2.1180 ha        1 CQQ      0.216000
     47 H10        -9.4050    1.6020    2.6040 ha        1 CQQ      0.213000
     48 H11        -9.7310   -0.2020    4.2660 ha        1 CQQ      0.177000
     49 H12        -7.0050   -2.0980    5.6250 hn        1 CQQ      0.475300
     50 H13        -9.0520    0.2640    9.1880 ha        1 CQQ      0.188500
     51 H14       -10.6440   -0.6790   10.8140 ha        1 CQQ      0.190000
     52 H15        -8.7570   -3.6170    7.2130 ha        1 CQQ      0.188500
     53 H16       -10.3240   -4.5740    8.8220 ha        1 CQQ      0.190000
     54 H17       -12.2430   -2.5260   11.1440 hn        1 CQQ      0.478300
     55 H18       -12.5190   -3.2540   13.5540 hc        1 CQQ      0.119200
     56 H19       -12.7450   -4.8990   12.8000 hc        1 CQQ      0.119200
     57 H20       -10.7610   -5.7650   14.1030 hc        1 CQQ      0.095700
     58 H21       -12.9110   -4.2320   15.7740 hx        1 CQQ      0.114200
     59 H22       -13.0930   -5.9170   15.0810 hx        1 CQQ      0.114200
     60 H24       -12.3310   -6.0910   18.7970 hx        1 CQQ      0.118867
     61 H25       -12.9960   -4.5480   18.0600 hx        1 CQQ      0.118867
     62 H26       -13.7160   -6.1770   17.5970 hx        1 CQQ      0.118867
     63 H27       -12.2830   -7.8020   16.3500 hx        1 CQQ      0.118867
     64 H28       -10.9100   -7.5440   17.5340 hx        1 CQQ      0.118867
     65 H29       -10.6350   -7.2550   15.7430 hx        1 CQQ      0.118867
     66 H30       -10.5300   -4.1300   14.8490 hc        1 CQQ      0.095700
     67 H132       -4.1610    1.4930    4.0570 hn        1 CQQ      0.488300
     68 H202       -8.6630   -1.9160    5.5050 hn        1 CQQ      0.475300
     69 H292      -12.0880   -4.0190   10.4160 hn        1 CQQ      0.478300
     70 H351      -10.9450   -5.2100   17.0130 hn        1 CQQ      0.456800
@<TRIPOS>BOND
     1    1    2 ar  
     2    1    6 ar  
     3    1   38 1   
     4    2    3 ar  
     5    3    4 ar  
     6    3   39 1   
     7    4    5 ar  
     8    4   40 1   
     9    5    6 ar  
    10    5   41 1   
    11    6    7 1   
    12    7    8 ar  
    13    7    9 ar  
    14    8   12 ar  
    15    9   10 ar  
    16    9   42 1   
    17   10   11 ar  
    18   10   43 1   
    19   11   12 ar  
    20   12   13 1   
    21   13   14 1   
    22   13   44 1   
    23   13   67 1   
    24   14   15 ar  
    25   14   16 ar  
    26   15   19 ar  
    27   15   45 1   
    28   16   17 ar  
    29   16   46 1   
    30   17   18 ar  
    31   17   47 1   
    32   18   19 ar  
    33   18   48 1   
    34   19   20 1   
    35   20   21 1   
    36   20   49 1   
    37   20   68 1   
    38   21   22 2   
    39   21   23 1   
    40   23   24 ar  
    41   23   26 ar  
    42   24   25 ar  
    43   24   50 1   
    44   25   28 ar  
    45   25   51 1   
    46   26   27 ar  
    47   26   52 1   
    48   27   28 ar  
    49   27   53 1   
    50   28   29 1   
    51   29   30 1   
    52   29   54 1   
    53   29   69 1   
    54   30   31 2   
    55   30   32 1   
    56   32   33 1   
    57   32   55 1   
    58   32   56 1   
    59   33   34 1   
    60   33   57 1   
    61   33   66 1   
    62   34   35 1   
    63   34   58 1   
    64   34   59 1   
    65   35   36 1   
    66   35   37 1   
    67   35   70 1   
    68   36   60 1   
    69   36   61 1   
    70   36   62 1   
    71   37   63 1   
    72   37   64 1   
    73   37   65 1   
@<TRIPOS>SUBSTRUCTURE
     1 CQQ         1 TEMP              0 ****  ****    0 ROOT
