@<TRIPOS>MOLECULE
CQR
   32    33     1     0     0
SMALL
bcc


@<TRIPOS>ATOM
      1 N          -1.3050    3.4840   -0.6200 n3        1 CQR     -0.894800
      2 CA1        -2.1740    2.3420   -0.6670 c3        1 CQR      0.103500
      3 C1         -1.5130    0.9820   -0.5500 cc        1 CQR      0.475900
      4 N2         -0.2060    0.7920   -0.3220 nd        1 CQR     -0.684300
      5 N3         -2.2590   -0.2150   -0.7190 n         1 CQR     -0.374300
      6 C2         -1.3590   -1.2890   -0.4820 c         1 CQR      0.664700
      7 O2         -1.6100   -2.4980   -0.5270 o         1 CQR     -0.601500
      8 CA2        -0.0030   -0.6140   -0.2580 cd        1 CQR      0.047400
      9 CA3        -3.6900   -0.3230   -0.6620 c3        1 CQR     -0.049000
     10 CB2         1.1230   -1.3270   -0.0690 ce        1 CQR     -0.078200
     11 CG2         2.4650   -0.8190    0.1280 ca        1 CQR     -0.065800
     12 CD1         2.7240    0.4170    0.7380 ca        1 CQR     -0.077000
     13 CD2         3.5510   -1.6130   -0.2880 ca        1 CQR     -0.077000
     14 CE1         4.0320    0.8600    0.9170 ca        1 CQR     -0.194000
     15 CE2         4.8620   -1.1850   -0.1200 ca        1 CQR     -0.194000
     16 CZ          5.0980    0.0600    0.4850 ca        1 CQR      0.110100
     17 OH          6.4170    0.4380    0.6290 oh        1 CQR     -0.509100
     18 C          -4.4190    0.2230    0.6040 c         1 CQR      0.905600
     19 O          -3.7910    0.9390    1.4300 o         1 CQR     -0.824300
     20 OXT        -5.6370   -0.0860    0.6850 o         1 CQR     -0.824300
     21 HN1        -0.8970    3.5790    0.2910 hn        1 CQR      0.347800
     22 HN2        -0.5650    3.4040   -1.2900 hn        1 CQR      0.347800
     23 HA11       -2.9300    2.4030    0.1820 h1        1 CQR      0.109700
     24 HA12       -2.7370    2.3630   -1.6440 h1        1 CQR      0.109700
     25 HA31       -4.1060    0.2320   -1.5500 h1        1 CQR      0.054200
     26 HA32       -3.9490   -1.4130   -0.7610 h1        1 CQR      0.054200
     27 HB2         1.0280   -2.4300   -0.0800 ha        1 CQR      0.140000
     28 HD1         1.8900    1.0460    1.0870 ha        1 CQR      0.149000
     29 HD2         3.3570   -2.5880   -0.7590 ha        1 CQR      0.149000
     30 HE1         4.2260    1.8300    1.3940 ha        1 CQR      0.133000
     31 HE2         5.7100   -1.7990   -0.4500 ha        1 CQR      0.133000
     32 HOH         6.4260    1.3090    1.0490 ho        1 CQR      0.412000
@<TRIPOS>BOND
     1    1    2 1   
     2    1   21 1   
     3    1   22 1   
     4    2    3 1   
     5    2   23 1   
     6    2   24 1   
     7    3    4 2   
     8    3    5 1   
     9    4    8 1   
    10    5    6 1   
    11    5    9 1   
    12    6    7 2   
    13    6    8 1   
    14    8   10 2   
    15    9   18 1   
    16    9   25 1   
    17    9   26 1   
    18   10   11 1   
    19   10   27 1   
    20   11   12 ar  
    21   11   13 ar  
    22   12   14 ar  
    23   12   28 1   
    24   13   15 ar  
    25   13   29 1   
    26   14   16 ar  
    27   14   30 1   
    28   15   16 ar  
    29   15   31 1   
    30   16   17 1   
    31   17   32 1   
    32   18   19 1   
    33   18   20 1   
@<TRIPOS>SUBSTRUCTURE
     1 CQR         1 TEMP              0 ****  ****    0 ROOT
