@<TRIPOS>MOLECULE
CQR
   32    29     1     0     0
SMALL
bcc


@<TRIPOS>ATOM
      1 N          -0.7100    1.3600   -3.0220 n3        1 CQR     -0.344000
      2 CA1        -1.8070    1.1870   -2.1280 c3        1 CQR     -0.007000
      3 C1         -1.3010    1.1950   -0.7030 c2        1 CQR      0.096000
      4 N2         -0.4420    0.2810   -0.3040 n1        1 CQR     -0.240000
      5 N3         -2.1090    1.7070    0.3260 n         1 CQR     -0.261000
      6 C2         -1.6390    0.9570    1.5600 c2        1 CQR      0.300000
      7 O2         -1.7780    1.3200    2.7110 o         1 CQR     -0.329000
      8 CA2        -0.5020    0.0120    1.0180 c1        1 CQR     -0.080000
      9 CA3        -2.7840    2.9580    0.3140 c3        1 CQR     -0.117000
     10 CB2         0.2430   -0.8670    1.7160 c1        1 CQR     -0.084000
     11 CG2         1.2960   -1.6930    1.0120 c1        1 CQR     -0.055000
     12 CD1         2.5930   -1.2160    0.9040 c2        1 CQR     -0.094000
     13 CD2         0.9680   -2.9320    0.4850 c1        1 CQR     -0.061000
     14 CE1         3.5620   -1.9790    0.2710 c1        1 CQR     -0.168000
     15 CE2         1.9360   -3.6950   -0.1480 c1        1 CQR     -0.221000
     16 CZ          3.2330   -3.2180   -0.2560 c1        1 CQR      0.066000
     17 OH          4.2110   -3.9830   -0.9170 oh        1 CQR     -0.262000
     18 C          -2.1840    3.8650    1.3670 c2        1 CQR      0.325000
     19 O          -1.0430    4.3650    1.1900 o         1 CQR     -0.562000
     20 OXT        -2.8370    4.1390    2.4080 o         1 CQR     -0.562000
     21 HN1        -0.5840    2.2540   -3.1810 hn        1 CQR      0.171000
     22 HN2        -0.8900    0.9320   -3.8120 hn        1 CQR      0.171000
     23 HA11       -2.2470    0.3310   -2.3130 h1        1 CQR      0.104500
     24 HA12       -2.4480    1.9170   -2.2510 h1        1 CQR      0.104500
     25 HA31       -3.7340    2.8180    0.5070 h1        1 CQR      0.094500
     26 HA32       -2.6870    3.3730   -0.5680 h1        1 CQR      0.094500
     27 HB2         0.1030   -0.9710    2.6770 ha        1 CQR      0.138000
     28 HD1         2.8250   -0.3440    1.2750 ha        1 CQR      0.132000
     29 HD2         0.0540   -3.2680    0.5610 ha        1 CQR      0.170000
     30 HE1         4.4750   -1.6430    0.1950 ha        1 CQR      0.140000
     31 HE2         1.7010   -4.5610   -0.5320 ha        1 CQR      0.127000
     32 HOH         4.5290   -4.6010   -0.3630 ho        1 CQR      0.211000
@<TRIPOS>BOND
     1    1    2 1   
     2    1   21 1   
     3    1   22 1   
     4    2    3 1   
     5    2   23 1   
     6    2   24 1   
     7    3    4 1   
     8    3    5 1   
     9    5    6 1   
    10    5    9 1   
    11    6    7 1   
    12    6    8 1   
    13    8   10 1   
    14    9   18 1   
    15    9   25 1   
    16    9   26 1   
    17   10   27 1   
    18   11   12 1   
    19   11   13 1   
    20   12   14 1   
    21   12   28 1   
    22   13   29 1   
    23   14   30 1   
    24   15   16 1   
    25   15   31 1   
    26   16   17 1   
    27   17   32 1   
    28   18   19 1   
    29   18   20 1   
@<TRIPOS>SUBSTRUCTURE
     1 CQR         1 TEMP              0 ****  ****    0 ROOT
