@<TRIPOS>MOLECULE
CQU
   35    28     1     0     0
SMALL
bcc


@<TRIPOS>ATOM
      1 N3         -0.4630   -0.9600    1.0580 n3        1 CQU     -0.263000
      2 C7          0.9470   -0.7930    1.0230 c2        1 CQU      0.117000
      3 C6         -3.5300   -0.2500    0.1420 c1        1 CQU     -0.158000
      4 C13         1.2750   -0.8510    2.3690 c2        1 CQU     -0.123000
      5 C21         1.4720   -0.2380   -3.3720 c1        1 CQU     -0.081000
      6 C8         -1.2440    2.1430    2.5330 c1        1 CQU      0.012000
      7 C16         2.6040   -0.9250    2.7570 c1        1 CQU     -0.101000
      8 C19         3.6050   -0.9420    1.7980 c1        1 CQU     -0.126000
      9 C22         1.4040    0.2320   -4.8090 c2        1 CQU     -0.148000
     10 N18         1.9420    0.1400   -2.1730 n2        1 CQU     -0.210000
     11 N20         0.8580   -1.4210   -3.2220 n2        1 CQU     -0.083000
     12 N17         0.9490   -1.7750   -1.9280 n2        1 CQU     -0.102000
     13 C14         1.6190   -0.8100   -1.2810 c2        1 CQU     -0.039000
     14 C12         1.9490   -0.8100    0.0650 c1        1 CQU     -0.064000
     15 C15         3.2780   -0.8840    0.4530 c1        1 CQU     -0.126000
     16 C1         -1.3050    0.1640    1.2690 c2        1 CQU      0.215000
     17 C2         -2.6170    0.4350    0.9210 c2        1 CQU     -0.228000
     18 C5         -3.2220    1.5560    1.3850 c1        1 CQU      0.072000
     19 N9         -4.5210    1.5770    0.8960 n1        1 CQU     -0.194000
     20 C11        -4.7020    0.4650    0.1340 c1        1 CQU     -0.097000
     21 N10        -2.5380    2.4130    2.1910 n1        1 CQU     -0.205000
     22 N4         -0.6330    1.0120    2.0660 n1        1 CQU     -0.259000
     23 HN3        -0.8270   -1.7890    0.9520 hn        1 CQU      0.266000
     24 H6         -3.3700   -1.0950   -0.3210 DU        1 CQU      0.216250
     25 H13         0.5700   -0.8390    3.0440 ha        1 CQU      0.160000
     26 H8         -0.7550    2.7590    3.1120 ha        1 CQU      0.186000
     27 H16         2.8340   -0.9650    3.7040 ha        1 CQU      0.138000
     28 H19         4.5410   -0.9940    2.0710 ha        1 CQU      0.134000
     29 H22         0.4690    0.3910   -5.0560 ha        1 CQU      0.102000
     30 H22A        1.7840   -0.4540   -5.3950 ha        1 CQU      0.102000
     31 H22B        1.9130    1.0630   -4.9050 ha        1 CQU      0.102000
     32 HN18        2.4010    0.9080   -1.9950 DU        1 CQU      0.216250
     33 H15         3.9830   -0.8960   -0.2220 ha        1 CQU      0.134000
     34 HN9        -5.1440    2.2230    1.0570 DU        1 CQU      0.216250
     35 H11        -5.5270    0.2100   -0.3210 DU        1 CQU      0.216250
@<TRIPOS>BOND
     1    1    2 1   
     2    1   16 1   
     3    1   23 1   
     4    2    4 1   
     5    2   14 1   
     6    3   17 1   
     7    3   20 1   
     8    4    7 1   
     9    4   25 1   
    10    5   10 1   
    11    5   11 1   
    12    6   21 1   
    13    6   26 1   
    14    7   27 1   
    15    8   15 1   
    16    8   28 1   
    17    9   29 1   
    18    9   30 1   
    19    9   31 1   
    20   10   13 1   
    21   11   12 1   
    22   12   13 1   
    23   13   14 1   
    24   15   33 1   
    25   16   17 1   
    26   16   22 1   
    27   17   18 1   
    28   19   20 1   
@<TRIPOS>SUBSTRUCTURE
     1 CQU         1 TEMP              0 ****  ****    0 ROOT
