@<TRIPOS>MOLECULE
CQU
   36    39     1     0     0
SMALL
bcc


@<TRIPOS>ATOM
      1 N3          0.2320    0.8640    0.6230 n4        1 CQU     -0.628100
      2 C7          1.6300    0.5100    0.3430 ca        1 CQU     -0.008400
      3 C6         -2.7060   -0.0440   -0.3000 cc        1 CQU     -0.190200
      4 C13         2.5310    0.4720    1.4250 ca        1 CQU     -0.078000
      5 C21         0.3240    0.0580   -4.1690 cc        1 CQU      0.417800
      6 C8         -0.7970   -1.8830    2.8520 ca        1 CQU      0.662900
      7 C16         3.8690    0.1550    1.2070 ca        1 CQU     -0.103000
      8 C19         4.3210   -0.1200   -0.0820 ca        1 CQU     -0.073000
      9 C22         0.1540   -0.3360   -5.5850 c3        1 CQU     -0.141400
     10 N18         1.4330   -0.2840   -3.3810 na        1 CQU     -0.412700
     11 N20        -0.5330    0.8060   -3.3910 nd        1 CQU     -0.325000
     12 N17        -0.0180    0.9430   -2.1990 nd        1 CQU     -0.411000
     13 C14         1.1940    0.2920   -2.1240 cc        1 CQU      0.376000
     14 C12         2.0820    0.2320   -0.9710 ca        1 CQU     -0.069500
     15 C15         3.4370   -0.0760   -1.1570 ca        1 CQU     -0.116000
     16 C1         -0.5540   -0.2310    1.2460 ca        1 CQU      0.537200
     17 C2         -1.8350   -0.5150    0.7380 ca        1 CQU     -0.290400
     18 C5         -2.5570   -1.5990    1.4350 ca        1 CQU      0.461800
     19 N9         -3.7970   -1.7380    0.8100 na        1 CQU     -0.264100
     20 C11        -3.8750   -0.8030   -0.2250 cd        1 CQU     -0.039100
     21 N10        -2.0360   -2.2850    2.4900 nb        1 CQU     -0.638000
     22 N4         -0.0260   -0.8990    2.2990 nb        1 CQU     -0.699000
     23 HN3         0.2330    1.6630    1.2730 hn        1 CQU      0.485800
     24 H6         -2.5040    0.7440   -1.0240 ha        1 CQU      0.192000
     25 H13         2.1910    0.6810    2.4540 ha        1 CQU      0.172000
     26 H8         -0.3370   -2.4180    3.7140 h5        1 CQU      0.088100
     27 H16         4.5660    0.1260    2.0610 ha        1 CQU      0.172000
     28 H19         5.3820   -0.3680   -0.2550 ha        1 CQU      0.169000
     29 H22        -0.8330    0.0290   -5.9700 hc        1 CQU      0.081367
     30 H22A        0.9680    0.1130   -6.2100 hc        1 CQU      0.081367
     31 H22B        0.1890   -1.4500   -5.6860 hc        1 CQU      0.081367
     32 HN18        2.2150   -0.8240   -3.6520 hn        1 CQU      0.328700
     33 H15         3.8270   -0.2730   -2.1690 ha        1 CQU      0.153000
     34 HN9        -4.4970   -2.3890    1.0720 hn        1 CQU      0.338700
     35 H11        -4.7760   -0.7440   -0.8470 h4        1 CQU      0.202000
     36 H32        -0.2580    1.1450   -0.2530 hn        1 CQU      0.485800
@<TRIPOS>BOND
     1    1    2 1   
     2    1   16 1   
     3    1   23 1   
     4    1   36 1   
     5    2    4 ar  
     6    2   14 ar  
     7    3   17 1   
     8    3   20 2   
     9    3   24 1   
    10    4    7 ar  
    11    4   25 1   
    12    5    9 1   
    13    5   10 1   
    14    5   11 2   
    15    6   21 ar  
    16    6   22 ar  
    17    6   26 1   
    18    7    8 ar  
    19    7   27 1   
    20    8   15 ar  
    21    8   28 1   
    22    9   29 1   
    23    9   30 1   
    24    9   31 1   
    25   10   13 1   
    26   10   32 1   
    27   11   12 1   
    28   12   13 2   
    29   13   14 1   
    30   14   15 ar  
    31   15   33 1   
    32   16   17 ar  
    33   16   22 ar  
    34   17   18 ar  
    35   18   19 1   
    36   18   21 ar  
    37   19   20 1   
    38   19   34 1   
    39   20   35 1   
@<TRIPOS>SUBSTRUCTURE
     1 CQU         1 TEMP              0 ****  ****    0 ROOT
