@<TRIPOS>MOLECULE
CQU
   35    38     1     0     0
SMALL
bcc


@<TRIPOS>ATOM
      1 N3          0.3970   -0.4770   -0.7810 nh        1 CQU     -0.742300
      2 C7         -0.5650   -1.4870   -0.6150 ca        1 CQU      0.198600
      3 C6          2.3420    1.9640   -1.0300 cc        1 CQU     -0.146200
      4 C13        -0.1890   -2.8510   -0.6370 ca        1 CQU     -0.123000
      5 C21        -3.5450    2.0240    0.2140 cc        1 CQU      0.364800
      6 C8          3.1360   -1.1580    1.5060 ca        1 CQU      0.674900
      7 C16        -1.1450   -3.8520   -0.5310 ca        1 CQU     -0.101000
      8 C19        -2.4980   -3.5340   -0.4160 ca        1 CQU     -0.148000
      9 C22        -4.4560    2.9180    0.9610 c3        1 CQU     -0.124400
     10 N18        -3.3490    0.6670    0.5150 na        1 CQU     -0.436700
     11 N20        -2.7530    2.3330   -0.8640 nd        1 CQU     -0.346000
     12 N17        -2.0910    1.2640   -1.2430 nd        1 CQU     -0.365000
     13 C14        -2.4150    0.2070   -0.4290 cc        1 CQU      0.420000
     14 C12        -1.9430   -1.1730   -0.4820 ca        1 CQU     -0.171500
     15 C15        -2.8910   -2.2020   -0.3970 ca        1 CQU     -0.104000
     16 C1          1.5670   -0.3780   -0.0330 ca        1 CQU      0.736200
     17 C2          2.3970    0.7710   -0.2300 ca        1 CQU     -0.370400
     18 C5          3.6320    0.8310    0.5360 ca        1 CQU      0.463800
     19 N9          4.2820    2.0180    0.1940 na        1 CQU     -0.280100
     20 C11         3.4950    2.6930   -0.7490 cd        1 CQU     -0.124100
     21 N10         4.0200   -0.1440    1.4220 nb        1 CQU     -0.731000
     22 N4          1.9500   -1.3450    0.8560 nb        1 CQU     -0.785000
     23 HN3         0.1090    0.3650   -1.2340 hn        1 CQU      0.470800
     24 H6          1.5500    2.2430   -1.7190 ha        1 CQU      0.167000
     25 H13         0.8730   -3.1280   -0.7390 ha        1 CQU      0.160000
     26 H8          3.4050   -1.9710    2.2150 h5        1 CQU      0.049100
     27 H16        -0.8280   -4.9060   -0.5470 ha        1 CQU      0.138000
     28 H19        -3.2510   -4.3320   -0.3440 ha        1 CQU      0.137000
     29 H22        -4.1460    2.9790    2.0340 hc        1 CQU      0.062700
     30 H22A       -4.4290    3.9460    0.5210 hc        1 CQU      0.062700
     31 H22B       -5.5050    2.5330    0.9080 hc        1 CQU      0.062700
     32 HN18       -3.7620    0.1450    1.2420 hn        1 CQU      0.313700
     33 H15        -3.9600   -1.9510   -0.3230 ha        1 CQU      0.131000
     34 HN9         5.1460    2.3220    0.5600 hn        1 CQU      0.311700
     35 H11         3.8260    3.6520   -1.1500 h4        1 CQU      0.172000
@<TRIPOS>BOND
     1    1    2 1   
     2    1   16 1   
     3    1   23 1   
     4    2    4 ar  
     5    2   14 ar  
     6    3   17 1   
     7    3   20 2   
     8    3   24 1   
     9    4    7 ar  
    10    4   25 1   
    11    5    9 1   
    12    5   10 1   
    13    5   11 2   
    14    6   21 ar  
    15    6   22 ar  
    16    6   26 1   
    17    7    8 ar  
    18    7   27 1   
    19    8   15 ar  
    20    8   28 1   
    21    9   29 1   
    22    9   30 1   
    23    9   31 1   
    24   10   13 1   
    25   10   32 1   
    26   11   12 1   
    27   12   13 2   
    28   13   14 1   
    29   14   15 ar  
    30   15   33 1   
    31   16   17 ar  
    32   16   22 ar  
    33   17   18 ar  
    34   18   19 1   
    35   18   21 ar  
    36   19   20 1   
    37   19   34 1   
    38   20   35 1   
@<TRIPOS>SUBSTRUCTURE
     1 CQU         1 TEMP              0 ****  ****    0 ROOT
