@<TRIPOS>MOLECULE
CQU
   35    38     1     0     0
SMALL
bcc


@<TRIPOS>ATOM
      1 N3          0.1390    0.3050    0.2990 nu        1 CQU     -0.742300
      2 C7          1.5370    0.2570    0.1690 ca        1 CQU      0.198600
      3 C6         -2.9920    0.3310    0.3010 cc        1 CQU     -0.146200
      4 C13         2.3640    0.1790    1.3150 ca        1 CQU     -0.123000
      5 C21         0.7130   -0.0020   -4.4290 cc        1 CQU      0.364800
      6 C8         -0.8720   -2.3910    2.5150 ca        1 CQU      0.674900
      7 C16         3.7470    0.1890    1.1920 ca        1 CQU     -0.101000
      8 C19         4.3500    0.2900   -0.0620 ca        1 CQU     -0.148000
      9 C22         0.6370   -0.5730   -5.7910 c3        1 CQU     -0.124400
     10 N18         1.6710   -0.3710   -3.4710 na        1 CQU     -0.436700
     11 N20        -0.0970    0.9520   -3.8650 nd        1 CQU     -0.346000
     12 N17         0.2960    1.1930   -2.6360 nd        1 CQU     -0.365000
     13 C14         1.3800    0.4060   -2.3360 cc        1 CQU      0.420000
     14 C12         2.1590    0.3440   -1.1030 ca        1 CQU     -0.171500
     15 C15         3.5570    0.3720   -1.2000 ca        1 CQU     -0.104000
     16 C1         -0.6130   -0.6080    1.0330 ca        1 CQU      0.736200
     17 C2         -2.0380   -0.5040    0.9790 ca        1 CQU     -0.370400
     18 C5         -2.7990   -1.4460    1.7860 ca        1 CQU      0.463800
     19 N9         -4.1540   -1.1710    1.5890 na        1 CQU     -0.280100
     20 C11        -4.2580   -0.0990    0.6920 cd        1 CQU     -0.124100
     21 N10        -2.2180   -2.4100    2.5710 nb        1 CQU     -0.731000
     22 N4         -0.0340   -1.5740    1.8100 nb        1 CQU     -0.785000
     23 HN3        -0.3700    0.8230   -0.3860 hn        1 CQU      0.470800
     24 H6         -2.7650    1.1410   -0.3870 ha        1 CQU      0.167000
     25 H13         1.9130    0.1100    2.3180 ha        1 CQU      0.160000
     26 H8         -0.3540   -3.1560    3.1320 h5        1 CQU      0.049100
     27 H16         4.3710    0.1240    2.0970 ha        1 CQU      0.138000
     28 H19         5.4460    0.3100   -0.1500 ha        1 CQU      0.137000
     29 H22         1.5850   -0.3710   -6.3490 hc        1 CQU      0.062700
     30 H22A       -0.2140   -0.1120   -6.3530 hc        1 CQU      0.062700
     31 H22B        0.4750   -1.6790   -5.7390 hc        1 CQU      0.062700
     32 HN18        2.3870   -1.0410   -3.5620 hn        1 CQU      0.313700
     33 H15         4.0320    0.4700   -2.1880 ha        1 CQU      0.131000
     34 HN9        -4.9020   -1.6540    2.0120 hn        1 CQU      0.311700
     35 H11        -5.2400    0.2770    0.4010 h4        1 CQU      0.172000
@<TRIPOS>BOND
     1    1    2 1   
     2    1   16 1   
     3    1   23 1   
     4    2    4 ar  
     5    2   14 ar  
     6    3   17 1   
     7    3   20 2   
     8    3   24 1   
     9    4    7 ar  
    10    4   25 1   
    11    5    9 1   
    12    5   10 1   
    13    5   11 2   
    14    6   21 ar  
    15    6   22 ar  
    16    6   26 1   
    17    7    8 ar  
    18    7   27 1   
    19    8   15 ar  
    20    8   28 1   
    21    9   29 1   
    22    9   30 1   
    23    9   31 1   
    24   10   13 1   
    25   10   32 1   
    26   11   12 1   
    27   12   13 2   
    28   13   14 1   
    29   14   15 ar  
    30   15   33 1   
    31   16   17 ar  
    32   16   22 ar  
    33   17   18 ar  
    34   18   19 1   
    35   18   21 ar  
    36   19   20 1   
    37   19   34 1   
    38   20   35 1   
@<TRIPOS>SUBSTRUCTURE
     1 CQU         1 TEMP              0 ****  ****    0 ROOT
