@<TRIPOS>MOLECULE
CQU
   35    38     1     0     0
SMALL
bcc


@<TRIPOS>ATOM
      1 N3          0.1430    0.3030    0.3010 nh        1 CQU     -0.742300
      2 C7          1.5400    0.2560    0.1650 ca        1 CQU      0.198600
      3 C6         -2.9880    0.3270    0.3190 cc        1 CQU     -0.146200
      4 C13         2.3730    0.1760    1.3060 ca        1 CQU     -0.123000
      5 C21         0.6950    0.0080   -4.4300 cc        1 CQU      0.364800
      6 C8         -0.8550   -2.4000    2.5140 ca        1 CQU      0.674900
      7 C16         3.7550    0.1870    1.1770 ca        1 CQU     -0.101000
      8 C19         4.3520    0.2920   -0.0800 ca        1 CQU     -0.148000
      9 C22         0.6130   -0.5610   -5.7930 c3        1 CQU     -0.124400
     10 N18         1.6580   -0.3630   -3.4780 na        1 CQU     -0.436700
     11 N20        -0.1130    0.9600   -3.8610 nd        1 CQU     -0.346000
     12 N17         0.2860    1.1990   -2.6330 nd        1 CQU     -0.365000
     13 C14         1.3720    0.4110   -2.3390 cc        1 CQU      0.420000
     14 C12         2.1560    0.3470   -1.1110 ca        1 CQU     -0.171500
     15 C15         3.5540    0.3760   -1.2130 ca        1 CQU     -0.104000
     16 C1         -0.6040   -0.6130    1.0360 ca        1 CQU      0.736200
     17 C2         -2.0300   -0.5100    0.9900 ca        1 CQU     -0.370400
     18 C5         -2.7870   -1.4540    1.7970 ca        1 CQU      0.463800
     19 N9         -4.1430   -1.1790    1.6080 na        1 CQU     -0.280100
     20 C11        -4.2510   -0.1050    0.7150 cd        1 CQU     -0.124100
     21 N10        -2.2010   -2.4210    2.5770 nb        1 CQU     -0.731000
     22 N4         -0.0220   -1.5810    1.8080 nb        1 CQU     -0.785000
     23 HN3        -0.3700    0.8220   -0.3800 hn        1 CQU      0.470800
     24 H6         -2.7650    1.1390   -0.3690 ha        1 CQU      0.167000
     25 H13         1.9260    0.1040    2.3110 ha        1 CQU      0.160000
     26 H8         -0.3340   -3.1670    3.1270 h5        1 CQU      0.049100
     27 H16         4.3840    0.1210    2.0790 ha        1 CQU      0.138000
     28 H19         5.4480    0.3130   -0.1730 ha        1 CQU      0.137000
     29 H22         0.4510   -1.6670   -5.7420 hc        1 CQU      0.062700
     30 H22A        1.5590   -0.3580   -6.3550 hc        1 CQU      0.062700
     31 H22B       -0.2410   -0.0990   -6.3500 hc        1 CQU      0.062700
     32 HN18        2.3730   -1.0340   -3.5730 hn        1 CQU      0.313700
     33 H15         4.0240    0.4760   -2.2030 ha        1 CQU      0.131000
     34 HN9        -4.8880   -1.6640    2.0330 hn        1 CQU      0.311700
     35 H11        -5.2350    0.2710    0.4290 h4        1 CQU      0.172000
@<TRIPOS>BOND
     1    1    2 1   
     2    1   16 1   
     3    1   23 1   
     4    2    4 ar  
     5    2   14 ar  
     6    3   17 1   
     7    3   20 2   
     8    3   24 1   
     9    4    7 ar  
    10    4   25 1   
    11    5    9 1   
    12    5   10 1   
    13    5   11 2   
    14    6   21 ar  
    15    6   22 ar  
    16    6   26 1   
    17    7    8 ar  
    18    7   27 1   
    19    8   15 ar  
    20    8   28 1   
    21    9   29 1   
    22    9   30 1   
    23    9   31 1   
    24   10   13 1   
    25   10   32 1   
    26   11   12 1   
    27   12   13 2   
    28   13   14 1   
    29   14   15 ar  
    30   15   33 1   
    31   16   17 ar  
    32   16   22 ar  
    33   17   18 ar  
    34   18   19 1   
    35   18   21 ar  
    36   19   20 1   
    37   19   34 1   
    38   20   35 1   
@<TRIPOS>SUBSTRUCTURE
     1 CQU         1 TEMP              0 ****  ****    0 ROOT
