@<TRIPOS>MOLECULE
CQW
   30    23     1     0     0
SMALL
bcc


@<TRIPOS>ATOM
      1 C7         -3.2780   -0.0870    1.2470 c1        1 CQW      0.059000
      2 C9         -3.2740   -0.0870   -1.1140 c1        1 CQW     -0.001000
      3 C13        -1.9220   -0.0870    1.2470 c1        1 CQW     -0.161000
      4 C21         2.7910   -0.0740   -1.2030 c1        1 CQW     -0.110000
      5 N5         -3.7070   -0.0870    2.5660 n1        1 CQW     -0.189000
      6 C18         2.0110   -1.3690   -0.8810 c2        1 CQW     -0.089000
      7 CL1        -0.2260   -0.0680    3.7560 cl        1 CQW      0.050000
      8 C2         -1.4960   -0.0870    2.5610 c1        1 CQW     -0.107000
      9 C3         -2.6080   -0.0870    3.3670 c1        1 CQW     -0.086000
     10 N8         -3.9570   -0.0870    0.0680 n1        1 CQW     -0.183000
     11 C12        -1.2320   -0.0870    0.0470 c1        1 CQW      0.170000
     12 N11        -1.9060   -0.0870   -1.1160 n1        1 CQW     -0.235000
     13 N14         0.1840   -0.0770   -0.0460 n3        1 CQW     -0.217000
     14 C28         0.5970    1.1180   -0.5560 c3        1 CQW      0.019000
     15 C27         2.0790    1.1600   -1.1260 c2        1 CQW     -0.129000
     16 N26         2.9090    2.1370   -1.5060 n2        1 CQW     -0.121000
     17 C24         4.1330    1.5640   -1.8250 c1        1 CQW     -0.105000
     18 N22         4.0320    0.1930   -1.6280 n2        1 CQW     -0.193000
     19 C15         0.6130   -1.2310   -0.6760 c3        1 CQW     -0.052000
     20 H9         -3.7630   -0.0870   -1.9600 ha        1 CQW      0.191000
     21 HN5        -4.5750   -0.0870    2.8480 DU        1 CQW      0.225000
     22 H18         2.1470   -1.9940   -1.6190 ha        1 CQW      0.097500
     23 H18A        2.3970   -1.7610   -0.0750 ha        1 CQW      0.097500
     24 H3         -2.6100   -0.0880    4.3430 DU        1 CQW      0.225000
     25 H28         0.5540    1.7680    0.1710 h1        1 CQW      0.104500
     26 H28A        0.0010    1.3310   -1.3000 h1        1 CQW      0.104500
     27 H24         4.9270    2.0410   -2.1330 DU        1 CQW      0.225000
     28 HN22        4.6950   -0.4190   -1.7640 DU        1 CQW      0.225000
     29 H15         0.3110   -1.9920   -0.1450 h1        1 CQW      0.092500
     30 H15A        0.1750   -1.2770   -1.5470 h1        1 CQW      0.092500
@<TRIPOS>BOND
     1    1   10 1   
     2    2   12 1   
     3    2   20 1   
     4    3   11 1   
     5    4   15 1   
     6    4   18 1   
     7    5    9 1   
     8    6   19 1   
     9    6   22 1   
    10    6   23 1   
    11    7    8 1   
    12    8    9 1   
    13   11   13 1   
    14   13   14 1   
    15   13   19 1   
    16   14   15 1   
    17   14   25 1   
    18   14   26 1   
    19   15   16 1   
    20   16   17 1   
    21   17   18 1   
    22   19   29 1   
    23   19   30 1   
@<TRIPOS>SUBSTRUCTURE
     1 CQW         1 TEMP              0 ****  ****    0 ROOT
