@<TRIPOS>MOLECULE
CQW
   30    32     1     0     0
SMALL
bcc


@<TRIPOS>ATOM
      1 C7         -0.1330    0.1740   -0.3310 c2        1 CQW     -0.021100
      2 C9         -0.0900   -0.6250   -2.5930 c1        1 CQW      0.214400
      3 C13         1.2610    0.1500   -0.2870 ce        1 CQW     -0.321800
      4 C21         6.1880   -0.3870   -1.8230 cc        1 CQW      0.318600
      5 N5          0.8120   -0.5220    3.0820 n1        1 CQW     -0.330800
      6 C18         5.4630   -1.6660   -1.9470 c3        1 CQW     -0.099700
      7 C2          1.9580    0.5140    0.9740 c3        1 CQW      0.183000
      8 C3          1.3110   -0.0600    2.1400 c1        1 CQW      0.193700
      9 N8         -0.7870   -0.1960   -1.4720 nu        1 CQW     -0.211600
     10 C12         1.9620   -0.2820   -1.4880 ce        1 CQW      0.547600
     11 N11         1.2620   -0.6640   -2.5810 ne        1 CQW     -0.690700
     12 N14         3.3910   -0.3490   -1.4480 nh        1 CQW     -0.250100
     13 C28         4.0150    0.9700   -1.6220 c3        1 CQW      0.081600
     14 C27         5.4920    0.8350   -1.6560 cd        1 CQW     -0.239900
     15 N26         6.4600    1.8300   -1.5520 na        1 CQW     -0.303900
     16 C24         7.6990    1.1820   -1.6610 cd        1 CQW      0.393400
     17 N22         7.5630   -0.1550   -1.8240 nc        1 CQW     -0.649000
     18 C15         3.9850   -1.4010   -2.2760 c3        1 CQW     -0.001700
     19 H9         -1.7830   -0.1770   -1.5080 hn        1 CQW      0.311700
     20 HN5        -0.7230    0.4850    0.5530 h4        1 CQW      0.168000
     21 H18         5.5500   -2.2390   -0.9860 hc        1 CQW      0.068200
     22 H18A        5.8960   -2.2990   -2.7650 hc        1 CQW      0.068200
     23 H3          3.0400    0.1950    0.9670 h1        1 CQW      0.138700
     24 H28         3.6930    1.6230   -0.7610 h1        1 CQW      0.057200
     25 H28A        3.6720    1.4620   -2.5820 h1        1 CQW      0.057200
     26 H24         6.2990    2.7930   -1.4310 hn        1 CQW      0.303700
     27 HN22        8.6490    1.7230   -1.6160 h5        1 CQW      0.063100
     28 H15         3.9010   -1.1500   -3.3730 h1        1 CQW      0.060700
     29 H15A        3.4080   -2.3500   -2.0910 h1        1 CQW      0.060700
     30 Cl1         1.9910    2.2820    1.1780 cl        1 CQW     -0.169400
@<TRIPOS>BOND
     1    1    3 2   
     2    1    9 1   
     3    1   20 1   
     4    2    9 2   
     5    2   11 2   
     6    3    7 1   
     7    3   10 1   
     8    4    6 1   
     9    4   14 2   
    10    4   17 1   
    11    5    8 3   
    12    6   18 1   
    13    6   21 1   
    14    6   22 1   
    15    7    8 1   
    16    7   23 1   
    17    7   30 1   
    18    9   19 1   
    19   10   11 1   
    20   10   12 2   
    21   12   13 1   
    22   12   18 1   
    23   13   14 1   
    24   13   24 1   
    25   13   25 1   
    26   14   15 1   
    27   15   16 1   
    28   15   26 1   
    29   16   17 2   
    30   16   27 1   
    31   18   28 1   
    32   18   29 1   
@<TRIPOS>SUBSTRUCTURE
     1 CQW         1 TEMP              0 ****  ****    0 ROOT
