@<TRIPOS>MOLECULE
CQW
   30    32     1     0     0
SMALL
bcc


@<TRIPOS>ATOM
      1 C7         -0.1400    0.1800   -0.3700 c2        1 CQW     -0.021100
      2 C9         -0.0730   -0.6510   -2.6190 c1        1 CQW      0.214400
      3 C13         1.2530    0.1580   -0.3100 ce        1 CQW     -0.321800
      4 C21         6.1960   -0.3940   -1.7880 cc        1 CQW      0.318600
      5 N5          0.7700   -0.4660    3.0630 n1        1 CQW     -0.330800
      6 C18         5.4740   -1.6750   -1.9010 c3        1 CQW     -0.099700
      7 C2          1.9370    0.5420    0.9520 c3        1 CQW      0.183000
      8 C3          1.2780   -0.0160    2.1200 c1        1 CQW      0.193700
      9 N8         -0.7820   -0.2070   -1.5120 nh        1 CQW     -0.211600
     10 C12         1.9670   -0.2890   -1.4980 ce        1 CQW      0.547600
     11 N11         1.2780   -0.6880   -2.5920 ne        1 CQW     -0.690700
     12 N14         3.3950   -0.3540   -1.4420 nh        1 CQW     -0.250100
     13 C28         4.0200    0.9630   -1.6290 c3        1 CQW      0.081600
     14 C27         5.4970    0.8290   -1.6450 cd        1 CQW     -0.239900
     15 N26         6.4630    1.8270   -1.5460 na        1 CQW     -0.303900
     16 C24         7.7030    1.1790   -1.6320 cd        1 CQW      0.393400
     17 N22         7.5710   -0.1600   -1.7780 nc        1 CQW     -0.649000
     18 C15         3.9990   -1.4170   -2.2490 c3        1 CQW     -0.001700
     19 H9         -1.7780   -0.1900   -1.5580 hn        1 CQW      0.311700
     20 HN5        -0.7400    0.5030    0.5040 h4        1 CQW      0.168000
     21 H18         5.5520   -2.2350   -0.9310 hc        1 CQW      0.068200
     22 H18A        5.9160   -2.3200   -2.7050 hc        1 CQW      0.068200
     23 H3          3.0190    0.2240    0.9610 h1        1 CQW      0.138700
     24 H28         3.6880    1.6270   -0.7800 h1        1 CQW      0.057200
     25 H28A        3.6860    1.4410   -2.5980 h1        1 CQW      0.057200
     26 H24         6.2990    2.7920   -1.4400 hn        1 CQW      0.303700
     27 HN22        8.6530    1.7220   -1.5850 h5        1 CQW      0.063100
     28 H15         3.9260   -1.1820   -3.3500 h1        1 CQW      0.060700
     29 H15A        3.4220   -2.3650   -2.0560 h1        1 CQW      0.060700
     30 CL1         1.9650    2.3130    1.1310 cl        1 CQW     -0.169400
@<TRIPOS>BOND
     1    1    3 2   
     2    1    9 1   
     3    1   20 1   
     4    2    9 2   
     5    2   11 2   
     6    3    7 1   
     7    3   10 1   
     8    4    6 1   
     9    4   14 2   
    10    4   17 1   
    11    5    8 3   
    12    6   18 1   
    13    6   21 1   
    14    6   22 1   
    15    7    8 1   
    16    7   23 1   
    17    7   30 1   
    18    9   19 1   
    19   10   11 1   
    20   10   12 2   
    21   12   13 1   
    22   12   18 1   
    23   13   14 1   
    24   13   24 1   
    25   13   25 1   
    26   14   15 1   
    27   15   16 1   
    28   15   26 1   
    29   16   17 2   
    30   16   27 1   
    31   18   28 1   
    32   18   29 1   
@<TRIPOS>SUBSTRUCTURE
     1 CQW         1 TEMP              0 ****  ****    0 ROOT
