@<TRIPOS>MOLECULE
CQW
   30    31     1     0     0
SMALL
bcc


@<TRIPOS>ATOM
      1 C7         -0.0840    0.0890   -0.2450 c2        1 CQW      0.005000
      2 C9         -0.1160    0.2250   -2.6400 c1        1 CQW     -0.005000
      3 C13         1.3020   -0.0780   -0.2630 c2        1 CQW     -0.219000
      4 C21         6.4610    0.5260   -0.3250 c2        1 CQW     -0.206000
      5 N5          0.7770   -1.7960    2.7000 n1        1 CQW     -0.001000
      6 C18         6.1100    0.3200    1.0220 c1        1 CQW     -0.006000
      7 C2          2.0400   -0.2470    1.0160 c3        1 CQW      0.087000
      8 C3          1.3280   -1.1030    1.9470 c1        1 CQW     -0.159000
      9 N8         -0.7680    0.2410   -1.4180 n3        1 CQW     -0.185000
     10 C12         1.9520   -0.0910   -1.5620 c2        1 CQW      0.168000
     11 N11         1.2280    0.0590   -2.6920 n2        1 CQW     -0.249000
     12 N14         3.3760   -0.3140   -1.6080 n3        1 CQW     -0.226000
     13 C28         4.1090    0.9450   -1.4600 c3        1 CQW     -0.028000
     14 C27         5.5900    0.7690   -1.4490 c2        1 CQW     -0.027000
     15 N26         6.3950    0.8430   -2.5670 na        1 CQW     -0.197000
     16 C24         7.7270    0.6700   -2.1240 c2        1 CQW     -0.109000
     17 N22         7.7920    0.4770   -0.8030 n2        1 CQW     -0.042000
     18 C15         3.8160   -1.1280   -2.7230 c3        1 CQW     -0.125000
     19 H9         -1.7590    0.3600   -1.4080 hn        1 CQW      0.265000
     20 HN5        -0.6420    0.0980    0.7120 h4        1 CQW      0.173000
     21 H18         4.8390   -1.5160   -2.4710 h1        1 CQW      0.091667
     22 H18A        5.0400    0.4930    1.2440 ha        1 CQW      0.024000
     23 H3          3.0750   -0.6680    0.8560 h1        1 CQW      0.179000
     24 H28         3.8110    1.3920   -0.4640 h1        1 CQW      0.113000
     25 H28A        3.8270    1.6830   -2.2710 h1        1 CQW      0.113000
     26 H24         6.0980    0.9780   -3.4990 hn        1 CQW      0.258000
     27 HN22        8.5750    0.6990   -2.8190 h5        1 CQW      0.208000
     28 H15         3.8610   -0.5670   -3.6950 h1        1 CQW      0.091667
     29 H15A        3.1230   -2.0010   -2.8470 h1        1 CQW      0.091667
     30 CL1         2.2920    1.3340    1.7870 cl        1 CQW     -0.084000
@<TRIPOS>BOND
     1    1    3 1   
     2    1    9 1   
     3    1   20 1   
     4    2    9 1   
     5    2   11 1   
     6    3    7 1   
     7    3   10 1   
     8    4    6 1   
     9    4   14 1   
    10    4   17 1   
    11    5    8 1   
    12    6   22 1   
    13    7    8 1   
    14    7   23 1   
    15    7   30 1   
    16    9   19 1   
    17   10   11 1   
    18   10   12 1   
    19   12   13 1   
    20   12   18 1   
    21   13   14 1   
    22   13   24 1   
    23   13   25 1   
    24   14   15 1   
    25   15   16 1   
    26   15   26 1   
    27   16   17 1   
    28   16   27 1   
    29   18   21 1   
    30   18   28 1   
    31   18   29 1   
@<TRIPOS>SUBSTRUCTURE
     1 CQW         1 TEMP              0 ****  ****    0 ROOT
