@<TRIPOS>MOLECULE
CQW
   30    33     1     0     0
SMALL
bcc


@<TRIPOS>ATOM
      1 C7          3.2450   -0.5580    0.1940 ca        1 CQW      0.450800
      2 C9          2.5510   -2.5900   -0.5360 ca        1 CQW      0.661900
      3 C13         1.8810   -0.0450    0.0940 ca        1 CQW     -0.303400
      4 C21        -3.2200   -0.0560   -0.6270 cc        1 CQW     -0.206900
      5 N5          4.0680    0.4840    0.6300 na        1 CQW     -0.275100
      6 C18        -2.5370   -0.4090   -1.8820 c3        1 CQW     -0.003100
      7 C2          1.9520    1.3440    0.4710 cc        1 CQW     -0.010800
      8 C3          3.2830    1.6270    0.7910 cd        1 CQW     -0.113100
      9 N8          3.5950   -1.8450   -0.1190 nb        1 CQW     -0.709000
     10 C12         0.8830   -0.9630   -0.3450 ca        1 CQW      0.691200
     11 N11         1.2380   -2.2400   -0.6620 nb        1 CQW     -0.761000
     12 N14        -0.4650   -0.5000   -0.4830 nh        1 CQW     -0.726300
     13 C28        -1.1590   -0.4410    0.8120 c3        1 CQW      0.161500
     14 C27        -2.5840   -0.0530    0.6370 cd        1 CQW      0.293600
     15 N26        -3.4820    0.3420    1.6280 nd        1 CQW     -0.647000
     16 C24        -4.6450    0.5770    0.9770 cc        1 CQW      0.383400
     17 N22        -4.5340    0.3480   -0.4030 na        1 CQW     -0.306900
     18 C15        -1.2310   -1.1510   -1.5440 c3        1 CQW      0.184800
     19 H9          2.7860   -3.6410   -0.8080 h5        1 CQW      0.054100
     20 HN5         5.0400    0.4170    0.7880 hn        1 CQW      0.316700
     21 H18        -3.1650   -1.0780   -2.5250 hc        1 CQW      0.058200
     22 H18A       -2.3090    0.5230   -2.4670 hc        1 CQW      0.058200
     23 H3          3.7280    2.5670    1.1220 h4        1 CQW      0.183000
     24 H28        -1.1230   -1.4380    1.3450 h1        1 CQW      0.065200
     25 H28A       -0.6230    0.3180    1.4500 h1        1 CQW      0.065200
     26 H24        -5.5790    0.9060    1.4440 h5        1 CQW      0.061100
     27 HN22       -5.2380    0.4550   -1.0820 hn        1 CQW      0.301700
     28 H15        -1.4910   -2.2150   -1.2750 h1        1 CQW      0.053200
     29 H15A       -0.5930   -1.1700   -2.4710 h1        1 CQW      0.053200
     30 CL1         0.7060    2.4500    0.5020 cl        1 CQW     -0.034400
@<TRIPOS>BOND
     1    1    3 ar  
     2    1    5 1   
     3    1    9 ar  
     4    2    9 ar  
     5    2   11 ar  
     6    2   19 1   
     7    3    7 1   
     8    3   10 ar  
     9    4    6 1   
    10    4   14 2   
    11    4   17 1   
    12    5    8 1   
    13    5   20 1   
    14    6   18 1   
    15    6   21 1   
    16    6   22 1   
    17    7    8 2   
    18    7   30 1   
    19    8   23 1   
    20   10   11 ar  
    21   10   12 1   
    22   12   13 1   
    23   12   18 1   
    24   13   14 1   
    25   13   24 1   
    26   13   25 1   
    27   14   15 1   
    28   15   16 2   
    29   16   17 1   
    30   16   26 1   
    31   17   27 1   
    32   18   28 1   
    33   18   29 1   
@<TRIPOS>SUBSTRUCTURE
     1 CQW         1 TEMP              0 ****  ****    0 ROOT
