@<TRIPOS>MOLECULE
CR0
   40    40     1     0     0
SMALL
bcc


@<TRIPOS>ATOM
      1 N1         -0.3150    1.5280    1.9350 n3        1 CR0     -0.899800
      2 CA1         0.7410    1.7100    0.9360 c3        1 CR0      0.191500
      3 CB1         2.0250    2.2420    1.6330 c3        1 CR0      0.089100
      4 CG1         1.8570    3.6860    1.9490 c3        1 CR0     -0.138100
      5 OG1         2.2420    1.5300    2.8130 oh        1 CR0     -0.600800
      6 C1          1.0210    0.4760    0.3190 c3        1 CR0      0.459400
      7 N2          0.0280   -0.4160    0.5850 n2        1 CR0     -0.549900
      8 N3          0.8770    0.6100   -1.2740 n         1 CR0     -0.469800
      9 C2         -0.0560   -0.4560   -1.6590 c         1 CR0      0.560200
     10 O2         -0.6050   -0.5660   -2.7270 o         1 CR0     -0.576500
     11 CA2        -0.5160   -0.9500   -0.4580 ce        1 CR0      0.404300
     12 CA3         1.7530    1.3080   -2.1380 c3        1 CR0     -0.011000
     13 C3          1.9420    0.5120   -3.4260 c         1 CR0      0.549900
     14 O3          1.2950    0.8010   -4.4240 o         1 CR0     -0.530100
     15 CB2        -1.0970   -2.4010   -0.3800 c3        1 CR0     -0.111700
     16 CG2        -2.6230   -2.3330   -0.2180 c3        1 CR0     -0.062700
     17 CD1        -3.0470   -3.1210    1.0560 c3        1 CR0     -0.094600
     18 CD2        -3.3000   -2.9550   -1.4600 c3        1 CR0     -0.094600
     19 OE1         2.2810    0.2040    0.8270 oh        1 CR0     -0.620800
     20 HN11       -1.0270    2.0880    1.7380 hn        1 CR0      0.363300
     21 HN12        0.0140    1.7330    2.7710 hn        1 CR0      0.363300
     22 HA1         0.4380    2.3710    0.2450 h1        1 CR0      0.073700
     23 HB1         2.8010    2.1250    1.0290 h1        1 CR0      0.053700
     24 HG11        1.7750    3.7990    2.9160 hc        1 CR0      0.048700
     25 HG12        1.0580    4.0200    1.5170 hc        1 CR0      0.048700
     26 HG13        2.6380    4.1850    1.6250 hc        1 CR0      0.048700
     27 HG1         3.0040    1.8020    3.1900 ho        1 CR0      0.406000
     28 HA31        1.3760    2.1730   -2.3460 h1        1 CR0      0.091700
     29 HA32        2.6100    1.4260   -1.7030 h1        1 CR0      0.091700
     30 H3          2.5930   -0.2350   -3.4550 h4        1 CR0      0.021200
     31 HB21       -0.7130   -2.8630    0.3810 hc        1 CR0      0.076200
     32 HB22       -0.8760   -2.8880   -1.2060 hc        1 CR0      0.076200
     33 HG2        -2.8980   -1.4050   -0.1310 hc        1 CR0      0.064700
     34 HD11       -2.8030   -4.0650    0.9530 hc        1 CR0      0.037700
     35 HD12       -2.5850   -2.7450    1.8440 hc        1 CR0      0.037700
     36 HD13       -4.0240   -3.0450    1.1810 hc        1 CR0      0.037700
     37 HD21       -4.2670   -3.0480   -1.2960 hc        1 CR0      0.037700
     38 HD22       -3.1540   -2.3690   -2.2450 hc        1 CR0      0.037700
     39 HD23       -2.9120   -3.8380   -1.6360 hc        1 CR0      0.037700
     40 HE1         2.4500   -0.6270    0.7370 ho        1 CR0      0.451000
@<TRIPOS>BOND
     1    1    2 1   
     2    1   20 1   
     3    1   21 1   
     4    2    3 1   
     5    2    6 1   
     6    2   22 1   
     7    3    4 1   
     8    3    5 1   
     9    3   23 1   
    10    4   24 1   
    11    4   25 1   
    12    4   26 1   
    13    5   27 1   
    14    6    7 1   
    15    6    8 1   
    16    6   19 1   
    17    7   11 2   
    18    8    9 1   
    19    8   12 1   
    20    9   10 2   
    21    9   11 1   
    22   11   15 1   
    23   12   13 1   
    24   12   28 1   
    25   12   29 1   
    26   13   14 2   
    27   13   30 1   
    28   15   16 1   
    29   15   31 1   
    30   15   32 1   
    31   16   17 1   
    32   16   18 1   
    33   16   33 1   
    34   17   34 1   
    35   17   35 1   
    36   17   36 1   
    37   18   37 1   
    38   18   38 1   
    39   18   39 1   
    40   19   40 1   
@<TRIPOS>SUBSTRUCTURE
     1 CR0         1 TEMP              0 ****  ****    0 ROOT
