@<TRIPOS>MOLECULE
CR0
   40    40     1     0     0
SMALL
bcc


@<TRIPOS>ATOM
      1 N1          1.5550    1.9710   -0.6170 n3        1 CR0     -0.910800
      2 CA1         1.8960    0.5770   -0.7810 c3        1 CR0      0.157500
      3 CB1         3.1360    0.0790    0.0150 c3        1 CR0      0.109100
      4 CG1         4.3800    0.1760   -0.8500 c3        1 CR0     -0.134100
      5 OG1         3.2960    0.7840    1.2340 oh        1 CR0     -0.581800
      6 C1          0.6530   -0.3370   -0.4340 c3        1 CR0      0.446400
      7 N2          0.3010   -0.2530    1.0350 n2        1 CR0     -0.548900
      8 N3         -0.5990    0.0280   -1.1780 n         1 CR0     -0.503800
      9 C2         -1.5460    0.4760   -0.2450 c         1 CR0      0.563200
     10 O2         -2.6660    0.9360   -0.4830 o         1 CR0     -0.579500
     11 CA2        -0.9100    0.2130    1.1330 ce        1 CR0      0.398300
     12 CA3        -0.6220    0.3860   -2.5610 c3        1 CR0     -0.014000
     13 C3         -0.2990   -0.7600   -3.5030 c         1 CR0      0.555900
     14 O3         -0.3930   -0.6160   -4.7210 o         1 CR0     -0.526100
     15 CB2        -1.6940    0.5350    2.3510 c3        1 CR0     -0.112700
     16 CG2        -1.4950   -0.4490    3.4960 c3        1 CR0     -0.064700
     17 CD1        -2.1260    0.1110    4.7560 c3        1 CR0     -0.092100
     18 CD2        -2.0920   -1.8000    3.1650 c3        1 CR0     -0.092100
     19 OE1         1.0750   -1.6430   -0.8180 oh        1 CR0     -0.583800
     20 HN11        1.4600    2.2030    0.3550 hn        1 CR0      0.361800
     21 HN12        2.2690    2.5460   -1.0200 hn        1 CR0      0.361800
     22 HA1         2.1030    0.3940   -1.8780 h1        1 CR0      0.077700
     23 HB1         2.9670   -0.9900    0.3370 h1        1 CR0      0.108700
     24 HG11        5.2800   -0.0950   -0.2470 hc        1 CR0      0.047367
     25 HG12        4.3030   -0.5250   -1.7140 hc        1 CR0      0.047367
     26 HG13        4.5120    1.2140   -1.2390 hc        1 CR0      0.047367
     27 HG1         3.7520    1.6120    1.0400 ho        1 CR0      0.388000
     28 HA31        0.1070    1.2220   -2.7790 h1        1 CR0      0.092700
     29 HA32       -1.6590    0.7680   -2.8050 h1        1 CR0      0.092700
     30 H3          0.0390   -1.7150   -3.0420 h4        1 CR0      0.017200
     31 HB21       -2.7810    0.5770    2.0680 hc        1 CR0      0.077700
     32 HB22       -1.3920    1.5660    2.6890 hc        1 CR0      0.077700
     33 HG2        -0.3900   -0.5770    3.6790 hc        1 CR0      0.069700
     34 HD11       -1.9950   -0.6080    5.6010 hc        1 CR0      0.036700
     35 HD12       -1.6470    1.0790    5.0370 hc        1 CR0      0.036700
     36 HD13       -3.2190    0.2850    4.6060 hc        1 CR0      0.036700
     37 HD21       -3.1930   -1.7140    2.9980 hc        1 CR0      0.036700
     38 HD22       -1.6240   -2.2160    2.2410 hc        1 CR0      0.036700
     39 HD23       -1.9160   -2.5140    4.0050 hc        1 CR0      0.036700
     40 HE1         0.4430   -2.2950   -0.4860 ho        1 CR0      0.425000
@<TRIPOS>BOND
     1    1    2 1   
     2    1   20 1   
     3    1   21 1   
     4    2    3 1   
     5    2    6 1   
     6    2   22 1   
     7    3    4 1   
     8    3    5 1   
     9    3   23 1   
    10    4   24 1   
    11    4   25 1   
    12    4   26 1   
    13    5   27 1   
    14    6    7 1   
    15    6    8 1   
    16    6   19 1   
    17    7   11 2   
    18    8    9 1   
    19    8   12 1   
    20    9   10 2   
    21    9   11 1   
    22   11   15 1   
    23   12   13 1   
    24   12   28 1   
    25   12   29 1   
    26   13   14 2   
    27   13   30 1   
    28   15   16 1   
    29   15   31 1   
    30   15   32 1   
    31   16   17 1   
    32   16   18 1   
    33   16   33 1   
    34   17   34 1   
    35   17   35 1   
    36   17   36 1   
    37   18   37 1   
    38   18   38 1   
    39   18   39 1   
    40   19   40 1   
@<TRIPOS>SUBSTRUCTURE
     1 CR0         1 TEMP              0 ****  ****    0 ROOT
