@<TRIPOS>MOLECULE
CR1
   31    31     1     0     0
SMALL
bcc


@<TRIPOS>ATOM
      1 C2         -1.6330    0.2500   -0.5860 c3        1 CR1      0.090100
      2 O2         -2.8250   -0.3840   -0.1640 oh        1 CR1     -0.601800
      3 C4          0.0260    0.1900   -2.4850 c3        1 CR1      0.118100
      4 C5          1.1130   -0.1320   -1.4450 c3        1 CR1      0.150100
      5 C6          2.4550    0.4820   -1.8520 c3        1 CR1      0.135400
      6 C1         -0.4460   -0.0770    0.3640 c3        1 CR1      0.244500
      7 C3         -1.3290   -0.3310   -1.9780 c3        1 CR1      0.108100
      8 O3         -2.3000    0.0940   -2.9190 oh        1 CR1     -0.606800
      9 O4          0.3870   -0.4580   -3.6910 oh        1 CR1     -0.593800
     10 O5          0.7600    0.4740   -0.2000 os        1 CR1     -0.444600
     11 N2         -0.6230    0.5310    1.6680 n         1 CR1     -0.497900
     12 O6          3.4660   -0.3110   -1.2530 oh        1 CR1     -0.595800
     13 C7         -0.1450   -0.1800    2.7740 c         1 CR1      0.720100
     14 O7         -0.0370   -1.4070    2.9060 o         1 CR1     -0.561000
     15 C8          0.4790   -0.0500    5.0600 c3        1 CR1      0.136700
     16 O8          0.1370    0.6340    3.8520 os        1 CR1     -0.440900
     17 H21        -1.7880    1.3610   -0.6600 h1        1 CR1      0.062700
     18 H1O2       -3.0280   -0.0620    0.7240 ho        1 CR1      0.426000
     19 H41        -0.0380    1.3000   -2.6540 h1        1 CR1      0.059700
     20 H51         1.2190   -1.2440   -1.3180 h1        1 CR1      0.084700
     21 H61         2.5490    0.4390   -2.9710 h1        1 CR1      0.047200
     22 H62         2.5220    1.5440   -1.4970 h1        1 CR1      0.047200
     23 H11        -0.3460   -1.1990    0.4740 h2        1 CR1      0.103700
     24 H31        -1.3210   -1.4560   -1.9260 h1        1 CR1      0.068700
     25 H1O3       -3.1580   -0.1900   -2.5780 ho        1 CR1      0.429000
     26 H1O4       -0.3630   -0.3520   -4.2930 ho        1 CR1      0.426000
     27 H1N2       -0.4330    1.5130    1.6960 hn        1 CR1      0.315500
     28 H1O6        4.3000    0.1500   -1.4010 ho        1 CR1      0.404000
     29 H81         0.6630    0.7840    5.7820 h1        1 CR1      0.055033
     30 H82        -0.3690   -0.6980    5.3850 h1        1 CR1      0.055033
     31 H83         1.3960   -0.6670    4.9010 h1        1 CR1      0.055033
@<TRIPOS>BOND
     1    1    2 1   
     2    1    6 1   
     3    1    7 1   
     4    1   17 1   
     5    2   18 1   
     6    3    4 1   
     7    3    7 1   
     8    3    9 1   
     9    3   19 1   
    10    4    5 1   
    11    4   10 1   
    12    4   20 1   
    13    5   12 1   
    14    5   21 1   
    15    5   22 1   
    16    6   10 1   
    17    6   11 1   
    18    6   23 1   
    19    7    8 1   
    20    7   24 1   
    21    8   25 1   
    22    9   26 1   
    23   11   13 1   
    24   11   27 1   
    25   12   28 1   
    26   13   14 2   
    27   13   16 1   
    28   15   16 1   
    29   15   29 1   
    30   15   30 1   
    31   15   31 1   
@<TRIPOS>SUBSTRUCTURE
     1 CR1         1 TEMP              0 ****  ****    0 ROOT
