@<TRIPOS>MOLECULE
CR2
   32    33     1     0     0
SMALL
bcc


@<TRIPOS>ATOM
      1 N1         -1.3070    3.4730   -0.7010 n3        1 CR2     -0.894800
      2 CA1        -2.1780    2.3320   -0.6900 c3        1 CR2      0.103500
      3 C1         -1.5150    0.9740   -0.5590 cc        1 CR2      0.475900
      4 N2         -0.2010    0.7880   -0.3680 nd        1 CR2     -0.684300
      5 N3         -2.2660   -0.2260   -0.6730 n         1 CR2     -0.374300
      6 C2         -1.3600   -1.2950   -0.4380 c         1 CR2      0.664700
      7 O2         -1.6140   -2.5040   -0.4430 o         1 CR2     -0.601500
      8 CA2         0.0030   -0.6160   -0.2750 cd        1 CR2      0.047400
      9 CA3        -3.6950   -0.3300   -0.5670 c3        1 CR2     -0.049000
     10 C3         -4.3820    0.2490    0.7080 c         1 CR2      0.905600
     11 O3         -3.7270    0.9860    1.4940 o         1 CR2     -0.824300
     12 CB2         1.1340   -1.3260   -0.1040 ce        1 CR2     -0.078200
     13 CG2         2.4820   -0.8150    0.0360 ca        1 CR2     -0.065800
     14 CD1         3.5530   -1.6210   -0.3940 ca        1 CR2     -0.077000
     15 CD2         2.7610    0.4360    0.6040 ca        1 CR2     -0.077000
     16 CE1         4.8690   -1.1910   -0.2810 ca        1 CR2     -0.194000
     17 CE2         4.0750    0.8810    0.7290 ca        1 CR2     -0.194000
     18 CZ          5.1250    0.0690    0.2840 ca        1 CR2      0.110100
     19 OH          6.4490    0.4480    0.3750 oh        1 CR2     -0.509100
     20 OXT        -5.5970   -0.0560    0.8370 o         1 CR2     -0.824300
     21 HN11       -0.8700    3.5910    0.1930 hn        1 CR2      0.347800
     22 HN12       -0.5890    3.3740   -1.3920 hn        1 CR2      0.347800
     23 HA11       -2.9060    2.4160    0.1820 h1        1 CR2      0.109700
     24 HA12       -2.7730    2.3290   -1.6480 h1        1 CR2      0.109700
     25 HA31       -4.1390    0.2030   -1.4540 h1        1 CR2      0.054200
     26 HA32       -3.9580   -1.4220   -0.6280 h1        1 CR2      0.054200
     27 HB2         1.0380   -2.4290   -0.0840 ha        1 CR2      0.140000
     28 HD1         3.3430   -2.6080   -0.8340 ha        1 CR2      0.149000
     29 HD2         1.9400    1.0750    0.9640 ha        1 CR2      0.149000
     30 HE1         5.7050   -1.8150   -0.6220 ha        1 CR2      0.133000
     31 HE2         4.2850    1.8630    1.1740 ha        1 CR2      0.133000
     32 HOH         6.4720    1.3300    0.7710 ho        1 CR2      0.412000
@<TRIPOS>BOND
     1    1    2 1   
     2    1   21 1   
     3    1   22 1   
     4    2    3 1   
     5    2   23 1   
     6    2   24 1   
     7    3    4 2   
     8    3    5 1   
     9    4    8 1   
    10    5    6 1   
    11    5    9 1   
    12    6    7 2   
    13    6    8 1   
    14    8   12 2   
    15    9   10 1   
    16    9   25 1   
    17    9   26 1   
    18   10   11 1   
    19   10   20 1   
    20   12   13 1   
    21   12   27 1   
    22   13   14 ar  
    23   13   15 ar  
    24   14   16 ar  
    25   14   28 1   
    26   15   17 ar  
    27   15   29 1   
    28   16   18 ar  
    29   16   30 1   
    30   17   18 ar  
    31   17   31 1   
    32   18   19 1   
    33   19   32 1   
@<TRIPOS>SUBSTRUCTURE
     1 CR2         1 TEMP              0 ****  ****    0 ROOT
