@<TRIPOS>MOLECULE
CR2
   32    28     1     0     0
SMALL
bcc


@<TRIPOS>ATOM
      1 N1          0.4050    1.5500   -3.2710 n3        1 CR2     -0.327000
      2 CA1         0.5710    0.1460   -2.8420 c3        1 CR2     -0.058000
      3 C1          1.0760    0.1080   -1.4120 c1        1 CR2      0.106000
      4 N2          0.2090    0.0940   -0.4030 n1        1 CR2     -0.255000
      5 N3          2.2970   -0.5140   -1.1160 n2        1 CR2     -0.263000
      6 C2          2.1210   -0.9750    0.3060 c2        1 CR2      0.302000
      7 O2          2.9350   -1.5810    1.0080 o         1 CR2     -0.326000
      8 CA2         0.6730   -0.5160    0.6960 c1        1 CR2     -0.073000
      9 CA3         3.6110   -0.2500   -1.7960 c3        1 CR2     -0.115000
     10 C3          4.3710   -1.5760   -1.9830 c2        1 CR2      0.325000
     11 O3          4.5750   -2.3280   -0.9980 o         1 CR2     -0.559000
     12 CB2         0.0510   -0.6930    1.8530 c1        1 CR2     -0.091000
     13 CG2        -1.3630   -0.1720    2.0420 c1        1 CR2     -0.053000
     14 CD1        -2.4410   -1.0470    1.9460 c2        1 CR2     -0.064000
     15 CD2        -1.5810    1.1860    2.3510 c1        1 CR2     -0.091000
     16 CE1        -3.7380   -0.5800    2.1550 c1        1 CR2     -0.165000
     17 CE2        -2.8800    1.6540    2.5610 c1        1 CR2     -0.222000
     18 CZ         -3.9560    0.7830    2.4650 c1        1 CR2      0.065000
     19 OH         -5.2780    1.2810    2.5650 oh        1 CR2     -0.260000
     20 OXT         4.7600   -1.9390   -3.1700 o         1 CR2     -0.559000
     21 HN11       -0.4740    1.6770   -3.5920 hn        1 CR2      0.143500
     22 HN12        1.0000    1.7400   -3.9330 hn        1 CR2      0.143500
     23 HA11        1.2120   -0.3000   -3.4260 h1        1 CR2      0.149500
     24 HA12       -0.3150   -0.3260   -2.8950 h1        1 CR2      0.149500
     25 HA31        4.1720    0.3870   -1.2210 h1        1 CR2      0.093500
     26 HA32        3.4470    0.1620   -2.6790 h1        1 CR2      0.093500
     27 HB2         0.4990   -1.1540    2.5780 ha        1 CR2      0.139000
     28 HD1        -2.2860   -2.0090    1.7260 ha        1 CR2      0.168000
     29 HD2        -0.8230    1.7780    2.5000 ha        1 CR2      0.130000
     30 HE1        -4.5130   -1.2070    2.0860 ha        1 CR2      0.144000
     31 HE2        -3.0390    2.6340    2.7440 ha        1 CR2      0.122000
     32 HOH        -5.2970    1.9870    3.1560 ho        1 CR2      0.209000
@<TRIPOS>BOND
     1    1    2 1   
     2    1   21 1   
     3    1   22 1   
     4    2    3 1   
     5    2   23 1   
     6    2   24 1   
     7    3    4 1   
     8    5    6 1   
     9    5    9 1   
    10    6    7 1   
    11    6    8 1   
    12    8   12 1   
    13    9   10 1   
    14    9   25 1   
    15    9   26 1   
    16   10   11 1   
    17   10   20 1   
    18   12   27 1   
    19   13   14 1   
    20   13   15 1   
    21   14   16 1   
    22   14   28 1   
    23   15   29 1   
    24   16   30 1   
    25   17   18 1   
    26   17   31 1   
    27   18   19 1   
    28   19   32 1   
@<TRIPOS>SUBSTRUCTURE
     1 CR2         1 TEMP              0 ****  ****    0 ROOT
