@<TRIPOS>MOLECULE
CR3
   46    38     1     0     0
SMALL
bcc


@<TRIPOS>ATOM
      1 C1         -0.9920    0.8850   -5.1150 c1        1 CR3     -0.221000
      2 C2          0.1240    1.7110   -5.1450 c1        1 CR3     -0.133750
      3 C3          0.7230    2.1110   -3.9590 c1        1 CR3     -0.133750
      4 C4          0.2020    1.6800   -2.7280 c1        1 CR3      0.007500
      5 C5         -0.9000    0.8640   -2.6980 c1        1 CR3      0.007500
      6 C6         -1.5070    0.4590   -3.9000 c1        1 CR3     -0.089000
      7 C7         -1.4370    0.4180   -6.4840 c2        1 CR3      0.352000
      8 N1         -0.8050   -0.6960   -7.0950 n3        1 CR3     -0.353000
      9 N2         -2.4060    1.0420   -7.1060 n2        1 CR3     -0.350000
     10 N3          0.5910    1.9200   -1.4220 n1        1 CR3     -0.183000
     11 CN4        -1.1950    0.5970   -1.3790 c1        1 CR3     -0.325000
     12 C8         -0.2690    1.2540   -0.5940 c2        1 CR3      0.192000
     13 C1'        -0.2570    1.3160    0.7910 c1        1 CR3     -0.317000
     14 C2'        -1.0990    2.1970    1.4520 c1        1 CR3     -0.133750
     15 C3'        -1.1350    2.2140    2.8370 c1        1 CR3     -0.133750
     16 C4'        -0.3280    1.3510    3.5620 c1        1 CR3     -0.078000
     17 C5'         0.5140    0.4700    2.9010 c1        1 CR3     -0.089000
     18 O5'         1.3420   -0.3950    3.6360 o         1 CR3     -0.216000
     19 C6'         0.5500    0.4530    1.5160 c2        1 CR3      0.306000
     20 O6'         1.4470   -0.3970    0.8480 o         1 CR3     -0.467000
     21 C1B         1.1140   -2.8910    3.6130 c3        1 CR3     -0.178500
     22 C2B         0.5650   -1.4490    4.1710 c3        1 CR3      0.036000
     23 C3B         0.6980   -1.4880    5.5150 c3        1 CR3     -0.178500
     24 C4B         1.8970   -2.4980    5.7830 c3        1 CR3     -0.153500
     25 C5B         2.1670   -3.2210    4.3910 c3        1 CR3     -0.153500
     26 HC2         0.4860    2.0100   -6.0000 ha        1 CR3      0.121250
     27 HC3         1.5080    2.6920   -3.9810 ha        1 CR3      0.121250
     28 HC6        -2.2910   -0.1220   -3.8790 ha        1 CR3      0.125000
     29 HH11       -0.0400   -1.0430   -6.7330 hn        1 CR3      0.259500
     30 HH12       -1.1640   -1.0690   -7.8490 hn        1 CR3      0.259500
     31 HH21       -2.8140    1.7610   -6.7120 DU        1 CR3      0.245667
     32 HH22       -2.6760    0.7600   -7.9340 hn        1 CR3      0.245000
     33 HN3         1.2980    2.4330   -1.1590 DU        1 CR3      0.245667
     34 HCN4       -1.9300    0.0420   -1.0560 DU        1 CR3      0.245667
     35 HC2'       -1.6670    2.8050    0.9420 ha        1 CR3      0.121250
     36 HC3'       -1.7280    2.8340    3.3030 ha        1 CR3      0.121250
     37 HC4'       -0.3540    1.3630    4.5380 ha        1 CR3      0.120000
     38 H1A         1.3980   -2.8050    2.6800 hc        1 CR3      0.097500
     39 H1B         0.4120   -3.5710    3.6910 hc        1 CR3      0.097500
     40 H2A        -0.3760   -1.3300    3.9290 h1        1 CR3      0.075000
     41 H3A        -0.1250   -1.8200    5.9290 hc        1 CR3      0.097500
     42 H3B         0.9200   -0.5990    5.8610 hc        1 CR3      0.097500
     43 H4A         2.6930   -2.0090    6.0700 hc        1 CR3      0.072250
     44 H4B         1.6400   -3.1550    6.4600 hc        1 CR3      0.072250
     45 H5A         3.0000   -2.8910    3.9930 hc        1 CR3      0.072250
     46 H5B         2.2090   -4.1920    4.5140 hc        1 CR3      0.072250
@<TRIPOS>BOND
     1    1    6 1   
     2    1    7 1   
     3    2    3 1   
     4    2   26 1   
     5    3   27 1   
     6    4    5 1   
     7    6   28 1   
     8    7    8 1   
     9    7    9 1   
    10    8   29 1   
    11    8   30 1   
    12    9   32 1   
    13   10   12 1   
    14   11   12 1   
    15   12   13 1   
    16   13   19 1   
    17   14   15 1   
    18   14   35 1   
    19   15   36 1   
    20   16   17 1   
    21   16   37 1   
    22   17   19 1   
    23   18   22 1   
    24   19   20 1   
    25   21   22 1   
    26   21   25 1   
    27   21   38 1   
    28   21   39 1   
    29   22   23 1   
    30   22   40 1   
    31   23   24 1   
    32   23   41 1   
    33   23   42 1   
    34   24   25 1   
    35   24   43 1   
    36   24   44 1   
    37   25   45 1   
    38   25   46 1   
@<TRIPOS>SUBSTRUCTURE
     1 CR3         1 TEMP              0 ****  ****    0 ROOT
