@<TRIPOS>MOLECULE
CR3
   46    49     1     0     0
SMALL
bcc


@<TRIPOS>ATOM
      1 C1         -5.3390    0.2920   -0.1130 ca        1 CR3     -0.301900
      2 C2         -4.8430    1.6160   -0.1410 ca        1 CR3     -0.109000
      3 C3         -3.4850    1.8780   -0.1110 ca        1 CR3     -0.150000
      4 C4         -2.5950    0.7960   -0.0380 ca        1 CR3      0.053000
      5 C5         -3.0980   -0.5890   -0.0040 ca        1 CR3     -0.033000
      6 C6         -4.4600   -0.8110   -0.0460 ca        1 CR3     -0.096000
      7 C7         -6.7800    0.0590   -0.1560 ce        1 CR3      0.528400
      8 N1         -7.2630   -1.0330   -0.8120 nh        1 CR3     -0.506600
      9 N2         -7.6240    0.9350    0.4580 nh        1 CR3     -0.490700
     10 N3         -1.2240    0.7480    0.0150 na        1 CR3     -0.208600
     11 CN4        -1.9530   -1.4330    0.0740 cc        1 CR3     -0.330000
     12 C8         -0.7970   -0.6030    0.0850 cc        1 CR3      0.166900
     13 C1'         0.5700   -0.9780    0.1550 cd        1 CR3     -0.339200
     14 C2'         0.8910   -2.3610    0.2120 cd        1 CR3     -0.037000
     15 C3'         2.1800   -2.8080    0.2880 cc        1 CR3     -0.238000
     16 C4'         3.2520   -1.8750    0.3200 cc        1 CR3     -0.132000
     17 C5'         2.9930   -0.5350    0.2590 cd        1 CR3     -0.037100
     18 O5'         3.9740    0.4410    0.3500 os        1 CR3     -0.311900
     19 C6'         1.6290    0.0100    0.1640 c         1 CR3      0.590500
     20 O6'         1.4360    1.2520    0.0940 o         1 CR3     -0.690100
     21 C1B         5.7930    1.4490   -0.8080 c3        1 CR3     -0.095900
     22 C2B         5.2140    0.1240   -0.2950 c3        1 CR3      0.139100
     23 C3B         6.2200   -0.4500    0.7110 c3        1 CR3     -0.095900
     24 C4B         7.4420    0.4550    0.7090 c3        1 CR3     -0.076400
     25 C5B         7.2550    1.4840   -0.3970 c3        1 CR3     -0.076400
     26 HC2        -5.5340    2.4670   -0.2330 ha        1 CR3      0.115000
     27 HC3        -3.1120    2.9120   -0.1490 ha        1 CR3      0.148000
     28 HC6        -4.8350   -1.8430    0.0170 ha        1 CR3      0.124000
     29 HH11       -8.2220   -1.2860   -0.8080 hn        1 CR3      0.309450
     30 HH12       -6.6120   -1.6370   -1.2630 hn        1 CR3      0.309450
     31 HH21       -7.2270    1.7050    0.9490 hn        1 CR3      0.309450
     32 HH22       -8.6110    0.8620    0.4050 hn        1 CR3      0.309450
     33 HN3        -0.5870    1.5190    0.0150 hn        1 CR3      0.350700
     34 HCN4       -1.9580   -2.5150    0.1200 ha        1 CR3      0.157000
     35 HC2'        0.0650   -3.0900    0.1920 ha        1 CR3      0.105000
     36 HC3'        2.4110   -3.8790    0.3290 ha        1 CR3      0.115000
     37 HC4'        4.2840   -2.2490    0.3900 ha        1 CR3      0.118000
     38 H1A         5.6790    1.5190   -1.9170 hc        1 CR3      0.053700
     39 H1B         5.2270    2.3020   -0.3520 hc        1 CR3      0.053700
     40 H2A         5.0410   -0.5940   -1.1400 h1        1 CR3      0.047700
     41 H3A         5.7560   -0.4930    1.7280 hc        1 CR3      0.053700
     42 H3B         6.5000   -1.4930    0.4190 hc        1 CR3      0.053700
     43 H4A         8.3770   -0.1370    0.5440 hc        1 CR3      0.035700
     44 H4B         7.5430    0.9670    1.6990 hc        1 CR3      0.035700
     45 H5A         7.9090    1.2350   -1.2710 hc        1 CR3      0.035700
     46 H5B         7.5440    2.5050   -0.0450 hc        1 CR3      0.035700
@<TRIPOS>BOND
     1    1    2 ar  
     2    1    6 ar  
     3    1    7 1   
     4    2    3 ar  
     5    2   26 1   
     6    3    4 ar  
     7    3   27 1   
     8    4    5 ar  
     9    4   10 2   
    10    5    6 ar  
    11    5   11 2   
    12    6   28 1   
    13    7    8 2   
    14    7    9 1   
    15    8   29 1   
    16    8   30 1   
    17    9   31 1   
    18    9   32 1   
    19   10   12 1   
    20   10   33 1   
    21   11   12 1   
    22   11   34 1   
    23   12   13 2   
    24   13   14 1   
    25   13   19 1   
    26   14   15 2   
    27   14   35 1   
    28   15   16 1   
    29   15   36 1   
    30   16   17 2   
    31   16   37 1   
    32   17   18 1   
    33   17   19 1   
    34   18   22 1   
    35   19   20 2   
    36   21   22 1   
    37   21   25 1   
    38   21   38 1   
    39   21   39 1   
    40   22   23 1   
    41   22   40 1   
    42   23   24 1   
    43   23   41 1   
    44   23   42 1   
    45   24   25 1   
    46   24   43 1   
    47   24   44 1   
    48   25   45 1   
    49   25   46 1   
@<TRIPOS>SUBSTRUCTURE
     1 CR3         1 TEMP              0 ****  ****    0 ROOT
