@<TRIPOS>MOLECULE
CR4
   31    33     1     0     0
SMALL
bcc


@<TRIPOS>ATOM
      1 C1          3.3580    0.0220    0.0010 ca        1 CR4     -0.297900
      2 C2          3.1390   -1.3720    0.0470 ca        1 CR4     -0.100000
      3 C3          1.8590   -1.9030    0.0790 ca        1 CR4     -0.153000
      4 C4          0.7760   -1.0190    0.0760 ca        1 CR4      0.036000
      5 C5          0.9860    0.4470    0.0320 ca        1 CR4     -0.021000
      6 C6          2.2830    0.9380   -0.0060 ca        1 CR4     -0.101000
      7 C7          4.7260    0.5380   -0.0490 ce        1 CR4      0.528400
      8 N1          4.9930    1.6520   -0.7850 nh        1 CR4     -0.503100
      9 N2          5.7120   -0.1040    0.6370 nh        1 CR4     -0.487200
     10 N3         -0.5840   -1.1980    0.1100 na        1 CR4     -0.244600
     11 N4         -0.2410    1.0980    0.0400 nc        1 CR4     -0.380600
     12 C8         -1.1970    0.1010    0.0850 cc        1 CR4      0.315500
     13 C1'        -2.6110    0.2660    0.1070 cd        1 CR4     -0.331200
     14 C2'        -3.1470    1.5830    0.0850 cd        1 CR4     -0.007000
     15 C3'        -4.4950    1.8150    0.1030 cc        1 CR4     -0.267000
     16 C4'        -5.3980    0.7160    0.1440 cc        1 CR4     -0.053000
     17 C5'        -4.9380   -0.5620    0.1670 cd        1 CR4     -0.282200
     18 C6'        -3.5130   -0.8690    0.1500 c         1 CR4      0.581500
     19 O6'        -3.1310   -2.0740    0.1720 o         1 CR4     -0.719100
     20 HC2         3.9890   -2.0710    0.0160 ha        1 CR4      0.117000
     21 HC3         1.7030   -2.9910    0.1010 ha        1 CR4      0.150000
     22 HC6         2.4460    2.0250    0.0010 ha        1 CR4      0.138000
     23 HH11        4.2410    2.0800   -1.2800 hn        1 CR4      0.310950
     24 HH12        5.8810    2.0940   -0.7930 hn        1 CR4      0.310950
     25 HH21        6.6650    0.1670    0.5940 hn        1 CR4      0.310950
     26 HH22        5.4650   -0.8980    1.1840 hn        1 CR4      0.310950
     27 HN3        -1.1050   -2.0500    0.1420 hn        1 CR4      0.358700
     28 HC2'       -2.4530    2.4390    0.0530 ha        1 CR4      0.125000
     29 HC3'       -4.8960    2.8350    0.0860 ha        1 CR4      0.115000
     30 HC4'       -6.4790    0.9260    0.1580 ha        1 CR4      0.108000
     31 HC5'       -5.6180   -1.4240    0.1990 ha        1 CR4      0.129000
@<TRIPOS>BOND
     1    1    2 ar  
     2    1    6 ar  
     3    1    7 1   
     4    2    3 ar  
     5    2   20 1   
     6    3    4 ar  
     7    3   21 1   
     8    4    5 ar  
     9    4   10 2   
    10    5    6 ar  
    11    5   11 2   
    12    6   22 1   
    13    7    8 2   
    14    7    9 1   
    15    8   23 1   
    16    8   24 1   
    17    9   25 1   
    18    9   26 1   
    19   10   12 1   
    20   10   27 1   
    21   11   12 1   
    22   12   13 2   
    23   13   14 1   
    24   13   18 1   
    25   14   15 2   
    26   14   28 1   
    27   15   16 1   
    28   15   29 1   
    29   16   17 2   
    30   16   30 1   
    31   17   18 1   
    32   17   31 1   
    33   18   19 2   
@<TRIPOS>SUBSTRUCTURE
     1 CR4         1 TEMP              0 ****  ****    0 ROOT
