@<TRIPOS>MOLECULE
CR4
   31    23     1     0     0
SMALL
bcc


@<TRIPOS>ATOM
      1 C1         -0.3830    0.0240   -3.0050 c1        1 CR4     -0.214000
      2 C2          1.0010    0.1050   -3.0120 c1        1 CR4     -0.140500
      3 C3          1.7010    0.1120   -1.8160 c1        1 CR4     -0.140500
      4 C4          1.0070    0.0360   -0.5940 c1        1 CR4      0.007500
      5 C5         -0.3550   -0.0450   -0.5870 c1        1 CR4      0.007500
      6 C6         -1.0660   -0.0510   -1.8020 c1        1 CR4     -0.101000
      7 C7         -1.1100    0.0030   -4.3290 c2        1 CR4      0.351000
      8 N1         -1.4680   -1.2350   -4.9230 n3        1 CR4     -0.346000
      9 N2         -1.4100    1.1270   -4.9290 n2        1 CR4     -0.352000
     10 N3          1.4330    0.0230    0.6940 n1        1 CR4     -0.231000
     11 N4         -0.7630   -0.1060    0.7050 n1        1 CR4     -0.231000
     12 C8          0.3400   -0.0640    1.4970 c2        1 CR4      0.202000
     13 C1'         0.3270   -0.0190    2.8840 c1        1 CR4     -0.312000
     14 C2'         0.3800    1.2020    3.5380 c1        1 CR4     -0.140500
     15 C3'         0.3200    1.2490    4.9220 c1        1 CR4     -0.140500
     16 C4'         0.2070    0.0760    5.6520 c1        1 CR4     -0.140500
     17 C5'         0.1550   -1.1440    4.9980 c1        1 CR4     -0.140500
     18 C6'         0.2150   -1.1930    3.6140 c1        1 CR4      0.304000
     19 O6'         0.2080   -2.4320    2.9530 o         1 CR4     -0.480000
     20 HC2         1.4820    0.1580   -3.8590 ha        1 CR4      0.124000
     21 HC3         2.6750    0.1690   -1.8220 ha        1 CR4      0.124000
     22 HC6        -2.0410   -0.1090   -1.7970 ha        1 CR4      0.138000
     23 HH11       -1.1700   -2.0200   -4.5590 hn        1 CR4      0.262500
     24 HH12       -2.0090   -1.2500   -5.6590 hn        1 CR4      0.262500
     25 HH21       -1.1790    1.9260   -4.5460 DU        1 CR4      0.291500
     26 HH22       -1.8510    1.1140   -5.7320 hn        1 CR4      0.246000
     27 HN3         2.3000    0.0660    0.9710 DU        1 CR4      0.291500
     28 HC2'        0.4590    2.0280    3.0240 ha        1 CR4      0.124000
     29 HC3'        0.3570    2.1090    5.3830 ha        1 CR4      0.124000
     30 HC4'        0.1650    0.1100    6.6260 ha        1 CR4      0.124000
     31 HC5'        0.0760   -1.9710    5.5120 ha        1 CR4      0.124000
@<TRIPOS>BOND
     1    1    6 1   
     2    1    7 1   
     3    2    3 1   
     4    2   20 1   
     5    3   21 1   
     6    4    5 1   
     7    6   22 1   
     8    7    8 1   
     9    7    9 1   
    10    8   23 1   
    11    8   24 1   
    12    9   26 1   
    13   10   12 1   
    14   11   12 1   
    15   12   13 1   
    16   13   18 1   
    17   14   15 1   
    18   14   28 1   
    19   15   29 1   
    20   16   17 1   
    21   16   30 1   
    22   17   31 1   
    23   18   19 1   
@<TRIPOS>SUBSTRUCTURE
     1 CR4         1 TEMP              0 ****  ****    0 ROOT
