@<TRIPOS>MOLECULE
CR5
   23    24     1     0     0
SMALL
bcc


@<TRIPOS>ATOM
      1 N          -1.4700    0.3290   -1.3430 n3        1 CR5     -0.912800
      2 CA1        -0.4670    0.4470   -0.3370 c3        1 CR5      0.196800
      3 C1         -0.7290    1.5560    0.7670 c3        1 CR5      0.462400
      4 N2         -1.9700    1.3310    1.5420 n         1 CR5     -0.609900
      5 N3          0.4260    1.5520    1.7460 n3        1 CR5     -0.695600
      6 C2         -0.1950    1.4170    3.1130 c3        1 CR5      0.459800
      7 O2          0.4150    0.4180    3.8740 oh        1 CR5     -0.549800
      8 CA2        -1.7210    1.1720    2.8950 c         1 CR5      0.683500
      9 CA3         1.2410    2.7600    1.8140 c3        1 CR5      0.054800
     10 C           0.9150    3.4320    3.1430 c         1 CR5      0.699600
     11 O3          1.2600    4.4800    3.6600 o         1 CR5     -0.528500
     12 O4         -0.8370    2.7680    0.0200 oh        1 CR5     -0.607800
     13 O5         -2.5310    0.8750    3.7740 o         1 CR5     -0.563500
     14 OXT         0.0310    2.6310    3.8610 os        1 CR5     -0.433900
     15 HN1        -1.5830    1.1770   -1.8610 hn        1 CR5      0.363800
     16 HN2A       -2.3500    0.0270   -0.9820 hn        1 CR5      0.363800
     17 HA11       -0.3470   -0.5380    0.1920 h1        1 CR5      0.084700
     18 HA12        0.5070    0.7210   -0.8330 h1        1 CR5      0.084700
     19 HN2        -2.7940    1.0180    1.0980 hn        1 CR5      0.343500
     20 HO2        -0.0500    0.4130    4.7270 ho        1 CR5      0.450000
     21 HA31        1.0820    3.4650    0.9540 h1        1 CR5      0.116700
     22 HA32        2.3210    2.4360    1.8240 h1        1 CR5      0.116700
     23 HO4        -1.2050    3.4730    0.5710 ho        1 CR5      0.422000
@<TRIPOS>BOND
     1    1    2 1   
     2    1   15 1   
     3    1   16 1   
     4    2    3 1   
     5    2   17 1   
     6    2   18 1   
     7    3    4 1   
     8    3    5 1   
     9    3   12 1   
    10    4    8 1   
    11    4   19 1   
    12    5    6 1   
    13    5    9 1   
    14    6    7 1   
    15    6    8 1   
    16    6   14 1   
    17    7   20 1   
    18    8   13 2   
    19    9   10 1   
    20    9   21 1   
    21    9   22 1   
    22   10   11 2   
    23   10   14 1   
    24   12   23 1   
@<TRIPOS>SUBSTRUCTURE
     1 CR5         1 TEMP              0 ****  ****    0 ROOT
