@<TRIPOS>MOLECULE
CR5
   23    22     1     0     0
SMALL
bcc


@<TRIPOS>ATOM
      1 N          -2.7100    0.1090   -1.4480 n3        1 CR5     -0.363000
      2 CA1        -1.2840    0.1090   -1.4480 c3        1 CR5     -0.057000
      3 C1         -0.7800    0.1090   -0.0220 c3        1 CR5      0.307000
      4 N2         -1.0150   -1.3250    0.6380 n         1 CR5     -0.385000
      5 N3          0.6350    0.1650   -0.0110 n3        1 CR5     -0.103000
      6 C2          1.2040   -0.9160    0.3300 c1        1 CR5      0.149000
      7 O2          2.4850   -1.2230   -0.1650 o         1 CR5     -0.158000
      8 CA2         0.3340   -1.9400    0.6850 c2        1 CR5      0.326000
      9 CA3         1.2960    1.4090    0.1830 c3        1 CR5     -0.205000
     10 C           2.1400    1.3410    1.4370 c2        1 CR5      0.361000
     11 O3          3.3960    1.3230    1.3490 o         1 CR5     -0.488500
     12 O4         -1.4880    1.2100    0.5230 oh        1 CR5     -0.308000
     13 O5          0.6220   -3.0630    1.0480 o         1 CR5     -0.284000
     14 OXT         1.5870    1.3050    2.5670 o         1 CR5     -0.488500
     15 HN1        -3.0140    0.8670   -1.8540 hn        1 CR5      0.173500
     16 HN2A       -3.0140   -0.6220   -1.9010 hn        1 CR5      0.173500
     17 HA11       -0.9590   -0.6880   -1.9080 h1        1 CR5      0.100000
     18 HA12       -0.9590    0.9060   -1.9080 h1        1 CR5      0.100000
     19 HN2        -1.8140   -1.7280    0.8150 hn        1 CR5      0.298000
     20 HO2         2.7340   -2.0220    0.1310 ho        1 CR5      0.285000
     21 HA31        0.6320    2.1190    0.2760 h1        1 CR5      0.133500
     22 HA32        1.8680    1.5960   -0.5850 h1        1 CR5      0.133500
     23 HO4        -1.8970    0.9590    1.2690 ho        1 CR5      0.300000
@<TRIPOS>BOND
     1    1    2 1   
     2    1   15 1   
     3    1   16 1   
     4    2    3 1   
     5    2   17 1   
     6    2   18 1   
     7    3    4 1   
     8    3    5 1   
     9    3   12 1   
    10    4    8 1   
    11    4   19 1   
    12    5    6 1   
    13    5    9 1   
    14    6    8 1   
    15    7   20 1   
    16    8   13 1   
    17    9   10 1   
    18    9   21 1   
    19    9   22 1   
    20   10   11 1   
    21   10   14 1   
    22   12   23 1   
@<TRIPOS>SUBSTRUCTURE
     1 CR5         1 TEMP              0 ****  ****    0 ROOT
