@<TRIPOS>MOLECULE
CR6
   34    34     1     0     0
SMALL
bcc


@<TRIPOS>ATOM
      1 N1         -2.2160    0.5300    1.4810 n         1 CR6     -0.640000
      2 C2          1.3550    0.6210    0.2960 c3        1 CR6      0.095100
      3 O2          2.0080    1.0490   -0.9960 oh        1 CR6     -0.595800
      4 C4          1.5060   -1.7470   -0.2330 c3        1 CR6      0.101100
      5 C5         -0.0390   -1.9160   -0.4400 c3        1 CR6      0.085100
      6 C6         -0.6300   -2.3170    0.6910 c3        1 CR6      0.100400
      7 C1         -0.0980    0.6450    0.1030 c3        1 CR6      0.220200
      8 C3          1.8940   -0.6490    0.6650 c3        1 CR6      0.124100
      9 O3          1.4210   -0.9840    2.0600 oh        1 CR6     -0.611800
     10 O4          2.1180   -1.5140   -1.5290 oh        1 CR6     -0.607800
     11 O5         -0.5160   -0.4520   -0.8410 os        1 CR6     -0.415600
     12 N2         -0.5660    1.9340   -0.3220 n         1 CR6     -0.550900
     13 O6         -0.7540   -3.7160    0.6830 oh        1 CR6     -0.593800
     14 C7         -1.0750    2.1110   -1.6640 c         1 CR6      0.671100
     15 O7         -1.1060    1.1600   -2.4380 o         1 CR6     -0.599100
     16 C8         -1.5900    3.4740   -2.1110 c3        1 CR6     -0.178100
     17 C9         -0.8120    0.5030    1.4320 c         1 CR6      0.646100
     18 O9         -0.1660    0.3830    2.4640 o         1 CR6     -0.652100
     19 H1N1       -2.6450    0.6390    2.2850 hn        1 CR6      0.334000
     20 H2N1       -2.7000    0.4030    0.7200 hn        1 CR6      0.334000
     21 H21         1.5870    1.2750    0.9960 h1        1 CR6      0.115700
     22 H1O2        2.5790    1.6960   -0.8350 ho        1 CR6      0.432000
     23 H41         1.8650   -2.5940    0.1350 h1        1 CR6      0.067700
     24 H51        -0.2190   -2.5410   -1.1590 h1        1 CR6      0.090700
     25 H61        -1.5230   -1.9100    0.7560 h1        1 CR6      0.070700
     26 H62        -0.0890   -2.0420    1.4570 h1        1 CR6      0.070700
     27 H31         2.8600   -0.5830    0.6740 h1        1 CR6      0.079700
     28 H1O3        2.1200   -1.1480    2.5780 ho        1 CR6      0.445000
     29 H1O4        2.5270   -2.2590   -1.8030 ho        1 CR6      0.417000
     30 H1N2       -0.5910    2.6220    0.2650 hn        1 CR6      0.324500
     31 H1O6       -1.4040   -3.9610    1.2420 ho        1 CR6      0.406000
     32 H81        -1.7780    3.4510   -3.0580 hc        1 CR6      0.070700
     33 H82        -2.4080    3.6900   -1.6210 hc        1 CR6      0.070700
     34 H83        -0.9170    4.1490   -1.9320 hc        1 CR6      0.070700
@<TRIPOS>BOND
     1    1   17 1   
     2    1   19 1   
     3    1   20 1   
     4    2    3 1   
     5    2    7 1   
     6    2    8 1   
     7    2   21 1   
     8    3   22 1   
     9    4    5 1   
    10    4    8 1   
    11    4   10 1   
    12    4   23 1   
    13    5    6 1   
    14    5   11 1   
    15    5   24 1   
    16    6   13 1   
    17    6   25 1   
    18    6   26 1   
    19    7   11 1   
    20    7   12 1   
    21    7   17 1   
    22    8    9 1   
    23    8   27 1   
    24    9   28 1   
    25   10   29 1   
    26   12   14 1   
    27   12   30 1   
    28   13   31 1   
    29   14   15 2   
    30   14   16 1   
    31   16   32 1   
    32   16   33 1   
    33   16   34 1   
    34   17   18 2   
@<TRIPOS>SUBSTRUCTURE
     1 CR6         1 TEMP              0 ****  ****    0 ROOT
