@<TRIPOS>MOLECULE
CR6
   34    34     1     0     0
SMALL
bcc


@<TRIPOS>ATOM
      1 N1         -1.2820    2.5960    0.1920 n         1 CR6     -0.643000
      2 C2          1.3670   -0.1570    0.4320 c3        1 CR6      0.127100
      3 O2          2.3020    0.5010    1.2480 oh        1 CR6     -0.583800
      4 C4          0.6450   -0.8640   -1.8520 c3        1 CR6      0.077100
      5 C5         -0.7180   -0.2220   -1.5730 c3        1 CR6      0.071100
      6 C6         -1.8570   -1.0230   -2.2180 c3        1 CR6      0.136400
      7 C1         -0.0620    0.4560    0.6450 c3        1 CR6      0.222200
      8 C3          1.7360   -0.1280   -1.0550 c3        1 CR6      0.114100
      9 O3          2.9780   -0.7930   -1.1890 oh        1 CR6     -0.581800
     10 O4          1.0020   -0.7200   -3.2180 oh        1 CR6     -0.596800
     11 O5         -1.0230   -0.2280   -0.1770 os        1 CR6     -0.406600
     12 N2         -0.5240    0.3110    2.0150 n         1 CR6     -0.556900
     13 C7         -0.7780   -0.9400    2.5820 c         1 CR6      0.661100
     14 O7         -0.8160   -1.9780    1.8990 o         1 CR6     -0.578100
     15 C8         -1.0560   -0.9550    4.0660 c3        1 CR6     -0.176100
     16 C9         -0.0690    1.9800    0.2810 c         1 CR6      0.624100
     17 O9          0.9990    2.6040    0.1130 o         1 CR6     -0.622100
     18 H1N1       -1.3360    3.5490   -0.0730 hn        1 CR6      0.324500
     19 H2N1       -2.1140    2.0640    0.2560 hn        1 CR6      0.324500
     20 H21         1.3530   -1.2260    0.8000 h1        1 CR6      0.117700
     21 H1O2        2.5640    1.3240    0.8060 ho        1 CR6      0.433000
     22 H41         0.6320   -1.9510   -1.5620 h1        1 CR6      0.073700
     23 H51        -0.7260    0.8370   -1.9540 h1        1 CR6      0.066700
     24 H61        -1.7730   -0.9550   -3.3350 h1        1 CR6      0.058200
     25 H62        -1.8080   -2.0940   -1.8850 h1        1 CR6      0.058200
     26 H31         1.8300    0.9340   -1.4200 h1        1 CR6      0.072700
     27 H1O3        3.1800   -0.7980   -2.1350 ho        1 CR6      0.419000
     28 H1O4        0.4280   -1.3100   -3.7220 ho        1 CR6      0.410000
     29 H1N2       -0.1990    1.0290    2.6240 hn        1 CR6      0.320500
     30 H1O6       -3.2310   -0.5520   -0.9500 ho        1 CR6      0.418000
     31 H81        -1.3190   -1.9980    4.3690 hc        1 CR6      0.069700
     32 H82        -0.1510   -0.6290    4.6330 hc        1 CR6      0.069700
     33 H83        -1.9090   -0.2790    4.3150 hc        1 CR6      0.069700
     34 O6         -3.1110   -0.4610   -1.9050 oh        1 CR6     -0.594800
@<TRIPOS>BOND
     1    1   16 1   
     2    1   18 1   
     3    1   19 1   
     4    2    3 1   
     5    2    7 1   
     6    2    8 1   
     7    2   20 1   
     8    3   21 1   
     9    4    5 1   
    10    4    8 1   
    11    4   10 1   
    12    4   22 1   
    13    5    6 1   
    14    5   11 1   
    15    5   23 1   
    16    6   24 1   
    17    6   25 1   
    18    6   34 1   
    19    7   11 1   
    20    7   12 1   
    21    7   16 1   
    22    8    9 1   
    23    8   26 1   
    24    9   27 1   
    25   10   28 1   
    26   12   13 1   
    27   12   29 1   
    28   13   14 2   
    29   13   15 1   
    30   15   31 1   
    31   15   32 1   
    32   15   33 1   
    33   16   17 2   
    34   30   34 1   
@<TRIPOS>SUBSTRUCTURE
     1 CR6         1 TEMP              0 ****  ****    0 ROOT
