@<TRIPOS>MOLECULE
CR7
   46    47     1     0     0
SMALL
bcc


@<TRIPOS>ATOM
      1 N1         -1.9300    1.2280    1.9150 n3        1 CR7     -0.931800
      2 CA1        -0.5090    1.1230    2.1580 c3        1 CR7      0.146200
      3 CB1        -0.1940    0.2830    3.4070 c3        1 CR7     -0.057400
      4 CG1        -0.7990    0.9010    4.6500 c3        1 CR7     -0.078400
      5 C1          0.2800    0.5800    0.9610 cc        1 CR7      0.467900
      6 N2          1.1490   -0.4360    1.0110 nd        1 CR7     -0.657300
      7 N3          0.1080    1.1240   -0.3430 n         1 CR7     -0.386300
      8 C2          1.0140    0.4440   -1.1970 c         1 CR7      0.660700
      9 O2          1.1800    0.6320   -2.4070 o         1 CR7     -0.607500
     10 CA2         1.6750   -0.6020   -0.3010 cd        1 CR7      0.036400
     11 CA3        -0.5580    2.3440   -0.7030 c3        1 CR7     -0.048000
     12 C3         -0.4830    3.5060    0.3330 c         1 CR7      0.896600
     13 O3          0.6420    3.8730    0.7560 o         1 CR7     -0.818300
     14 CB2         2.5680   -1.4880   -0.7800 ce        1 CR7     -0.065200
     15 CG2         3.2510   -2.5390   -0.0540 ca        1 CR7     -0.071800
     16 CD1         3.5000   -2.4750    1.3240 ca        1 CR7     -0.074500
     17 CD2         3.7010   -3.6630   -0.7740 ca        1 CR7     -0.074500
     18 CE1         4.1700   -3.5100    1.9730 ca        1 CR7     -0.195000
     19 CE2         4.3670   -4.7050   -0.1420 ca        1 CR7     -0.195000
     20 CZ          4.5990   -4.6230    1.2400 ca        1 CR7      0.113100
     21 OH          5.2650   -5.6830    1.8190 oh        1 CR7     -0.508100
     22 CD         -0.4050    0.1170    5.8850 c3        1 CR7     -0.082400
     23 CE         -1.0240    0.7510    7.1290 c3        1 CR7      0.151800
     24 NZ         -0.7410    0.0350    8.3520 n3        1 CR7     -0.915800
     25 O1         -1.5940    4.0010    0.6730 o         1 CR7     -0.818300
     26 HN11       -2.1600    2.1100    1.4860 hn        1 CR7      0.376800
     27 HN12       -2.2650    0.4730    1.3560 hn        1 CR7      0.376800
     28 HA1        -0.0990    2.1740    2.3330 h1        1 CR7      0.128700
     29 HB11       -0.5730   -0.7630    3.2780 hc        1 CR7      0.045200
     30 HB12        0.9200    0.2320    3.5310 hc        1 CR7      0.045200
     31 HG11       -0.4510    1.9630    4.7470 hc        1 CR7      0.053700
     32 HG12       -1.9170    0.9260    4.5610 hc        1 CR7      0.053700
     33 HA31       -1.6420    2.1020   -0.8940 h1        1 CR7      0.049700
     34 HA32       -0.1020    2.7180   -1.6620 h1        1 CR7      0.049700
     35 HB2         2.8040   -1.4260   -1.8600 ha        1 CR7      0.139000
     36 HD1         3.1720   -1.6000    1.9080 ha        1 CR7      0.150000
     37 HD2         3.5160   -3.7190   -1.8580 ha        1 CR7      0.150000
     38 HE1         4.3590   -3.4510    3.0540 ha        1 CR7      0.134500
     39 HE2         4.7120   -5.5840   -0.7010 ha        1 CR7      0.134500
     40 HOH         5.3420   -5.4970    2.7660 ho        1 CR7      0.413000
     41 HD1A       -0.7510   -0.9450    5.7800 hc        1 CR7      0.039200
     42 HD2A        0.7110    0.0970    5.9850 hc        1 CR7      0.039200
     43 HE1A       -2.1360    0.8600    6.9480 h1        1 CR7      0.027700
     44 HE2A       -0.6090    1.7920    7.2500 h1        1 CR7      0.027700
     45 HNZ1       -0.8660   -0.9510    8.2260 hn        1 CR7      0.338800
     46 HNZ2       -1.3510    0.3460    9.0820 hn        1 CR7      0.338800
@<TRIPOS>BOND
     1    1    2 1   
     2    1   26 1   
     3    1   27 1   
     4    2    3 1   
     5    2    5 1   
     6    2   28 1   
     7    3    4 1   
     8    3   29 1   
     9    3   30 1   
    10    4   22 1   
    11    4   31 1   
    12    4   32 1   
    13    5    6 2   
    14    5    7 1   
    15    6   10 1   
    16    7    8 1   
    17    7   11 1   
    18    8    9 2   
    19    8   10 1   
    20   10   14 2   
    21   11   12 1   
    22   11   33 1   
    23   11   34 1   
    24   12   13 1   
    25   12   25 1   
    26   14   15 1   
    27   14   35 1   
    28   15   16 ar  
    29   15   17 ar  
    30   16   18 ar  
    31   16   36 1   
    32   17   19 ar  
    33   17   37 1   
    34   18   20 ar  
    35   18   38 1   
    36   19   20 ar  
    37   19   39 1   
    38   20   21 1   
    39   21   40 1   
    40   22   23 1   
    41   22   41 1   
    42   22   42 1   
    43   23   24 1   
    44   23   43 1   
    45   23   44 1   
    46   24   45 1   
    47   24   46 1   
@<TRIPOS>SUBSTRUCTURE
     1 CR7         1 TEMP              0 ****  ****    0 ROOT
