@<TRIPOS>MOLECULE
CR8
   41    32     1     0     0
SMALL
bcc


@<TRIPOS>ATOM
      1 C1         -4.9260   -1.1680   -3.5850 c1        1 CR8      0.289000
      2 C2         -3.4140   -1.1300   -3.5780 c1        1 CR8     -0.173500
      3 C4         -5.7040   -0.5090   -2.4670 c2        1 CR8     -0.334000
      4 C5         -4.9690    0.1670   -1.3300 c1        1 CR8     -0.029000
      5 C6         -2.6790   -0.4540   -2.4420 c1        1 CR8     -0.173500
      6 C7         -3.4570    0.2050   -1.3240 c1        1 CR8     -0.273000
      7 C8         -2.8020    0.8260   -0.3220 c1        1 CR8      0.095000
      8 C9         -1.2890    0.8640   -0.3160 c1        1 CR8      0.034500
      9 C10         4.4700   -3.1410    2.9060 c1        1 CR8     -0.146000
     10 O3         -5.5160   -1.7120   -4.4970 o         1 CR8     -0.488000
     11 N11         4.5790   -3.2010    1.5560 n2        1 CR8     -0.176000
     12 C12        -0.4400    1.8120   -0.8200 c1        1 CR8      0.034500
     13 N13         0.7460    1.6610   -0.2250 n2        1 CR8     -0.240000
     14 C14         0.6490    0.6280    0.6470 c1        1 CR8     -0.010000
     15 N15        -0.6150    0.1420    0.5830 n2        1 CR8     -0.240000
     16 C20         1.4670   -1.3220    1.9190 c3        1 CR8     -0.086000
     17 C21         2.7690   -2.0790    2.0570 c2        1 CR8     -0.061000
     18 N22         3.3470   -2.4440    3.2050 n2        1 CR8     -0.157000
     19 C23         3.5380   -2.5510    1.0280 c1        1 CR8     -0.231000
     20 O25        -0.7720    2.8010   -1.7610 os        1 CR8     -0.391000
     21 N           1.8280    0.9090    2.7140 n3        1 CR8     -0.363000
     22 C16         1.7550    0.1110    1.5380 c2        1 CR8      0.017000
     23 C           1.5060    3.7840   -1.0390 c1        1 CR8      0.313000
     24 C17         1.9090    2.4410   -0.4700 c1        1 CR8     -0.078000
     25 OXT         1.1290    3.8720   -2.2370 o         1 CR8     -0.581000
     26 O19         1.5570    4.8140   -0.3170 o         1 CR8     -0.581000
     27 H2         -2.9120   -1.5560   -4.2990 ha        1 CR8      0.129000
     28 H4         -6.6800   -0.5340   -2.4710 ha        1 CR8      0.100000
     29 H5         -5.4710    0.5650   -0.5930 ha        1 CR8      0.081000
     30 H6         -1.7030   -0.4290   -2.4380 ha        1 CR8      0.129000
     31 H8         -3.3040    1.2510    0.3990 ha        1 CR8      0.099000
     32 H10         5.0920   -3.5310    3.5500 DU        1 CR8      0.210333
     33 H201        0.9850   -1.3430    2.7700 hc        1 CR8      0.104000
     34 H202        0.9190   -1.7400    1.2240 hc        1 CR8      0.104000
     35 H22         3.0410   -2.2540    4.0430 DU        1 CR8      0.210333
     36 H23         3.3460   -2.4550    0.0760 DU        1 CR8      0.210333
     37 H1          2.4150    1.5990    2.5800 hn        1 CR8      0.170000
     38 H2A         2.1170    0.3940    3.4150 hn        1 CR8      0.170000
     39 H16         2.6070    0.1570    1.0600 h4        1 CR8      0.153000
     40 H171        2.4860    1.9750   -1.1100 ha        1 CR8      0.079500
     41 H172        2.3960    2.5750    0.3700 ha        1 CR8      0.079500
@<TRIPOS>BOND
     1    1    3 1   
     2    1   10 1   
     3    2    5 1   
     4    2   27 1   
     5    3    4 1   
     6    3   28 1   
     7    4   29 1   
     8    5   30 1   
     9    6    7 1   
    10    7   31 1   
    11    8   12 1   
    12    8   15 1   
    13    9   11 1   
    14    9   18 1   
    15   11   19 1   
    16   12   13 1   
    17   13   14 1   
    18   14   15 1   
    19   16   17 1   
    20   16   22 1   
    21   16   33 1   
    22   16   34 1   
    23   17   18 1   
    24   17   19 1   
    25   21   22 1   
    26   21   37 1   
    27   21   38 1   
    28   22   39 1   
    29   23   25 1   
    30   23   26 1   
    31   24   40 1   
    32   24   41 1   
@<TRIPOS>SUBSTRUCTURE
     1 CR8         1 TEMP              0 ****  ****    0 ROOT
