@<TRIPOS>MOLECULE
CR8
   41    43     1     0     0
SMALL
bcc


@<TRIPOS>ATOM
      1 C1          2.9740   -2.6110   -1.0960 ca        1 CR8      0.568700
      2 C2          1.7660   -2.1210   -0.4650 ca        1 CR8     -0.337500
      3 C4          3.6040   -1.6900   -2.0240 ca        1 CR8     -0.337500
      4 C5          3.0800   -0.4540   -2.2690 ca        1 CR8     -0.017500
      5 C6          1.2640   -0.8760   -0.7270 ca        1 CR8     -0.017500
      6 C7          1.8950    0.0150   -1.6330 ca        1 CR8     -0.279800
      7 C8          1.4260    1.3110   -1.9550 ce        1 CR8      0.089800
      8 C9          0.3980    2.0540   -1.4550 cd        1 CR8     -0.125600
      9 C10        -0.0910    0.5080    3.6910 cc        1 CR8      0.355400
     10 O3          3.4470   -3.7570   -0.8630 o         1 CR8     -0.767700
     11 N11        -1.0610    0.7260    4.6130 nd        1 CR8     -0.705000
     12 C12         0.0620    3.4090   -2.0060 c         1 CR8      0.668700
     13 N13        -1.0550    3.8540   -1.2440 n         1 CR8     -0.390300
     14 C14        -1.3330    2.8310   -0.2920 cc        1 CR8      0.399900
     15 N15        -0.5180    1.7790   -0.4040 nd        1 CR8     -0.641300
     16 C20        -2.7500    1.5660    1.3840 c3        1 CR8      0.003900
     17 C21        -1.8580    1.2110    2.5060 cc        1 CR8     -0.177900
     18 N22        -0.5360    0.7850    2.3990 na        1 CR8     -0.273900
     19 C23        -2.1640    1.1640    3.8900 cd        1 CR8      0.251200
     20 O25         0.5880    4.0320   -2.9460 o         1 CR8     -0.678500
     21 N          -3.6570    3.5590    0.2820 n3        1 CR8     -0.922800
     22 C16        -2.4320    2.9460    0.7610 c3        1 CR8      0.155200
     23 C          -1.8600    6.1250   -0.2940 c         1 CR8      0.901600
     24 C17        -1.6810    5.1220   -1.4650 c3        1 CR8     -0.028000
     25 OXT        -2.1400    7.3060   -0.6470 o         1 CR8     -0.839300
     26 O19        -1.7790    5.7490    0.9080 o         1 CR8     -0.839300
     27 H2          1.2600   -2.7960    0.2360 ha        1 CR8      0.104500
     28 H4          4.5210   -2.0280   -2.5220 ha        1 CR8      0.104500
     29 H5          3.5850    0.2190   -2.9820 ha        1 CR8      0.101500
     30 H6          0.3330   -0.5580   -0.2330 ha        1 CR8      0.101500
     31 H8          1.9940    1.8260   -2.7620 ha        1 CR8      0.112000
     32 H10         0.9240    0.1570    3.8980 h5        1 CR8      0.048100
     33 H201       -3.7960    1.5870    1.7980 hc        1 CR8      0.056200
     34 H202       -2.7210    0.7680    0.5950 hc        1 CR8      0.056200
     35 H22        -0.0080    0.7310    1.5590 hn        1 CR8      0.342700
     36 H23        -3.1000    1.4330    4.3720 h4        1 CR8      0.022100
     37 H1         -3.8250    3.3240   -0.6760 hn        1 CR8      0.363300
     38 H2A        -3.5850    4.5590    0.3680 hn        1 CR8      0.363300
     39 H16        -2.0020    3.6230    1.5690 h1        1 CR8      0.129700
     40 H171       -2.7050    4.9470   -1.9070 h1        1 CR8      0.040700
     41 H172       -1.0640    5.6560   -2.2460 h1        1 CR8      0.040700
@<TRIPOS>BOND
     1    1    2 ar  
     2    1    3 ar  
     3    1   10 1   
     4    2    5 ar  
     5    2   27 1   
     6    3    4 ar  
     7    3   28 1   
     8    4    6 ar  
     9    4   29 1   
    10    5    6 ar  
    11    5   30 1   
    12    6    7 1   
    13    7    8 2   
    14    7   31 1   
    15    8   12 1   
    16    8   15 1   
    17    9   11 2   
    18    9   18 1   
    19    9   32 1   
    20   11   19 1   
    21   12   13 1   
    22   12   20 2   
    23   13   14 1   
    24   13   24 1   
    25   14   15 2   
    26   14   22 1   
    27   16   17 1   
    28   16   22 1   
    29   16   33 1   
    30   16   34 1   
    31   17   18 1   
    32   17   19 2   
    33   18   35 1   
    34   19   36 1   
    35   21   22 1   
    36   21   37 1   
    37   21   38 1   
    38   22   39 1   
    39   23   24 1   
    40   23   25 1   
    41   23   26 1   
    42   24   40 1   
    43   24   41 1   
@<TRIPOS>SUBSTRUCTURE
     1 CR8         1 TEMP              0 ****  ****    0 ROOT
