@<TRIPOS>MOLECULE
CR9
   51    54     1     0     0
SMALL
bcc


@<TRIPOS>ATOM
      1 C1         -5.1650   -0.7300   -0.0610 ca        1 CR9     -0.307900
      2 C2         -5.4340    0.5660   -0.5750 ca        1 CR9      0.129900
      3 F2         -6.6910    0.8970   -0.9740 f         1 CR9     -0.159900
      4 C3         -4.4200    1.5270   -0.7240 ca        1 CR9     -0.184000
      5 C4         -3.1320    1.1740   -0.3380 ca        1 CR9      0.037000
      6 C5         -2.8290   -0.1640    0.2180 ca        1 CR9     -0.007000
      7 C6         -3.8610   -1.0850    0.3450 ca        1 CR9     -0.111000
      8 C7         -6.2190   -1.7460    0.0540 ce        1 CR9      0.534400
      9 N1         -7.4640   -1.3920    0.4690 nh        1 CR9     -0.491600
     10 N2         -5.9150   -3.0380   -0.2430 nh        1 CR9     -0.475700
     11 N3         -1.9320    1.8480   -0.3420 na        1 CR9     -0.282600
     12 N4         -1.4850   -0.2570    0.5360 nc        1 CR9     -0.319600
     13 C8         -0.9220    0.9550    0.1860 cc        1 CR9      0.323500
     14 C1'         0.4320    1.3540    0.3000 cd        1 CR9     -0.335200
     15 C2'         0.7880    2.7330    0.2720 cd        1 CR9     -0.056000
     16 C3'         2.0730    3.1590    0.4360 cc        1 CR9     -0.221000
     17 C4'         3.1150    2.2140    0.6690 cc        1 CR9     -0.133000
     18 C5'         2.8280    0.8830    0.6930 cd        1 CR9     -0.026100
     19 C6'         1.4710    0.3420    0.4470 c         1 CR9      0.597500
     20 O6'         1.2920   -0.8850    0.3280 o         1 CR9     -0.596100
     21 O5'         3.7660   -0.0800    1.0320 os        1 CR9     -0.321900
     22 C1B         5.2630   -1.4170   -0.2710 c3        1 CR9     -0.069700
     23 C2B         6.6380   -1.4650   -0.9190 c3        1 CR9     -0.075400
     24 C3B         7.7280   -1.0500    0.0460 c3        1 CR9     -0.077400
     25 C4B         7.4620    0.3320    0.6070 c3        1 CR9     -0.074400
     26 C5B         6.1010    0.4030    1.2640 c3        1 CR9     -0.096400
     27 C6B         4.9990   -0.0130    0.2920 c3        1 CR9      0.145100
     28 C1A         4.1890   -1.8060   -1.2610 c3        1 CR9     -0.102100
     29 HC3        -4.6600    2.5150   -1.1380 ha        1 CR9      0.158000
     30 HC6        -3.6450   -2.0650    0.7960 ha        1 CR9      0.149000
     31 HH11       -7.6510   -0.4230    0.6210 hn        1 CR9      0.314700
     32 HH12       -8.2250   -2.0290    0.4950 hn        1 CR9      0.314700
     33 HH21       -6.5520   -3.7880   -0.1100 hn        1 CR9      0.314700
     34 HH22       -4.9800   -3.2500   -0.5230 hn        1 CR9      0.314700
     35 HN3        -1.7740    2.7640   -0.6690 hn        1 CR9      0.309700
     36 HC2'        0.0050    3.4960    0.1380 ha        1 CR9      0.086000
     37 HC3'        2.3280    4.2260    0.4140 ha        1 CR9      0.116000
     38 HC4'        4.1390    2.5800    0.8290 ha        1 CR9      0.121000
     39 H1B         5.2370   -2.1400    0.5910 hc        1 CR9      0.061700
     40 H2A         6.8350   -2.5060   -1.2840 hc        1 CR9      0.036200
     41 H2B         6.6520   -0.7870   -1.8140 hc        1 CR9      0.036200
     42 H3A         7.7840   -1.7900    0.8880 hc        1 CR9      0.035700
     43 H3B         8.7190   -1.0590   -0.4780 hc        1 CR9      0.035700
     44 H4A         8.2530    0.5930    1.3570 hc        1 CR9      0.035200
     45 H4B         7.5210    1.0880   -0.2200 hc        1 CR9      0.035200
     46 H5A         6.0690   -0.2710    2.1590 hc        1 CR9      0.049200
     47 H5B         5.9020    1.4460    1.6230 hc        1 CR9      0.049200
     48 H6B         4.9240    0.7270   -0.5500 h1        1 CR9      0.048700
     49 H1AA        4.3290   -2.8640   -1.5870 hc        1 CR9      0.044033
     50 H1AB        3.1800   -1.7010   -0.7820 hc        1 CR9      0.044033
     51 H1AC        4.2250   -1.1500   -2.1640 hc        1 CR9      0.044033
@<TRIPOS>BOND
     1    1    2 ar  
     2    1    7 ar  
     3    1    8 1   
     4    2    3 1   
     5    2    4 ar  
     6    4    5 ar  
     7    4   29 1   
     8    5    6 ar  
     9    5   11 2   
    10    6    7 ar  
    11    6   12 2   
    12    7   30 1   
    13    8    9 2   
    14    8   10 1   
    15    9   31 1   
    16    9   32 1   
    17   10   33 1   
    18   10   34 1   
    19   11   13 1   
    20   11   35 1   
    21   12   13 1   
    22   13   14 2   
    23   14   15 1   
    24   14   19 1   
    25   15   16 2   
    26   15   36 1   
    27   16   17 1   
    28   16   37 1   
    29   17   18 2   
    30   17   38 1   
    31   18   19 1   
    32   18   21 1   
    33   19   20 2   
    34   21   27 1   
    35   22   23 1   
    36   22   27 1   
    37   22   28 1   
    38   22   39 1   
    39   23   24 1   
    40   23   40 1   
    41   23   41 1   
    42   24   25 1   
    43   24   42 1   
    44   24   43 1   
    45   25   26 1   
    46   25   44 1   
    47   25   45 1   
    48   26   27 1   
    49   26   46 1   
    50   26   47 1   
    51   27   48 1   
    52   28   49 1   
    53   28   50 1   
    54   28   51 1   
@<TRIPOS>SUBSTRUCTURE
     1 CR9         1 TEMP              0 ****  ****    0 ROOT
