@<TRIPOS>MOLECULE
CR9
   51    44     1     0     0
SMALL
bcc


@<TRIPOS>ATOM
      1 C1          0.6490    0.8790   -6.1350 c1        1 CR9     -0.239000
      2 C2          1.8430    0.1790   -6.1440 c1        1 CR9      0.110000
      3 F2          2.5390   -0.1590   -7.2390 f         1 CR9     -0.123000
      4 C3          2.4520   -0.1710   -4.9500 c1        1 CR9     -0.183000
      5 C4          1.8590    0.1840   -3.7300 c1        1 CR9      0.015000
      6 C5          0.6800    0.8750   -3.7190 c1        1 CR9      0.015000
      7 C6          0.0630    1.2300   -4.9320 c1        1 CR9     -0.100000
      8 C7          0.1630    1.2350   -7.5130 c2        1 CR9      0.357000
      9 N1          0.5880    2.4410   -8.1250 n3        1 CR9     -0.342000
     10 N2         -0.6670    0.4130   -8.1600 n2        1 CR9     -0.336000
     11 N3          2.2300   -0.0250   -2.4430 n1        1 CR9     -0.230000
     12 N4          0.3320    1.0870   -2.4300 n1        1 CR9     -0.230000
     13 C8          1.2890    0.5310   -1.6390 c2        1 CR9      0.206000
     14 C1'         1.3320    0.4620   -0.2760 c1        1 CR9     -0.308000
     15 C2'         1.9060    1.4880    0.4420 c1        1 CR9     -0.133000
     16 C3'         1.8140    1.5060    1.8290 c1        1 CR9     -0.133000
     17 C4'         1.1410    0.4910    2.4970 c1        1 CR9     -0.069000
     18 C5'         0.5640   -0.5380    1.7910 c1        1 CR9     -0.088000
     19 C6'         0.6540   -0.5610    0.3930 c1        1 CR9      0.305000
     20 O6'        -0.0910   -1.5150   -0.3450 o         1 CR9     -0.458000
     21 O5'        -0.3450   -1.4650    2.4810 os        1 CR9     -0.218000
     22 C1B        -0.9100   -1.8710    4.8520 c3        1 CR9     -0.113000
     23 C2B        -1.6400   -1.3150    6.1010 c3        1 CR9     -0.151000
     24 C3B        -2.9850   -0.7740    5.7730 c3        1 CR9     -0.156000
     25 C4B        -2.9440    0.2660    4.5780 c3        1 CR9     -0.153000
     26 C5B        -2.2070   -0.2880    3.3310 c3        1 CR9     -0.181000
     27 C6B        -0.8740   -0.8220    3.6510 c3        1 CR9      0.041000
     28 C1A         0.4070   -2.2060    5.2030 c3        1 CR9     -0.207000
     29 HC3         3.2950   -0.6650   -4.9580 ha        1 CR9      0.167000
     30 HC6        -0.7840    1.7280   -4.9250 ha        1 CR9      0.143000
     31 HH11        0.0760    2.8250   -8.7710 hn        1 CR9      0.264500
     32 HH12        1.2900    2.9140   -7.7600 hn        1 CR9      0.264500
     33 HH21       -0.9430   -0.3740   -7.7600 DU        1 CR9      0.295500
     34 HH22       -0.9650    0.6300   -9.0020 hn        1 CR9      0.247000
     35 HN3         2.9770   -0.4610   -2.1680 DU        1 CR9      0.295500
     36 HC2'        2.3820    2.2070   -0.0270 ha        1 CR9      0.124000
     37 HC3'        2.2180    2.2260    2.3290 ha        1 CR9      0.124000
     38 HC4'        1.0800    0.5070    3.4630 ha        1 CR9      0.125000
     39 H1B        -1.3840   -2.6980    4.5430 hc        1 CR9      0.099000
     40 H2A        -1.7400   -2.0330    6.7520 hc        1 CR9      0.074500
     41 H2B        -1.1070   -0.6160    6.4890 hc        1 CR9      0.074500
     42 H3A        -3.3410   -0.3430    6.5520 hc        1 CR9      0.073500
     43 H3B        -3.5520   -1.4880    5.5350 hc        1 CR9      0.073500
     44 H4A        -3.8360    0.4870    4.3330 hc        1 CR9      0.073000
     45 H4B        -2.4720    1.1060    4.8890 hc        1 CR9      0.073000
     46 H5A        -2.1050    0.4590    2.6540 hc        1 CR9      0.104500
     47 H5B        -2.7440   -1.0010    2.9350 hc        1 CR9      0.104500
     48 H6B        -0.2920   -0.0880    3.8920 h1        1 CR9      0.084000
     49 H1AA        0.7840   -2.7610    4.5210 hc        1 CR9      0.073000
     50 H1AB        0.4050   -2.6900    6.0550 hc        1 CR9      0.073000
     51 H1AC        0.9150   -1.4280    5.2880 hc        1 CR9      0.073000
@<TRIPOS>BOND
     1    1    7 1   
     2    1    8 1   
     3    2    3 1   
     4    2    4 1   
     5    4   29 1   
     6    5    6 1   
     7    7   30 1   
     8    8    9 1   
     9    8   10 1   
    10    9   31 1   
    11    9   32 1   
    12   10   34 1   
    13   11   13 1   
    14   12   13 1   
    15   13   14 1   
    16   14   19 1   
    17   15   16 1   
    18   15   36 1   
    19   16   37 1   
    20   17   18 1   
    21   17   38 1   
    22   18   21 1   
    23   19   20 1   
    24   21   27 1   
    25   22   23 1   
    26   22   27 1   
    27   22   28 1   
    28   22   39 1   
    29   23   24 1   
    30   23   40 1   
    31   23   41 1   
    32   24   25 1   
    33   24   42 1   
    34   24   43 1   
    35   25   26 1   
    36   25   44 1   
    37   25   45 1   
    38   26   27 1   
    39   26   46 1   
    40   26   47 1   
    41   27   48 1   
    42   28   49 1   
    43   28   50 1   
    44   28   51 1   
@<TRIPOS>SUBSTRUCTURE
     1 CR9         1 TEMP              0 ****  ****    0 ROOT
