@<TRIPOS>MOLECULE
CRA
   35    35     1     0     0
SMALL
bcc


@<TRIPOS>ATOM
      1 N1         -1.3020    2.1840    0.1380 n         1 CRA     -0.641000
      2 C2          1.8430    0.0260   -0.2370 c3        1 CRA      0.145100
      3 O2          2.8130    0.9080    0.2560 oh        1 CRA     -0.579800
      4 C4          0.6860   -0.9950   -2.2280 c3        1 CRA      0.078100
      5 C5         -0.6500   -0.6210   -1.5780 c3        1 CRA      0.069100
      6 C6         -1.7420   -1.6690   -1.8310 c3        1 CRA      0.140400
      7 C1          0.4220    0.3780    0.3340 c3        1 CRA      0.219200
      8 C3          1.7850   -0.0150   -1.7720 c3        1 CRA      0.113100
      9 O3          3.0500   -0.4740   -2.2120 oh        1 CRA     -0.582800
     10 O4          0.6240   -0.8620   -3.6390 oh        1 CRA     -0.593800
     11 O5         -0.5200   -0.5940   -0.1550 os        1 CRA     -0.431600
     12 N2          0.4120    0.2840    1.7830 n         1 CRA     -0.517900
     13 C7         -0.7430   -0.0560    2.4670 c         1 CRA      0.748100
     14 O7         -1.9280    0.0620    2.1070 o         1 CRA     -0.594000
     15 C8         -1.6360   -0.7480    4.5550 c3        1 CRA      0.137700
     16 O8         -0.4830   -0.5200    3.7400 os        1 CRA     -0.437900
     17 C9         -0.0150    1.8190   -0.0950 c         1 CRA      0.641100
     18 O9          0.8120    2.5890   -0.6290 o         1 CRA     -0.635100
     19 H1N1       -1.9340    1.5590    0.5840 hn        1 CRA      0.334000
     20 H2N1       -1.6000    3.1030   -0.0790 hn        1 CRA      0.334000
     21 H21         2.1530   -0.9890    0.1470 h1        1 CRA      0.097700
     22 H1O2        2.7240    1.7540   -0.2110 ho        1 CRA      0.441000
     23 H41         0.9760   -2.0460   -1.9490 h1        1 CRA      0.062700
     24 H51        -0.9890    0.3850   -1.9530 h1        1 CRA      0.079700
     25 H61        -1.9450   -1.7430   -2.9330 h1        1 CRA      0.053200
     26 H62        -1.4180   -2.6640   -1.4260 h1        1 CRA      0.053200
     27 H31         1.5790    1.0130   -2.1860 h1        1 CRA      0.084700
     28 H1O3        3.0150   -0.4710   -3.1790 ho        1 CRA      0.422000
     29 H1O4        0.0180   -1.5400   -3.9600 ho        1 CRA      0.411000
     30 H1N2        1.2840    0.0390    2.2030 hn        1 CRA      0.346500
     31 H1O6       -2.8060   -1.1310   -0.3080 ho        1 CRA      0.428000
     32 H81        -1.1970   -1.1050    5.5200 h1        1 CRA      0.055367
     33 H82        -2.2030    0.2040    4.6880 h1        1 CRA      0.055367
     34 H83        -2.2870   -1.5230    4.0860 h1        1 CRA      0.055367
     35 O6         -2.9640   -1.2740   -1.2530 oh        1 CRA     -0.594800
@<TRIPOS>BOND
     1    1   17 1   
     2    1   19 1   
     3    1   20 1   
     4    2    3 1   
     5    2    7 1   
     6    2    8 1   
     7    2   21 1   
     8    3   22 1   
     9    4    5 1   
    10    4    8 1   
    11    4   10 1   
    12    4   23 1   
    13    5    6 1   
    14    5   11 1   
    15    5   24 1   
    16    6   25 1   
    17    6   26 1   
    18    6   35 1   
    19    7   11 1   
    20    7   12 1   
    21    7   17 1   
    22    8    9 1   
    23    8   27 1   
    24    9   28 1   
    25   10   29 1   
    26   12   13 1   
    27   12   30 1   
    28   13   14 2   
    29   13   16 1   
    30   15   16 1   
    31   15   32 1   
    32   15   33 1   
    33   15   34 1   
    34   17   18 2   
    35   31   35 1   
@<TRIPOS>SUBSTRUCTURE
     1 CRA         1 TEMP              0 ****  ****    0 ROOT
