@<TRIPOS>MOLECULE
CRA
   35    35     1     0     0
SMALL
bcc


@<TRIPOS>ATOM
      1 N1         -2.5430   -0.4550    1.1390 n         1 CRA     -0.631000
      2 C2         -0.9400    0.4740   -1.1230 c3        1 CRA      0.140100
      3 O2         -0.3020    0.1350   -2.4770 oh        1 CRA     -0.588800
      4 C4          0.5960    2.3340   -0.6680 c3        1 CRA      0.075100
      5 C5          1.3430    1.5800    0.4770 c3        1 CRA      0.134100
      6 C6          0.8090    1.8720    1.6660 c3        1 CRA      0.102400
      7 C1         -0.3370   -0.3620   -0.1180 c3        1 CRA      0.209200
      8 C3         -0.7980    1.8980   -0.8950 c3        1 CRA      0.112100
      9 O3         -1.6310    2.2830    0.3290 oh        1 CRA     -0.579800
     10 O4          1.3630    2.1430   -1.9360 oh        1 CRA     -0.609800
     11 O5          1.1250    0.0600    0.1160 os        1 CRA     -0.432600
     12 N2         -0.4560   -1.7630   -0.4310 n         1 CRA     -0.490900
     13 O6          1.3280    3.1170    2.1230 oh        1 CRA     -0.626800
     14 C7          0.6600   -2.6620   -0.1890 c         1 CRA      0.724100
     15 O7          1.2750   -2.6040    0.8630 o         1 CRA     -0.561000
     16 C8          1.3030   -4.9210   -0.5270 c3        1 CRA      0.136700
     17 O8          0.9580   -3.6540   -1.1130 os        1 CRA     -0.441900
     18 C9         -1.1230   -0.2940    1.1660 c         1 CRA      0.669100
     19 O9         -0.5130   -0.1320    2.2860 o         1 CRA     -0.594100
     20 H1N1       -2.9230   -0.8040    0.4470 hn        1 CRA      0.310000
     21 H2N1       -3.0430   -0.2550    1.8820 hn        1 CRA      0.310000
     22 H21        -1.9090    0.2570   -1.1710 h1        1 CRA      0.112700
     23 H1O2       -0.9720    0.0660   -3.1290 ho        1 CRA      0.428000
     24 H41         0.5870    3.2200   -0.4660 h1        1 CRA      0.068700
     25 H51         2.2590    1.7910    0.4670 h1        1 CRA      0.085700
     26 H61         1.0420    1.1470    2.3270 h1        1 CRA      0.067200
     27 H62        -0.1120    1.9320    1.5830 h1        1 CRA      0.067200
     28 H31        -1.1520    2.3830   -1.6850 h1        1 CRA      0.074700
     29 H1O3       -2.1360    3.0180    0.1370 ho        1 CRA      0.414000
     30 H1O4        1.7700    2.9200   -2.1640 ho        1 CRA      0.420000
     31 H1N2       -1.2830   -2.1090   -0.7570 hn        1 CRA      0.324500
     32 H1O6        1.5760    3.0430    3.0190 ho        1 CRA      0.412000
     33 H81         2.1790   -4.8250    0.0080 h1        1 CRA      0.054367
     34 H82         1.4330   -5.6150   -1.2670 h1        1 CRA      0.054367
     35 H83         0.5680   -5.2180    0.0820 h1        1 CRA      0.054367
@<TRIPOS>BOND
     1    1   18 1   
     2    1   20 1   
     3    1   21 1   
     4    2    3 1   
     5    2    7 1   
     6    2    8 1   
     7    2   22 1   
     8    3   23 1   
     9    4    5 1   
    10    4    8 1   
    11    4   10 1   
    12    4   24 1   
    13    5    6 1   
    14    5   11 1   
    15    5   25 1   
    16    6   13 1   
    17    6   26 1   
    18    6   27 1   
    19    7   11 1   
    20    7   12 1   
    21    7   18 1   
    22    8    9 1   
    23    8   28 1   
    24    9   29 1   
    25   10   30 1   
    26   12   14 1   
    27   12   31 1   
    28   13   32 1   
    29   14   15 2   
    30   14   17 1   
    31   16   17 1   
    32   16   33 1   
    33   16   34 1   
    34   16   35 1   
    35   18   19 2   
@<TRIPOS>SUBSTRUCTURE
     1 CRA         1 TEMP              0 ****  ****    0 ROOT
