@<TRIPOS>MOLECULE
CRB
   29    28     1     0     0
SMALL
bcc


@<TRIPOS>ATOM
      1 C1          3.1630    0.5410    0.5320 c1        1 CRB      0.311000
      2 O11         3.8620    1.2840    1.2700 os        1 CRB     -0.616000
      3 O12         3.7200   -0.2450   -0.2780 o         1 CRB     -0.596000
      4 C2          1.6530    0.5950    0.6170 c3        1 CRB      0.026000
      5 O2          1.4570    0.6440    2.0000 oh        1 CRB     -0.359000
      6 C3          1.0880    1.8590   -0.0850 c3        1 CRB     -0.159000
      7 C4         -0.4370    1.8930   -0.1180 c3        1 CRB     -0.003000
      8 O4         -0.8540    3.0060   -0.9080 oh        1 CRB     -0.339000
      9 C5         -1.0390    0.6390   -0.6930 c3        1 CRB      0.080000
     10 O5         -2.4700    0.6930   -0.5220 oh        1 CRB     -0.418000
     11 C6         -0.5250   -0.6120   -0.0470 c3        1 CRB     -0.077000
     12 C7         -1.0580   -1.8270   -0.8290 c3        1 CRB     -0.774000
     13 C8          0.9950   -0.6800   -0.0140 c3        1 CRB     -0.154000
     14 P1         -1.9280   -2.9440    0.3080 p5        1 CRB      1.637500
     15 O91        -2.7550   -3.9260   -0.4870 o         1 CRB     -0.957833
     16 O92        -0.9210   -3.6950    1.1450 o         1 CRB     -0.957833
     17 O93        -2.8330   -2.1380    1.2100 o         1 CRB     -0.957833
     18 HO2         1.7700   -0.1020    2.3700 ho        1 CRB      0.208000
     19 H31         1.4220    1.8850   -1.0030 hc        1 CRB      0.069000
     20 H32         1.4090    2.6520    0.3900 hc        1 CRB      0.069000
     21 H4         -0.7690    2.0120    0.7940 h1        1 CRB      0.082000
     22 HO4        -0.9980    3.7070   -0.3800 ho        1 CRB      0.147000
     23 H5         -0.8380    0.6040   -1.6490 h1        1 CRB      0.047000
     24 HO5        -2.8550    0.8790   -1.3010 ho        1 CRB      0.296000
     25 H6         -0.8610   -0.6540    0.8680 hc        1 CRB      0.117000
     26 H71        -0.3090   -2.3020   -1.2430 hc        1 CRB      0.063000
     27 H72        -1.6750   -1.5230   -1.5240 hc        1 CRB      0.063000
     28 H81         1.3250   -0.7830   -0.9290 hc        1 CRB      0.076000
     29 H82         1.2630   -1.4630    0.5070 hc        1 CRB      0.076000
@<TRIPOS>BOND
     1    1    3 1   
     2    1    4 1   
     3    4    5 1   
     4    4    6 1   
     5    4   13 1   
     6    5   18 1   
     7    6    7 1   
     8    6   19 1   
     9    6   20 1   
    10    7    8 1   
    11    7    9 1   
    12    7   21 1   
    13    8   22 1   
    14    9   10 1   
    15    9   11 1   
    16    9   23 1   
    17   10   24 1   
    18   11   12 1   
    19   11   13 1   
    20   11   25 1   
    21   12   14 1   
    22   12   26 1   
    23   12   27 1   
    24   13   28 1   
    25   13   29 1   
    26   14   15 1   
    27   14   16 1   
    28   14   17 1   
@<TRIPOS>SUBSTRUCTURE
     1 CRB         1 TEMP              0 ****  ****    0 ROOT
