@<TRIPOS>MOLECULE
CRB
   29    29     1     0     0
SMALL
bcc


@<TRIPOS>ATOM
      1 C1         -1.7440   -0.3220    2.8590 c         1 CRB      0.894600
      2 O11        -1.6020   -1.4490    3.4190 o         1 CRB     -0.870300
      3 O12        -2.7670    0.4070    3.0400 o         1 CRB     -0.870300
      4 C2         -0.6090    0.2480    1.9540 c3        1 CRB      0.046800
      5 O2         -0.7290    1.6730    1.9270 oh        1 CRB     -0.632800
      6 C3          0.7330   -0.0600    2.6120 c3        1 CRB     -0.077400
      7 C4          1.8830    0.3120    1.6980 c3        1 CRB      0.087100
      8 O4          3.1440   -0.0260    2.3000 oh        1 CRB     -0.652800
      9 C5          1.7920   -0.4520    0.3650 c3        1 CRB      0.159100
     10 O5          2.9260   -0.1340   -0.4290 oh        1 CRB     -0.565800
     11 C6          0.5020   -0.0730   -0.3900 c3        1 CRB     -0.012700
     12 C7          0.3810   -0.8490   -1.6700 c3        1 CRB     -0.282600
     13 C8         -0.6870   -0.3380    0.5390 c3        1 CRB     -0.078400
     14 P1          0.0180    0.1800   -3.1140 p5        1 CRB      1.219700
     15 O91         0.2280    1.6270   -2.7170 o         1 CRB     -0.965833
     16 O92         1.0050   -0.3260   -4.1520 o         1 CRB     -0.965833
     17 O93        -1.4190   -0.1670   -3.4560 o         1 CRB     -0.965833
     18 HO2        -1.6720    1.8480    1.7990 ho        1 CRB      0.414000
     19 H31         0.7570   -1.1550    2.8490 hc        1 CRB      0.032700
     20 H32         0.8150    0.5080    3.5750 hc        1 CRB      0.032700
     21 H4          1.8790    1.4190    1.4920 h1        1 CRB      0.059700
     22 HO4         3.0840    0.2530    3.2180 ho        1 CRB      0.369000
     23 H5          1.7980   -1.5580    0.5840 h1        1 CRB      0.003700
     24 HO5         3.6910   -0.4000    0.0950 ho        1 CRB      0.354000
     25 H6          0.5440    1.0250   -0.6650 hc        1 CRB      0.122700
     26 H71         1.3380   -1.3630   -1.9130 hc        1 CRB      0.026700
     27 H72        -0.4220   -1.6150   -1.6120 hc        1 CRB      0.026700
     28 H81        -0.8230   -1.4460    0.6550 hc        1 CRB      0.047200
     29 H82        -1.6060    0.0710    0.0430 hc        1 CRB      0.047200
@<TRIPOS>BOND
     1    1    2 1   
     2    1    3 1   
     3    1    4 1   
     4    4    5 1   
     5    4    6 1   
     6    4   13 1   
     7    5   18 1   
     8    6    7 1   
     9    6   19 1   
    10    6   20 1   
    11    7    8 1   
    12    7    9 1   
    13    7   21 1   
    14    8   22 1   
    15    9   10 1   
    16    9   11 1   
    17    9   23 1   
    18   10   24 1   
    19   11   12 1   
    20   11   13 1   
    21   11   25 1   
    22   12   14 1   
    23   12   26 1   
    24   12   27 1   
    25   13   28 1   
    26   13   29 1   
    27   14   15 1   
    28   14   16 1   
    29   14   17 1   
@<TRIPOS>SUBSTRUCTURE
     1 CRB         1 TEMP              0 ****  ****    0 ROOT
