@<TRIPOS>MOLECULE
CRB
   29    29     1     0     0
SMALL
bcc


@<TRIPOS>ATOM
      1 C1          1.5860    0.4300   -0.1890 c         1 CRB      0.894600
      2 O11         2.0380    0.8490   -1.2950 o         1 CRB     -0.870300
      3 O12         2.3310    0.2200    0.8170 o         1 CRB     -0.870300
      4 C2          0.0530    0.2130   -0.0030 c3        1 CRB      0.046800
      5 O2         -0.2490    0.3120    1.3910 oh        1 CRB     -0.632800
      6 C3         -0.6830    1.3610   -0.6880 c3        1 CRB     -0.077400
      7 C4         -2.1790    1.1180   -0.6960 c3        1 CRB      0.087100
      8 O4         -2.8650    2.1760   -1.3860 oh        1 CRB     -0.652800
      9 C5         -2.5150   -0.1970   -1.4220 c3        1 CRB      0.159100
     10 O5         -3.9270   -0.3470   -1.4750 oh        1 CRB     -0.565800
     11 C6         -1.8880   -1.3990   -0.6870 c3        1 CRB     -0.012700
     12 C7         -2.1720   -2.6810   -1.4140 c3        1 CRB     -0.282600
     13 C8         -0.3810   -1.1460   -0.5650 c3        1 CRB     -0.078400
     14 P1         -2.8240   -3.9930   -0.3510 p5        1 CRB      1.219700
     15 O91        -3.2110   -3.3670    0.9720 o         1 CRB     -0.965833
     16 O92        -4.0000   -4.5280   -1.1510 o         1 CRB     -0.965833
     17 O93        -1.6810   -4.9860   -0.2570 o         1 CRB     -0.965833
     18 HO2         0.4350   -0.2030    1.8390 ho        1 CRB      0.414000
     19 H31        -0.2920    1.4450   -1.7350 hc        1 CRB      0.032700
     20 H32        -0.4570    2.3190   -0.1530 hc        1 CRB      0.032700
     21 H4         -2.5760    1.0720    0.3560 h1        1 CRB      0.059700
     22 HO4        -2.4620    2.9950   -1.0850 ho        1 CRB      0.369000
     23 H5         -2.1150   -0.1390   -2.4740 h1        1 CRB      0.003700
     24 HO5        -4.2520    0.4270   -1.9490 ho        1 CRB      0.354000
     25 H6         -2.3530   -1.4860    0.3420 hc        1 CRB      0.122700
     26 H71        -2.9490   -2.5280   -2.1970 hc        1 CRB      0.026700
     27 H72        -1.2600   -3.0870   -1.9030 hc        1 CRB      0.026700
     28 H81         0.0900   -1.2430   -1.5790 hc        1 CRB      0.047200
     29 H82         0.0460   -1.9480    0.0920 hc        1 CRB      0.047200
@<TRIPOS>BOND
     1    1    2 1   
     2    1    3 1   
     3    1    4 1   
     4    4    5 1   
     5    4    6 1   
     6    4   13 1   
     7    5   18 1   
     8    6    7 1   
     9    6   19 1   
    10    6   20 1   
    11    7    8 1   
    12    7    9 1   
    13    7   21 1   
    14    8   22 1   
    15    9   10 1   
    16    9   11 1   
    17    9   23 1   
    18   10   24 1   
    19   11   12 1   
    20   11   13 1   
    21   11   25 1   
    22   12   14 1   
    23   12   26 1   
    24   12   27 1   
    25   13   28 1   
    26   13   29 1   
    27   14   15 1   
    28   14   16 1   
    29   14   17 1   
@<TRIPOS>SUBSTRUCTURE
     1 CRB         1 TEMP              0 ****  ****    0 ROOT
