@<TRIPOS>MOLECULE
CRB
   29    29     1     0     0
SMALL
bcc


@<TRIPOS>ATOM
      1 C1          1.5800    0.4360   -0.1820 c         1 CRB      0.894600
      2 O11         2.0370    0.8520   -1.2870 o         1 CRB     -0.870300
      3 O12         2.3200    0.2270    0.8280 o         1 CRB     -0.870300
      4 C2          0.0460    0.2200   -0.0020 c3        1 CRB      0.046800
      5 O2         -0.2620    0.3230    1.3910 oh        1 CRB     -0.632800
      6 C3         -0.6860    1.3670   -0.6930 c3        1 CRB     -0.077400
      7 C4         -2.1830    1.1250   -0.7060 c3        1 CRB      0.087100
      8 O4         -2.8650    2.1820   -1.4010 oh        1 CRB     -0.652800
      9 C5         -2.5170   -0.1910   -1.4310 c3        1 CRB      0.159100
     10 O5         -3.9290   -0.3410   -1.4890 oh        1 CRB     -0.565800
     11 C6         -1.8930   -1.3920   -0.6910 c3        1 CRB     -0.012700
     12 C7         -2.1750   -2.6760   -1.4160 c3        1 CRB     -0.282600
     13 C8         -0.3870   -1.1400   -0.5630 c3        1 CRB     -0.078400
     14 P1         -2.8320   -3.9850   -0.3530 p5        1 CRB      1.219700
     15 O91        -3.2240   -3.3560    0.9680 o         1 CRB     -0.965833
     16 O92        -4.0050   -4.5210   -1.1560 o         1 CRB     -0.965833
     17 O93        -1.6900   -4.9780   -0.2520 o         1 CRB     -0.965833
     18 HO2         0.4200   -0.1930    1.8420 ho        1 CRB      0.414000
     19 H31        -0.4630    2.3260   -0.1580 hc        1 CRB      0.032700
     20 H32        -0.2920    1.4480   -1.7380 hc        1 CRB      0.032700
     21 H4         -2.5840    1.0810    0.3450 h1        1 CRB      0.059700
     22 HO4        -2.4630    3.0010   -1.1010 ho        1 CRB      0.369000
     23 H5         -2.1120   -0.1360   -2.4820 h1        1 CRB      0.003700
     24 HO5        -4.2510    0.4320   -1.9660 ho        1 CRB      0.354000
     25 H6         -2.3620   -1.4770    0.3370 hc        1 CRB      0.122700
     26 H71        -1.2610   -3.0830   -1.9000 hc        1 CRB      0.026700
     27 H72        -2.9490   -2.5240   -2.2020 hc        1 CRB      0.026700
     28 H81         0.0370   -1.9400    0.0970 hc        1 CRB      0.047200
     29 H82         0.0890   -1.2390   -1.5740 hc        1 CRB      0.047200
@<TRIPOS>BOND
     1    1    2 1   
     2    1    3 1   
     3    1    4 1   
     4    4    5 1   
     5    4    6 1   
     6    4   13 1   
     7    5   18 1   
     8    6    7 1   
     9    6   19 1   
    10    6   20 1   
    11    7    8 1   
    12    7    9 1   
    13    7   21 1   
    14    8   22 1   
    15    9   10 1   
    16    9   11 1   
    17    9   23 1   
    18   10   24 1   
    19   11   12 1   
    20   11   13 1   
    21   11   25 1   
    22   12   14 1   
    23   12   26 1   
    24   12   27 1   
    25   13   28 1   
    26   13   29 1   
    27   14   15 1   
    28   14   16 1   
    29   14   17 1   
@<TRIPOS>SUBSTRUCTURE
     1 CRB         1 TEMP              0 ****  ****    0 ROOT
