@<TRIPOS>MOLECULE
CRC
   31    30     1     0     0
SMALL
bcc


@<TRIPOS>ATOM
      1 O1          0.0350    0.0000   -0.0610 o         1 CRC     -0.854800
      2 C1          1.2970    0.0000    0.0360 c         1 CRC      0.907600
      3 O2          1.9150   -0.0000    1.1400 o         1 CRC     -0.854800
      4 C2          2.1000   -0.0000   -1.2760 c3        1 CRC     -0.193400
      5 C3          3.5890   -0.0000   -1.0390 c3        1 CRC     -0.062400
      6 C4          4.3680   -0.0000   -2.3370 c3        1 CRC     -0.079400
      7 C5          5.8610   -0.0000   -2.0880 c3        1 CRC     -0.078400
      8 C6          6.6410    0.0000   -3.3850 c3        1 CRC     -0.078400
      9 C7          8.1340    0.0000   -3.1330 c3        1 CRC     -0.079400
     10 C8          8.9140   -0.0000   -4.4300 c3        1 CRC     -0.078400
     11 C9         10.4070    0.0000   -4.1780 c3        1 CRC     -0.080400
     12 C10        11.1870    0.0000   -5.4670 c3        1 CRC     -0.091100
     13 H21         1.8020    0.9030   -1.8670 hc        1 CRC      0.018700
     14 H22         1.8020   -0.9030   -1.8670 hc        1 CRC      0.018700
     15 H31         3.8630    0.8990   -0.4260 hc        1 CRC      0.044700
     16 H32         3.8630   -0.8990   -0.4260 hc        1 CRC      0.044700
     17 H41         4.0900   -0.9020   -2.9440 hc        1 CRC      0.024700
     18 H42         4.0900    0.9020   -2.9440 hc        1 CRC      0.024700
     19 H51         6.1390   -0.9020   -1.4820 hc        1 CRC      0.036700
     20 H52         6.1390    0.9020   -1.4820 hc        1 CRC      0.036700
     21 H61         6.3630   -0.9020   -3.9910 hc        1 CRC      0.033700
     22 H62         6.3630    0.9020   -3.9910 hc        1 CRC      0.033700
     23 H71         8.4120    0.9020   -2.5270 hc        1 CRC      0.037700
     24 H72         8.4120   -0.9020   -2.5270 hc        1 CRC      0.037700
     25 H81         8.6360    0.9020   -5.0360 hc        1 CRC      0.036700
     26 H82         8.6360   -0.9020   -5.0360 hc        1 CRC      0.036700
     27 H91        10.6820   -0.9020   -3.5710 hc        1 CRC      0.036700
     28 H92        10.6820    0.9020   -3.5710 hc        1 CRC      0.036700
     29 H101       10.9440    0.9050   -6.0750 hc        1 CRC      0.028033
     30 H102       10.9440   -0.9050   -6.0750 hc        1 CRC      0.028033
     31 H103       12.2840   -0.0000   -5.2580 hc        1 CRC      0.028033
@<TRIPOS>BOND
     1    1    2 1   
     2    2    3 1   
     3    2    4 1   
     4    4    5 1   
     5    4   13 1   
     6    4   14 1   
     7    5    6 1   
     8    5   15 1   
     9    5   16 1   
    10    6    7 1   
    11    6   17 1   
    12    6   18 1   
    13    7    8 1   
    14    7   19 1   
    15    7   20 1   
    16    8    9 1   
    17    8   21 1   
    18    8   22 1   
    19    9   10 1   
    20    9   23 1   
    21    9   24 1   
    22   10   11 1   
    23   10   25 1   
    24   10   26 1   
    25   11   12 1   
    26   11   27 1   
    27   11   28 1   
    28   12   29 1   
    29   12   30 1   
    30   12   31 1   
@<TRIPOS>SUBSTRUCTURE
     1 CRC         1 TEMP              0 ****  ****    0 ROOT
