@<TRIPOS>MOLECULE
CRC
   31    30     1     0     0
SMALL
bcc


@<TRIPOS>ATOM
      1 O1          0.2970   -0.6170    0.1790 o         1 CRC     -0.853800
      2 C1          1.3190    0.1160    0.0420 c         1 CRC      0.907600
      3 O2          1.7240    0.9300    0.9220 o         1 CRC     -0.853800
      4 C2          2.0930    0.0230   -1.2850 c3        1 CRC     -0.193400
      5 C3          3.5810   -0.0600   -1.0480 c3        1 CRC     -0.065400
      6 C4          4.3650    0.0330   -2.3410 c3        1 CRC     -0.078400
      7 C5          5.8550   -0.0700   -2.0940 c3        1 CRC     -0.078400
      8 C6          6.6400    0.0310   -3.3840 c3        1 CRC     -0.078400
      9 C7          8.1300   -0.0720   -3.1350 c3        1 CRC     -0.079400
     10 C8          8.9140    0.0280   -4.4250 c3        1 CRC     -0.078400
     11 C9         10.4040   -0.0740   -4.1760 c3        1 CRC     -0.080400
     12 C10        11.1900    0.0240   -5.4580 c3        1 CRC     -0.091100
     13 H21         1.8520    0.9370   -1.8860 hc        1 CRC      0.018700
     14 H22         1.7390   -0.8690   -1.8600 hc        1 CRC      0.018700
     15 H31         3.8810    0.7700   -0.3540 hc        1 CRC      0.043700
     16 H32         3.8230   -1.0260   -0.5320 hc        1 CRC      0.043700
     17 H41         4.0430   -0.7860   -3.0370 hc        1 CRC      0.025700
     18 H42         4.1360    1.0060   -2.8490 hc        1 CRC      0.025700
     19 H51         6.0850   -1.0450   -1.5890 hc        1 CRC      0.036700
     20 H52         6.1740    0.7470   -1.3940 hc        1 CRC      0.036700
     21 H61         6.3190   -0.7860   -4.0840 hc        1 CRC      0.034200
     22 H62         6.4100    1.0060   -3.8890 hc        1 CRC      0.034200
     23 H71         8.4500    0.7450   -2.4360 hc        1 CRC      0.037200
     24 H72         8.3590   -1.0470   -2.6290 hc        1 CRC      0.037200
     25 H81         8.6840    1.0020   -4.9310 hc        1 CRC      0.036700
     26 H82         8.5940   -0.7900   -5.1240 hc        1 CRC      0.036700
     27 H91        10.6320   -1.0490   -3.6680 hc        1 CRC      0.037200
     28 H92        10.7220    0.7430   -3.4760 hc        1 CRC      0.037200
     29 H101       10.9940    0.9990   -5.9660 hc        1 CRC      0.028033
     30 H102       10.9040   -0.7980   -6.1590 hc        1 CRC      0.028033
     31 H103       12.2840   -0.0530   -5.2520 hc        1 CRC      0.028033
@<TRIPOS>BOND
     1    1    2 1   
     2    2    3 1   
     3    2    4 1   
     4    4    5 1   
     5    4   13 1   
     6    4   14 1   
     7    5    6 1   
     8    5   15 1   
     9    5   16 1   
    10    6    7 1   
    11    6   17 1   
    12    6   18 1   
    13    7    8 1   
    14    7   19 1   
    15    7   20 1   
    16    8    9 1   
    17    8   21 1   
    18    8   22 1   
    19    9   10 1   
    20    9   23 1   
    21    9   24 1   
    22   10   11 1   
    23   10   25 1   
    24   10   26 1   
    25   11   12 1   
    26   11   27 1   
    27   11   28 1   
    28   12   29 1   
    29   12   30 1   
    30   12   31 1   
@<TRIPOS>SUBSTRUCTURE
     1 CRC         1 TEMP              0 ****  ****    0 ROOT
