@<TRIPOS>MOLECULE
CRC
   31    30     1     0     0
SMALL
bcc


@<TRIPOS>ATOM
      1 O1         -0.5880   -0.0000   -5.6590 o         1 CRC     -0.854800
      2 C1          0.0820   -0.0000   -4.5850 c         1 CRC      0.907600
      3 O2          1.3470    0.0000   -4.5480 o         1 CRC     -0.854800
      4 C2         -0.7090    0.0000   -3.2660 c3        1 CRC     -0.193400
      5 C3          0.1910   -0.0000   -2.0550 c3        1 CRC     -0.062400
      6 C4         -0.6000    0.0000   -0.7640 c3        1 CRC     -0.079400
      7 C5          0.3120   -0.0000    0.4440 c3        1 CRC     -0.078400
      8 C6         -0.4760    0.0000    1.7370 c3        1 CRC     -0.078400
      9 C7          0.4380    0.0000    2.9430 c3        1 CRC     -0.079400
     10 C8         -0.3500    0.0000    4.2340 c3        1 CRC     -0.078400
     11 C9          0.5640   -0.0000    5.4410 c3        1 CRC     -0.080400
     12 C10        -0.2170   -0.0000    6.7300 c3        1 CRC     -0.091100
     13 H21        -1.3710   -0.9030   -3.2560 hc        1 CRC      0.018700
     14 H22        -1.3710    0.9030   -3.2560 hc        1 CRC      0.018700
     15 H31         0.8610    0.8990   -2.0960 hc        1 CRC      0.044700
     16 H32         0.8600   -0.8990   -2.0960 hc        1 CRC      0.044700
     17 H41        -1.2660   -0.9020   -0.7300 hc        1 CRC      0.024700
     18 H42        -1.2660    0.9020   -0.7300 hc        1 CRC      0.024700
     19 H51         0.9780    0.9020    0.4100 hc        1 CRC      0.036700
     20 H52         0.9780   -0.9020    0.4100 hc        1 CRC      0.036700
     21 H61        -1.1420   -0.9020    1.7700 hc        1 CRC      0.033700
     22 H62        -1.1420    0.9020    1.7700 hc        1 CRC      0.033700
     23 H71         1.1040    0.9020    2.9090 hc        1 CRC      0.037700
     24 H72         1.1040   -0.9020    2.9090 hc        1 CRC      0.037700
     25 H81        -1.0160   -0.9020    4.2680 hc        1 CRC      0.036700
     26 H82        -1.0160    0.9020    4.2680 hc        1 CRC      0.036700
     27 H91         1.2300    0.9020    5.4040 hc        1 CRC      0.036700
     28 H92         1.2300   -0.9020    5.4040 hc        1 CRC      0.036700
     29 H101        0.4760   -0.0000    7.6060 hc        1 CRC      0.028033
     30 H102       -0.8690    0.9050    6.7950 hc        1 CRC      0.028033
     31 H103       -0.8690   -0.9050    6.7950 hc        1 CRC      0.028033
@<TRIPOS>BOND
     1    1    2 1   
     2    2    3 1   
     3    2    4 1   
     4    4    5 1   
     5    4   13 1   
     6    4   14 1   
     7    5    6 1   
     8    5   15 1   
     9    5   16 1   
    10    6    7 1   
    11    6   17 1   
    12    6   18 1   
    13    7    8 1   
    14    7   19 1   
    15    7   20 1   
    16    8    9 1   
    17    8   21 1   
    18    8   22 1   
    19    9   10 1   
    20    9   23 1   
    21    9   24 1   
    22   10   11 1   
    23   10   25 1   
    24   10   26 1   
    25   11   12 1   
    26   11   27 1   
    27   11   28 1   
    28   12   29 1   
    29   12   30 1   
    30   12   31 1   
@<TRIPOS>SUBSTRUCTURE
     1 CRC         1 TEMP              0 ****  ****    0 ROOT
