@<TRIPOS>MOLECULE
CRC
   31    30     1     0     0
SMALL
bcc


@<TRIPOS>ATOM
      1 O1         -2.3130    2.1850    5.5280 o         1 CRC     -0.853800
      2 C1         -1.5480    2.8240    4.7600 c         1 CRC      0.907600
      3 O2         -0.6920    3.6150    5.2380 o         1 CRC     -0.853800
      4 C2         -1.6580    2.6450    3.2610 c3        1 CRC     -0.193400
      5 C3         -0.7390    1.5280    2.8180 c3        1 CRC     -0.065400
      6 C4         -0.9290    1.2770    1.3380 c3        1 CRC     -0.078400
      7 C5          0.0690    0.2400    0.8710 c3        1 CRC     -0.078400
      8 C6         -0.1650   -0.0620   -0.5930 c3        1 CRC     -0.078400
      9 C7          0.8680   -1.0570   -1.0740 c3        1 CRC     -0.079400
     10 C8          0.6050   -1.3940   -2.5260 c3        1 CRC     -0.078400
     11 C9          1.6900   -2.3180   -3.0330 c3        1 CRC     -0.080400
     12 C10         1.3510   -2.7720   -4.4360 c3        1 CRC     -0.091100
     13 H21        -1.4020    3.4760    2.8140 hc        1 CRC      0.018700
     14 H22        -2.5810    2.4200    3.0270 hc        1 CRC      0.018700
     15 H31         0.1900    1.7840    2.9890 hc        1 CRC      0.043700
     16 H32        -0.9500    0.7140    3.3170 hc        1 CRC      0.043700
     17 H41        -0.7890    2.1100    0.8450 hc        1 CRC      0.025700
     18 H42        -1.8370    0.9510    1.1770 hc        1 CRC      0.025700
     19 H51        -0.0420   -0.5790    1.3940 hc        1 CRC      0.036700
     20 H52         0.9770    0.5830    0.9920 hc        1 CRC      0.036700
     21 H61        -0.0890    0.7640   -1.1120 hc        1 CRC      0.034200
     22 H62        -1.0600   -0.4390   -0.7090 hc        1 CRC      0.034200
     23 H71         0.8120   -1.8710   -0.5350 hc        1 CRC      0.037200
     24 H72         1.7610   -0.6680   -0.9860 hc        1 CRC      0.037200
     25 H81         0.6030   -0.5720   -3.0560 hc        1 CRC      0.036700
     26 H82        -0.2640   -1.8360   -2.6060 hc        1 CRC      0.036700
     27 H91         2.5450   -1.8430   -3.0420 hc        1 CRC      0.037200
     28 H92         1.7560   -3.0970   -2.4450 hc        1 CRC      0.037200
     29 H101        1.2560   -1.9890   -5.0180 hc        1 CRC      0.028033
     30 H102        0.5090   -3.2730   -4.4220 hc        1 CRC      0.028033
     31 H103        2.0680   -3.3460   -4.7760 hc        1 CRC      0.028033
@<TRIPOS>BOND
     1    1    2 1   
     2    2    3 1   
     3    2    4 1   
     4    4    5 1   
     5    4   13 1   
     6    4   14 1   
     7    5    6 1   
     8    5   15 1   
     9    5   16 1   
    10    6    7 1   
    11    6   17 1   
    12    6   18 1   
    13    7    8 1   
    14    7   19 1   
    15    7   20 1   
    16    8    9 1   
    17    8   21 1   
    18    8   22 1   
    19    9   10 1   
    20    9   23 1   
    21    9   24 1   
    22   10   11 1   
    23   10   25 1   
    24   10   26 1   
    25   11   12 1   
    26   11   27 1   
    27   11   28 1   
    28   12   29 1   
    29   12   30 1   
    30   12   31 1   
@<TRIPOS>SUBSTRUCTURE
     1 CRC         1 TEMP              0 ****  ****    0 ROOT
