@<TRIPOS>MOLECULE
CRD
   11    10     1     0     0
SMALL
bcc


@<TRIPOS>ATOM
      1 CC1        -0.2220   -0.0230    2.4830 c3        1 CRD     -0.080900
      2 CC2         0.3790   -0.1470    1.1430 c2        1 CRD     -0.092200
      3 CC3        -0.2590    0.1610    0.0070 ce        1 CRD     -0.279200
      4 CC4         0.3740    0.0240   -1.3100 c         1 CRD      0.560100
      5 OC1        -0.2030    0.3050   -2.3630 o         1 CRD     -0.526100
      6 HC11        0.3830    0.6810    3.1090 hc        1 CRD      0.052367
      7 HC12       -1.2720    0.3580    2.4380 hc        1 CRD      0.052367
      8 HC13       -0.2300   -1.0200    2.9920 hc        1 CRD      0.052367
      9 HC2         1.4190   -0.5200    1.1270 ha        1 CRD      0.122000
     10 HC3        -1.2970    0.5350    0.0030 ha        1 CRD      0.149000
     11 HC4         1.4230   -0.3530   -1.3090 h4        1 CRD     -0.009800
@<TRIPOS>BOND
     1    1    2 1   
     2    1    6 1   
     3    1    7 1   
     4    1    8 1   
     5    2    3 2   
     6    2    9 1   
     7    3    4 1   
     8    3   10 1   
     9    4    5 2   
    10    4   11 1   
@<TRIPOS>SUBSTRUCTURE
     1 CRD         1 TEMP              0 ****  ****    0 ROOT
