@<TRIPOS>MOLECULE
CRD
   11    10     1     0     0
SMALL
bcc


@<TRIPOS>ATOM
      1 CC1        -0.0150    0.0490    0.0640 c3        1 CRD     -0.080900
      2 CC2         1.3850   -0.3660    0.2690 c2        1 CRD     -0.092200
      3 CC3         2.2970    0.3760    0.9090 ce        1 CRD     -0.279200
      4 CC4         3.6820   -0.0720    1.0940 c         1 CRD      0.560100
      5 OC1         4.5320    0.6020    1.6810 o         1 CRD     -0.526100
      6 HC11       -0.2240    1.0550    0.5060 hc        1 CRD      0.052367
      7 HC12       -0.7070   -0.6940    0.5360 hc        1 CRD      0.052367
      8 HC13       -0.2440    0.0900   -1.0310 hc        1 CRD      0.052367
      9 HC2         1.6480   -1.3540   -0.1480 ha        1 CRD      0.122000
     10 HC3         2.0530    1.3650    1.3330 ha        1 CRD      0.149000
     11 HC4         3.9320   -1.0710    0.6670 h4        1 CRD     -0.009800
@<TRIPOS>BOND
     1    1    2 1   
     2    1    6 1   
     3    1    7 1   
     4    1    8 1   
     5    2    3 2   
     6    2    9 1   
     7    3    4 1   
     8    3   10 1   
     9    4    5 2   
    10    4   11 1   
@<TRIPOS>SUBSTRUCTURE
     1 CRD         1 TEMP              0 ****  ****    0 ROOT
