@<TRIPOS>MOLECULE
CRD
   11     9     1     0     0
SMALL
bcc


@<TRIPOS>ATOM
      1 CC1        -1.0630    0.0180   -0.9010 c3        1 CRD     -0.206000
      2 CC2         0.4490    0.0180   -0.9010 c2        1 CRD     -0.086000
      3 CC3         1.1230    0.0180    0.2660 c1        1 CRD     -0.259000
      4 CC4         0.3670    0.0180    1.5760 c1        1 CRD      0.210000
      5 OC1         0.2210   -1.0200    2.1950 o         1 CRD     -0.288000
      6 HC11       -1.3890    0.0160   -1.8210 hc        1 CRD      0.091333
      7 HC12       -1.3890    0.8160   -0.4420 hc        1 CRD      0.091333
      8 HC13       -1.3890   -0.7780   -0.4390 hc        1 CRD      0.091333
      9 HC2         0.9370    0.0180   -1.7460 ha        1 CRD      0.124000
     10 HC3         2.0990    0.0180    0.2660 ha        1 CRD      0.146000
     11 HC4         0.0330    0.8570    1.9460 ha        1 CRD      0.085000
@<TRIPOS>BOND
     1    1    2 1   
     2    1    6 1   
     3    1    7 1   
     4    1    8 1   
     5    2    3 1   
     6    2    9 1   
     7    3   10 1   
     8    4    5 1   
     9    4   11 1   
@<TRIPOS>SUBSTRUCTURE
     1 CRD         1 TEMP              0 ****  ****    0 ROOT
