@<TRIPOS>MOLECULE
CRD
   11    10     1     0     0
SMALL
bcc


@<TRIPOS>ATOM
      1 CC1        -0.0080    0.0730    0.0410 c3        1 CRD     -0.080900
      2 CC2         1.3910   -0.3490    0.2420 c2        1 CRD     -0.092200
      3 CC3         2.2890    0.3540    0.9430 ce        1 CRD     -0.279200
      4 CC4         3.6730   -0.0990    1.1200 c         1 CRD      0.560100
      5 OC1         4.5100    0.5380    1.7640 o         1 CRD     -0.526100
      6 HC11       -0.2280    1.0470    0.5430 hc        1 CRD      0.052367
      7 HC12       -0.7030   -0.7020    0.4540 hc        1 CRD      0.052367
      8 HC13       -0.2200    0.1820   -1.0520 hc        1 CRD      0.052367
      9 HC2         1.6650   -1.3080   -0.2330 ha        1 CRD      0.122000
     10 HC3         2.0330    1.3120    1.4240 ha        1 CRD      0.149000
     11 HC4         3.9350   -1.0680    0.6350 h4        1 CRD     -0.009800
@<TRIPOS>BOND
     1    1    2 1   
     2    1    6 1   
     3    1    7 1   
     4    1    8 1   
     5    2    3 2   
     6    2    9 1   
     7    3    4 1   
     8    3   10 1   
     9    4    5 2   
    10    4   11 1   
@<TRIPOS>SUBSTRUCTURE
     1 CRD         1 TEMP              0 ****  ****    0 ROOT
