@<TRIPOS>MOLECULE
CRE
   39    39     1     0     0
SMALL
bcc


@<TRIPOS>ATOM
      1 C1         -0.0380   -0.0700    0.2830 c3        1 CRE     -0.061400
      2 C2          1.4470   -0.3690    0.1980 c3        1 CRE     -0.042200
      3 C3          2.2440   -0.1980    1.4450 c2        1 CRE     -0.097400
      4 C4          1.5980   -0.6700    2.6980 c3        1 CRE     -0.065900
      5 C5          3.4910    0.3020    1.4800 c2        1 CRE     -0.183200
      6 C6          4.3010    0.7920    0.3390 c3        1 CRE     -0.038200
      7 C7          4.1430    2.2920    0.1000 c3        1 CRE     -0.035200
      8 C8          2.8190    2.5760   -0.5310 c2        1 CRE     -0.136400
      9 C9          2.8300    2.8490   -1.9850 c3        1 CRE     -0.053900
     10 C10         1.7100    2.4690    0.2190 c2        1 CRE     -0.163200
     11 C11         0.3190    2.4130   -0.2770 c3        1 CRE     -0.037200
     12 C12        -0.5340    1.3700    0.4400 c3        1 CRE     -0.014500
     13 C13        -0.8800    1.7200    1.8570 c2        1 CRE     -0.109400
     14 C14        -1.8630    0.8130    2.5130 c3        1 CRE     -0.065900
     15 C15        -0.4370    2.8010    2.5060 c2        1 CRE     -0.230000
     16 H11        -0.4810   -0.4530   -0.6800 hc        1 CRE      0.036700
     17 H12A       -0.4780   -0.6920    1.1080 hc        1 CRE      0.036700
     18 H21         1.8930    0.2310   -0.6400 hc        1 CRE      0.049700
     19 H22         1.5410   -1.4550   -0.0980 hc        1 CRE      0.049700
     20 H41         1.1120   -1.6640    2.5370 hc        1 CRE      0.041700
     21 H42         0.8110    0.0630    3.0110 hc        1 CRE      0.041700
     22 H43         2.3370   -0.7700    3.5310 hc        1 CRE      0.041700
     23 H51         4.0090    0.3720    2.4540 ha        1 CRE      0.114000
     24 H61         5.3840    0.5810    0.5530 hc        1 CRE      0.042700
     25 H62         4.0390    0.2400   -0.6030 hc        1 CRE      0.042700
     26 H71         4.9750    2.6410   -0.5670 hc        1 CRE      0.045200
     27 H72         4.2390    2.8390    1.0740 hc        1 CRE      0.045200
     28 H91         3.6540    3.5610   -2.2430 hc        1 CRE      0.038700
     29 H92         3.0010    1.8970   -2.5490 hc        1 CRE      0.038700
     30 H93         1.8650    3.2950   -2.3290 hc        1 CRE      0.038700
     31 H10         1.8170    2.3080    1.3080 ha        1 CRE      0.135000
     32 H111        0.3060    2.1690   -1.3740 hc        1 CRE      0.047700
     33 H112       -0.1650    3.4210   -0.1550 hc        1 CRE      0.047700
     34 H12        -1.5340    1.3960   -0.1010 hc        1 CRE      0.044700
     35 H141       -2.5620    0.3690    1.7620 hc        1 CRE      0.040700
     36 H142       -2.4700    1.3660    3.2720 hc        1 CRE      0.040700
     37 H143       -1.3350   -0.0230    3.0370 hc        1 CRE      0.040700
     38 H151        0.2650    3.5260    2.0770 ha        1 CRE      0.115000
     39 H152       -0.7630    3.0320    3.5290 ha        1 CRE      0.115000
@<TRIPOS>BOND
     1    1    2 1   
     2    1   12 1   
     3    1   16 1   
     4    1   17 1   
     5    2    3 1   
     6    2   18 1   
     7    2   19 1   
     8    3    4 1   
     9    3    5 2   
    10    4   20 1   
    11    4   21 1   
    12    4   22 1   
    13    5    6 1   
    14    5   23 1   
    15    6    7 1   
    16    6   24 1   
    17    6   25 1   
    18    7    8 1   
    19    7   26 1   
    20    7   27 1   
    21    8    9 1   
    22    8   10 2   
    23    9   28 1   
    24    9   29 1   
    25    9   30 1   
    26   10   11 1   
    27   10   31 1   
    28   11   12 1   
    29   11   32 1   
    30   11   33 1   
    31   12   13 1   
    32   12   34 1   
    33   13   14 1   
    34   13   15 2   
    35   14   35 1   
    36   14   36 1   
    37   14   37 1   
    38   15   38 1   
    39   15   39 1   
@<TRIPOS>SUBSTRUCTURE
     1 CRE         1 TEMP              0 ****  ****    0 ROOT
