@<TRIPOS>MOLECULE
CRE
   39    39     1     0     0
SMALL
bcc


@<TRIPOS>ATOM
      1 C1          0.1950   -1.5210   -1.2880 c3        1 CRE     -0.061400
      2 C2         -0.6560   -1.5890   -0.0340 c3        1 CRE     -0.042200
      3 C3         -1.7340   -0.5710    0.1100 c2        1 CRE     -0.097400
      4 C4         -2.4960   -0.2550   -1.1270 c3        1 CRE     -0.065900
      5 C5         -2.0660    0.0180    1.2720 c2        1 CRE     -0.183200
      6 C6         -1.4440   -0.1910    2.6010 c3        1 CRE     -0.038200
      7 C7         -0.3160    0.7970    2.8910 c3        1 CRE     -0.035200
      8 C8          0.9010    0.4350    2.1040 c2        1 CRE     -0.136400
      9 C9          1.9810   -0.2510    2.8460 c3        1 CRE     -0.053900
     10 C10         0.9020    0.6540    0.7790 c2        1 CRE     -0.163200
     11 C11         1.8630    0.1040   -0.2000 c3        1 CRE     -0.037200
     12 C12         1.2000   -0.3830   -1.4850 c3        1 CRE     -0.014500
     13 C13         0.6800    0.7130   -2.3670 c2        1 CRE     -0.109400
     14 C14         0.2000    0.2750   -3.7080 c3        1 CRE     -0.065900
     15 C15         0.6990    2.0140   -2.0600 c2        1 CRE     -0.230000
     16 H11        -0.4860   -1.5560   -2.1800 hc        1 CRE      0.036700
     17 H12A        0.7930   -2.4760   -1.3020 hc        1 CRE      0.036700
     18 H21        -1.1650   -2.5970   -0.0430 hc        1 CRE      0.049700
     19 H22         0.0170   -1.5790    0.8660 hc        1 CRE      0.049700
     20 H41        -2.7520   -1.1930   -1.6790 hc        1 CRE      0.041700
     21 H42        -3.4460    0.2890   -0.8990 hc        1 CRE      0.041700
     22 H43        -1.8710    0.3920   -1.7960 hc        1 CRE      0.041700
     23 H51        -2.8950    0.7490    1.2800 ha        1 CRE      0.114000
     24 H61        -2.2350   -0.0650    3.3890 hc        1 CRE      0.042700
     25 H62        -1.0490   -1.2380    2.6970 hc        1 CRE      0.042700
     26 H71        -0.6540    1.8360    2.6360 hc        1 CRE      0.045200
     27 H72        -0.0910    0.7760    3.9900 hc        1 CRE      0.045200
     28 H91         2.9380   -0.2600    2.2690 hc        1 CRE      0.038700
     29 H92         2.1700    0.2600    3.8230 hc        1 CRE      0.038700
     30 H93         1.6850   -1.3100    3.0570 hc        1 CRE      0.038700
     31 H10         0.0620    1.2190    0.3320 ha        1 CRE      0.135000
     32 H111        2.4190   -0.7650    0.2470 hc        1 CRE      0.047700
     33 H112        2.6260    0.8880   -0.4610 hc        1 CRE      0.047700
     34 H12         2.0470   -0.8430   -2.0890 hc        1 CRE      0.044700
     35 H141        0.3450    1.0840   -4.4670 hc        1 CRE      0.040700
     36 H142        0.7520   -0.6330   -4.0540 hc        1 CRE      0.040700
     37 H143       -0.8910    0.0290   -3.6720 hc        1 CRE      0.040700
     38 H151        1.0630    2.4100   -1.1040 ha        1 CRE      0.115000
     39 H152        0.3470    2.7770   -2.7670 ha        1 CRE      0.115000
@<TRIPOS>BOND
     1    1    2 1   
     2    1   12 1   
     3    1   16 1   
     4    1   17 1   
     5    2    3 1   
     6    2   18 1   
     7    2   19 1   
     8    3    4 1   
     9    3    5 2   
    10    4   20 1   
    11    4   21 1   
    12    4   22 1   
    13    5    6 1   
    14    5   23 1   
    15    6    7 1   
    16    6   24 1   
    17    6   25 1   
    18    7    8 1   
    19    7   26 1   
    20    7   27 1   
    21    8    9 1   
    22    8   10 2   
    23    9   28 1   
    24    9   29 1   
    25    9   30 1   
    26   10   11 1   
    27   10   31 1   
    28   11   12 1   
    29   11   32 1   
    30   11   33 1   
    31   12   13 1   
    32   12   34 1   
    33   13   14 1   
    34   13   15 2   
    35   14   35 1   
    36   14   36 1   
    37   14   37 1   
    38   15   38 1   
    39   15   39 1   
@<TRIPOS>SUBSTRUCTURE
     1 CRE         1 TEMP              0 ****  ****    0 ROOT
