@<TRIPOS>MOLECULE
CRE
   39    36     1     0     0
SMALL
bcc


@<TRIPOS>ATOM
      1 C1         -0.8010    1.3600    0.0120 c3        1 CRE     -0.140000
      2 C2          0.7030    1.5050    0.0130 c3        1 CRE     -0.132000
      3 C3          1.1320    1.4670    1.4610 c2        1 CRE     -0.105000
      4 C4          2.2190    2.3970    1.9520 c3        1 CRE     -0.182000
      5 C5          0.4550    0.5210    2.4250 c1        1 CRE     -0.172000
      6 C6          0.7600   -0.9610    2.3710 c2        1 CRE     -0.121000
      7 C7         -0.5710   -1.6570    2.1900 c3        1 CRE     -0.124000
      8 C8         -0.5860   -2.2000    0.7750 c2        1 CRE     -0.108000
      9 C9         -0.8130   -3.6770    0.5340 c3        1 CRE     -0.184000
     10 C10        -0.4050   -1.2600   -0.3980 c1        1 CRE     -0.166000
     11 C11        -1.6160   -0.6730   -1.0910 c2        1 CRE     -0.115000
     12 C12        -1.2950    0.8040   -1.3250 c3        1 CRE     -0.061000
     13 C13        -0.2910    1.0290   -2.4840 c2        1 CRE     -0.090000
     14 C14         0.1960   -0.1470   -3.3030 c3        1 CRE     -0.182000
     15 C15         0.1490    2.2750   -2.7640 c1        1 CRE     -0.238000
     16 H11        -1.0660    0.7510    0.7320 hc        1 CRE      0.079000
     17 H12A       -1.2080    2.2350    0.1660 hc        1 CRE      0.079000
     18 H21         0.9560    2.2660   -0.5480 hc        1 CRE      0.094000
     19 H22         1.1620    0.7710   -0.4480 hc        1 CRE      0.094000
     20 H41         2.3760    2.2410    2.9060 hc        1 CRE      0.079667
     21 H42         3.0470    2.2270    1.4520 hc        1 CRE      0.079667
     22 H43         1.9400    3.3280    1.8150 hc        1 CRE      0.079667
     23 H51        -0.1530    0.8690    3.1060 ha        1 CRE      0.116000
     24 H61         1.4110   -1.3250    1.7390 ha        1 CRE      0.084500
     25 H62         1.1890   -1.1790    3.2210 ha        1 CRE      0.084500
     26 H71        -1.3270   -1.0700    2.3870 hc        1 CRE      0.090000
     27 H72        -0.7020   -2.3700    2.8460 hc        1 CRE      0.090000
     28 H91        -1.7720   -3.8780    0.6090 hc        1 CRE      0.079667
     29 H92        -0.5000   -3.9130   -0.3640 hc        1 CRE      0.079667
     30 H93        -0.3170   -4.1970    1.2000 hc        1 CRE      0.079667
     31 H10         0.4900   -1.0880   -0.7520 ha        1 CRE      0.115000
     32 H111       -2.4550   -0.9100   -0.6510 ha        1 CRE      0.082500
     33 H112       -1.7480   -1.0840   -1.9670 ha        1 CRE      0.082500
     34 H12        -2.0770    1.2930   -1.6490 hc        1 CRE      0.082000
     35 H141       -0.5740   -0.6620   -3.6260 hc        1 CRE      0.082667
     36 H142        0.7630   -0.7220   -2.7460 hc        1 CRE      0.082667
     37 H143        0.7140    0.1790   -4.0670 hc        1 CRE      0.082667
     38 H151       -0.1660    3.0360   -2.2340 DU        1 CRE      0.109000
     39 H152        0.7820    2.4170   -3.4940 ha        1 CRE      0.112000
@<TRIPOS>BOND
     1    1    2 1   
     2    1   12 1   
     3    1   16 1   
     4    1   17 1   
     5    2    3 1   
     6    2   18 1   
     7    2   19 1   
     8    3    4 1   
     9    3    5 1   
    10    4   20 1   
    11    4   21 1   
    12    4   22 1   
    13    5   23 1   
    14    6    7 1   
    15    6   24 1   
    16    6   25 1   
    17    7    8 1   
    18    7   26 1   
    19    7   27 1   
    20    8    9 1   
    21    8   10 1   
    22    9   28 1   
    23    9   29 1   
    24    9   30 1   
    25   10   31 1   
    26   11   12 1   
    27   11   32 1   
    28   11   33 1   
    29   12   13 1   
    30   12   34 1   
    31   13   14 1   
    32   13   15 1   
    33   14   35 1   
    34   14   36 1   
    35   14   37 1   
    36   15   39 1   
@<TRIPOS>SUBSTRUCTURE
     1 CRE         1 TEMP              0 ****  ****    0 ROOT
