@<TRIPOS>MOLECULE
CRE
   39    39     1     0     0
SMALL
bcc


@<TRIPOS>ATOM
      1 C1         -0.0410   -0.0640    0.2890 c3        1 CRE     -0.061400
      2 C2          1.4430   -0.3650    0.1860 c3        1 CRE     -0.042200
      3 C3          2.2540   -0.2010    1.4250 c2        1 CRE     -0.097400
      4 C4          1.6210   -0.6770    2.6830 c3        1 CRE     -0.065900
      5 C5          3.5020    0.2970    1.4490 c2        1 CRE     -0.183200
      6 C6          4.3000    0.7920    0.3020 c3        1 CRE     -0.038200
      7 C7          4.1420    2.2930    0.0700 c3        1 CRE     -0.035200
      8 C8          2.8110    2.5820   -0.5440 c2        1 CRE     -0.136400
      9 C9          2.8070    2.8610   -1.9970 c3        1 CRE     -0.053900
     10 C10         1.7110    2.4730    0.2170 c2        1 CRE     -0.163200
     11 C11         0.3140    2.4210   -0.2630 c3        1 CRE     -0.037200
     12 C12        -0.5320    1.3760    0.4580 c3        1 CRE     -0.014500
     13 C13        -0.8620    1.7200    1.8800 c2        1 CRE     -0.109400
     14 C14        -1.8400    0.8110    2.5430 c3        1 CRE     -0.065900
     15 C15        -0.4100    2.7980    2.5290 c2        1 CRE     -0.230000
     16 H11        -0.4730   -0.6890    1.1150 hc        1 CRE      0.036700
     17 H12A       -0.4950   -0.4420   -0.6710 hc        1 CRE      0.036700
     18 H21         1.8810    0.2380   -0.6540 hc        1 CRE      0.049700
     19 H22         1.5320   -1.4490   -0.1150 hc        1 CRE      0.049700
     20 H41         1.1320   -1.6690    2.5230 hc        1 CRE      0.041700
     21 H42         2.3690   -0.7820    3.5070 hc        1 CRE      0.041700
     22 H43         0.8390    0.0560    3.0090 hc        1 CRE      0.041700
     23 H51         4.0310    0.3620    2.4170 ha        1 CRE      0.114000
     24 H61         5.3850    0.5790    0.5020 hc        1 CRE      0.042700
     25 H62         4.0270    0.2450   -0.6400 hc        1 CRE      0.042700
     26 H71         4.2490    2.8350    1.0460 hc        1 CRE      0.045200
     27 H72         4.9670    2.6440   -0.6030 hc        1 CRE      0.045200
     28 H91         1.8390    3.3090   -2.3290 hc        1 CRE      0.038700
     29 H92         3.6270    3.5750   -2.2600 hc        1 CRE      0.038700
     30 H93         2.9730    1.9130   -2.5680 hc        1 CRE      0.038700
     31 H10         1.8290    2.3070    1.3050 ha        1 CRE      0.135000
     32 H111       -0.1680    3.4290   -0.1320 hc        1 CRE      0.047700
     33 H112        0.2880    2.1820   -1.3610 hc        1 CRE      0.047700
     34 H12        -1.5390    1.4060   -0.0720 hc        1 CRE      0.044700
     35 H141       -1.3070   -0.0280    3.0570 hc        1 CRE      0.040700
     36 H142       -2.4370    1.3610    3.3120 hc        1 CRE      0.040700
     37 H143       -2.5480    0.3720    1.7980 hc        1 CRE      0.040700
     38 H151        0.2880    3.5240    2.0960 ha        1 CRE      0.115000
     39 H152       -0.7250    3.0240    3.5570 ha        1 CRE      0.115000
@<TRIPOS>BOND
     1    1    2 1   
     2    1   12 1   
     3    1   16 1   
     4    1   17 1   
     5    2    3 1   
     6    2   18 1   
     7    2   19 1   
     8    3    4 1   
     9    3    5 2   
    10    4   20 1   
    11    4   21 1   
    12    4   22 1   
    13    5    6 1   
    14    5   23 1   
    15    6    7 1   
    16    6   24 1   
    17    6   25 1   
    18    7    8 1   
    19    7   26 1   
    20    7   27 1   
    21    8    9 1   
    22    8   10 2   
    23    9   28 1   
    24    9   29 1   
    25    9   30 1   
    26   10   11 1   
    27   10   31 1   
    28   11   12 1   
    29   11   32 1   
    30   11   33 1   
    31   12   13 1   
    32   12   34 1   
    33   13   14 1   
    34   13   15 2   
    35   14   35 1   
    36   14   36 1   
    37   14   37 1   
    38   15   38 1   
    39   15   39 1   
@<TRIPOS>SUBSTRUCTURE
     1 CRE         1 TEMP              0 ****  ****    0 ROOT
