@<TRIPOS>MOLECULE
CRF
   42    44     1     0     0
SMALL
bcc


@<TRIPOS>ATOM
      1 N1          2.2150    2.5810   -1.6880 n3        1 CRF     -0.895800
      2 CA1         2.6770    1.5540   -0.7810 c3        1 CRF      0.100200
      3 CB1         3.0550    2.0960    0.6290 c3        1 CRF      0.144100
      4 CG1         4.4630    2.6580    0.5970 c3        1 CRF     -0.138100
      5 OG1         2.1180    3.0460    1.1100 oh        1 CRF     -0.605800
      6 C1          1.6700    0.4170   -0.5940 cc        1 CRF      0.453900
      7 N2          0.3530    0.6170   -0.4570 nd        1 CRF     -0.664300
      8 N3          2.0480   -0.9490   -0.5870 n         1 CRF     -0.380300
      9 C2          0.8670   -1.7080   -0.3880 c         1 CRF      0.668700
     10 O2          0.7750   -2.9400   -0.3310 o         1 CRF     -0.614500
     11 CA2        -0.2430   -0.6690   -0.3050 cd        1 CRF      0.005400
     12 CA3         3.3700   -1.4990   -0.6640 c3        1 CRF     -0.036000
     13 C3          4.4630   -0.7600    0.1630 c         1 CRF      0.897600
     14 O3          4.3370   -0.6960    1.4140 o         1 CRF     -0.823800
     15 CB2        -1.5380   -0.9950   -0.1120 ce        1 CRF     -0.023000
     16 CG2        -2.6330   -0.0880    0.0090 cc        1 CRF     -0.109200
     17 CD1        -2.5920    1.3070    0.1360 cd        1 CRF     -0.047100
     18 CD2        -4.0350   -0.4700    0.0450 ca        1 CRF     -0.075800
     19 CE2        -4.7920    0.7540    0.1930 ca        1 CRF     -0.055200
     20 NE1        -3.8860    1.8180    0.2370 na        1 CRF     -0.200400
     21 CE3        -4.7130   -1.6860   -0.0320 ca        1 CRF     -0.083000
     22 CZ2        -6.1920    0.7360    0.2600 ca        1 CRF     -0.149000
     23 CZ3        -6.1000   -1.6890    0.0370 ca        1 CRF     -0.164000
     24 CH2        -6.8270   -0.4950    0.1810 ca        1 CRF     -0.125000
     25 HN11        1.9560    2.1730   -2.5660 hn        1 CRF      0.347800
     26 HN12        1.4170    3.0540   -1.3070 hn        1 CRF      0.347800
     27 HA1         3.6280    1.1080   -1.2220 h1        1 CRF      0.131700
     28 HB1         3.0040    1.2370    1.3650 h1        1 CRF      0.129700
     29 HG11        4.5700    3.4280   -0.2030 hc        1 CRF      0.055033
     30 HG12        4.7030    3.1230    1.5830 hc        1 CRF      0.055033
     31 HG13        5.1810    1.8150    0.4050 hc        1 CRF      0.055033
     32 HOG         2.3120    3.8860    0.6760 ho        1 CRF      0.385000
     33 HA31        3.3190   -2.5610   -0.2940 h1        1 CRF      0.049200
     34 HA32        3.6870   -1.5040   -1.7460 h1        1 CRF      0.049200
     35 OXT         5.4250   -0.2730   -0.4960 o         1 CRF     -0.823800
     36 HB2        -1.7900   -2.0700   -0.0360 ha        1 CRF      0.141000
     37 HD1        -1.7220    1.9720    0.1660 h4        1 CRF      0.203000
     38 HE1        -4.1240    2.7620    0.3800 hn        1 CRF      0.293700
     39 HE3        -4.1500   -2.6240   -0.1440 ha        1 CRF      0.138000
     40 HZ2        -6.7660    1.6650    0.3730 ha        1 CRF      0.123000
     41 HZ3        -6.6460   -2.6420   -0.0220 ha        1 CRF      0.122000
     42 HH2        -7.9250   -0.5400    0.2320 ha        1 CRF      0.119000
@<TRIPOS>BOND
     1    1    2 1   
     2    1   25 1   
     3    1   26 1   
     4    2    3 1   
     5    2    6 1   
     6    2   27 1   
     7    3    4 1   
     8    3    5 1   
     9    3   28 1   
    10    4   29 1   
    11    4   30 1   
    12    4   31 1   
    13    5   32 1   
    14    6    7 2   
    15    6    8 1   
    16    7   11 1   
    17    8    9 1   
    18    8   12 1   
    19    9   10 2   
    20    9   11 1   
    21   11   15 2   
    22   12   13 1   
    23   12   33 1   
    24   12   34 1   
    25   13   14 1   
    26   13   35 1   
    27   15   16 1   
    28   15   36 1   
    29   16   17 2   
    30   16   18 1   
    31   17   20 1   
    32   17   37 1   
    33   18   19 ar  
    34   18   21 ar  
    35   19   20 1   
    36   19   22 ar  
    37   20   38 1   
    38   21   23 ar  
    39   21   39 1   
    40   22   24 ar  
    41   22   40 1   
    42   23   24 ar  
    43   23   41 1   
    44   24   42 1   
@<TRIPOS>SUBSTRUCTURE
     1 CRF         1 TEMP              0 ****  ****    0 ROOT
