@<TRIPOS>MOLECULE
CRF
   42    36     1     0     0
SMALL
bcc


@<TRIPOS>ATOM
      1 N1         -3.0820    3.1730   -0.2190 n3        1 CRF     -0.323000
      2 CA1        -1.6640    3.1140   -0.0510 c3        1 CRF     -0.019000
      3 CB1        -1.3350    3.0440    1.4090 c3        1 CRF      0.025000
      4 CG1        -1.3510    4.4560    2.0050 c3        1 CRF     -0.210000
      5 OG1        -2.2930    2.2370    2.0740 oh        1 CRF     -0.347000
      6 C1         -1.1280    1.8880   -0.7460 c2        1 CRF      0.065000
      7 N2         -1.6550    0.7100   -0.4980 n1        1 CRF     -0.243000
      8 N3          0.2080    1.8380   -1.1340 n         1 CRF     -0.261000
      9 C2          0.5330    0.3520   -1.1240 c2        1 CRF      0.318000
     10 O2          1.4360   -0.1900   -1.7470 o         1 CRF     -0.361000
     11 CA2        -0.8020   -0.3200   -0.6830 c1        1 CRF     -0.121000
     12 CA3         0.9340    2.8730   -1.8670 c3        1 CRF     -0.109000
     13 C3          2.4210    2.6350   -1.7330 c2        1 CRF      0.317000
     14 O3          2.8850    1.4740   -1.8600 o         1 CRF     -0.556500
     15 CB2        -1.0480   -1.6550   -0.5240 c1        1 CRF     -0.006000
     16 CG2         0.0700   -2.6780   -0.7900 c1        1 CRF     -0.140000
     17 CD1         0.6750   -3.0290   -1.9840 c1        1 CRF     -0.015000
     18 CD2         0.5660   -3.5040    0.1960 c1        1 CRF     -0.062000
     19 CE2         1.4740   -4.3620   -0.3860 c1        1 CRF     -0.011000
     20 NE1         1.5390   -4.0660   -1.7330 n1        1 CRF     -0.219000
     21 CE3         0.2880   -3.6030    1.5800 c1        1 CRF     -0.086000
     22 CZ2         2.1300   -5.3430    0.4020 c1        1 CRF     -0.147000
     23 CZ3         0.9360   -4.5700    2.3540 c1        1 CRF     -0.144000
     24 CH2         1.8580   -5.4400    1.7590 c1        1 CRF     -0.144000
     25 HN11       -3.3390    4.0360   -0.3120 hn        1 CRF      0.146000
     26 HN12       -3.3120    2.7170   -0.9420 hn        1 CRF      0.146000
     27 HA1        -1.2470    3.9340   -0.4480 h1        1 CRF      0.169000
     28 HB1        -0.4290    2.6450    1.5240 h1        1 CRF      0.141000
     29 HG11       -2.2620    4.6740    2.3070 hc        1 CRF      0.089667
     30 HG12       -0.7430    4.4960    2.7580 hc        1 CRF      0.089667
     31 HG13       -1.0680    5.1030    1.3220 hc        1 CRF      0.089667
     32 HOG        -1.9240    1.8950    2.8420 ho        1 CRF      0.203000
     33 HA31        0.6840    2.8410   -2.8120 h1        1 CRF      0.091000
     34 HA32        0.7120    3.7450   -1.5010 h1        1 CRF      0.091000
     35 OXT         3.2090    3.6180   -1.5840 o         1 CRF     -0.556500
     36 HB2        -1.9440   -1.9620   -0.2420 ha        1 CRF      0.135000
     37 HD1         0.5510   -2.5790   -2.8470 DU        1 CRF      0.231500
     38 HE1         2.0790   -4.4970   -2.3630 DU        1 CRF      0.231500
     39 HE3        -0.3930   -2.9940    2.0020 ha        1 CRF      0.136000
     40 HZ2         2.7710   -5.9490   -0.0120 ha        1 CRF      0.124000
     41 HZ3         0.7470   -4.6380    3.3050 ha        1 CRF      0.121000
     42 HH2         2.3130   -6.1200    2.3040 ha        1 CRF      0.121000
@<TRIPOS>BOND
     1    1    2 1   
     2    1   25 1   
     3    1   26 1   
     4    2    3 1   
     5    2    6 1   
     6    2   27 1   
     7    3    4 1   
     8    3    5 1   
     9    3   28 1   
    10    4   29 1   
    11    4   30 1   
    12    4   31 1   
    13    5   32 1   
    14    6    7 1   
    15    6    8 1   
    16    8    9 1   
    17    8   12 1   
    18    9   10 1   
    19    9   11 1   
    20   11   15 1   
    21   12   13 1   
    22   12   33 1   
    23   12   34 1   
    24   13   14 1   
    25   13   35 1   
    26   15   36 1   
    27   16   17 1   
    28   16   18 1   
    29   17   20 1   
    30   18   21 1   
    31   19   22 1   
    32   21   39 1   
    33   22   40 1   
    34   23   24 1   
    35   23   41 1   
    36   24   42 1   
@<TRIPOS>SUBSTRUCTURE
     1 CRF         1 TEMP              0 ****  ****    0 ROOT
