@<TRIPOS>MOLECULE
CRG
   35    31     1     0     0
SMALL
bcc


@<TRIPOS>ATOM
      1 N1         -1.6600    1.2090    2.8800 n3        1 CRG     -0.904800
      2 CA1        -1.1020    1.6080    1.6370 c3        1 CRG      0.214700
      3 CB1         0.0700    2.5400    1.8960 c3        1 CRG      0.154100
      4 CG1        -0.4380    3.9580    1.9860 c3        1 CRG     -0.088100
      5 OG1         0.6970    2.1810    3.1170 oh        1 CRG     -0.613800
      6 C1         -0.6300    0.3970    0.8870 c2        1 CRG      0.072400
      7 N2          0.6720    0.1340    0.7930 n1        1 CRG     -0.240000
      8 N3         -1.3990   -0.1190   -0.1810 n         1 CRG     -0.364000
      9 C2         -0.3580   -0.8340   -1.0720 c         1 CRG      0.590300
     10 O2         -0.5900   -1.7230   -1.8620 o         1 CRG     -0.592100
     11 CA2         1.0120   -0.6050   -0.3090 cg        1 CRG     -0.079200
     12 CA3        -2.8390   -0.3790   -0.1580 c3        1 CRG     -0.054000
     13 C3         -3.1060   -1.8780   -0.5350 c         1 CRG      0.905600
     14 O3         -2.6650   -2.3310   -1.5720 o         1 CRG     -0.827800
     15 CB2         2.2310   -1.0420   -0.6620 c1        1 CRG      0.054500
     16 CG2         2.4130   -1.8700   -1.9530 cg        1 CRG     -0.055000
     17 CD2         3.0170   -3.1170   -2.0450 ch        1 CRG     -0.055000
     18 CE1         2.5170   -2.4390   -4.0820 c1        1 CRG      0.317800
     19 ND1         2.1100   -1.4610   -3.2010 ne        1 CRG     -0.448900
     20 NE2         3.0760   -3.4570   -3.3580 nf        1 CRG     -0.448900
     21 OXT        -3.7410   -2.6010    0.2290 o         1 CRG     -0.827800
     22 HN11       -1.3120    1.6880    3.5180 hn        1 CRG      0.380300
     23 HN12       -2.6160    1.3440    2.8620 hn        1 CRG      0.380300
     24 HA1        -1.7830    2.0770    1.1080 h1        1 CRG      0.100700
     25 HB1         0.7380    2.4660    1.1380 h1        1 CRG      0.026700
     26 HG11       -1.0230    4.1390    1.2270 hc        1 CRG      0.042033
     27 HG12       -0.9200    4.0690    2.7890 hc        1 CRG      0.042033
     28 HG13        0.2970    4.5630    1.9730 hc        1 CRG      0.042033
     29 HG1O        1.5010    2.6140    3.1890 ho        1 CRG      0.419000
     30 HA31       -3.1860   -0.2020    0.7300 h1        1 CRG      0.055700
     31 HA32       -3.2760    0.1930   -0.7930 h1        1 CRG      0.055700
     32 HB2         3.0260   -0.8310   -0.0860 ha        1 CRG      0.093500
     33 HD2         3.3350   -3.6410   -1.3160 DU        1 CRG      0.217333
     34 HE1         2.4850   -2.3800   -5.0580 DU        1 CRG      0.217333
     35 HE2         3.4460   -4.2700   -3.7170 DU        1 CRG      0.217333
@<TRIPOS>BOND
     1    1    2 1   
     2    1   22 1   
     3    1   23 1   
     4    2    3 1   
     5    2    6 1   
     6    2   24 1   
     7    3    4 1   
     8    3    5 1   
     9    3   25 1   
    10    4   26 1   
    11    4   27 1   
    12    4   28 1   
    13    5   29 1   
    14    6    7 2   
    15    6    8 1   
    16    8    9 1   
    17    8   12 1   
    18    9   10 2   
    19    9   11 1   
    20   11   15 3   
    21   12   13 1   
    22   12   30 1   
    23   12   31 1   
    24   13   14 1   
    25   13   21 1   
    26   15   32 1   
    27   16   17 3   
    28   16   19 1   
    29   17   20 1   
    30   18   19 2   
    31   18   20 2   
@<TRIPOS>SUBSTRUCTURE
     1 CRG         1 TEMP              0 ****  ****    0 ROOT
