@<TRIPOS>MOLECULE
CRG
   35    36     1     0     0
SMALL
bcc


@<TRIPOS>ATOM
      1 N1         -0.9810   -2.5810   -1.8340 n3        1 CRG     -0.883800
      2 CA1        -1.5320   -1.6620   -0.8550 c3        1 CRG      0.091200
      3 CB1        -1.7450   -2.2500    0.5730 c3        1 CRG      0.100100
      4 CG1        -3.0290   -3.0550    0.6180 c3        1 CRG     -0.099100
      5 OG1        -0.6810   -3.1240    0.9290 oh        1 CRG     -0.628800
      6 C1         -0.6620   -0.4220   -0.7110 cc        1 CRG      0.490900
      7 N2          0.6500   -0.4560   -0.4450 nd        1 CRG     -0.629300
      8 N3         -1.1990    0.8880   -0.8570 n         1 CRG     -0.373300
      9 C2         -0.1420    1.7920   -0.5850 c         1 CRG      0.663700
     10 O2         -0.1910    3.0270   -0.6020 o         1 CRG     -0.610500
     11 CA2         1.0780    0.8980   -0.3470 cd        1 CRG      0.054400
     12 CA3        -2.5950    1.2300   -0.8460 c3        1 CRG     -0.043000
     13 C3         -3.4570    0.4850    0.2180 c         1 CRG      0.894600
     14 O3         -3.1270    0.5730    1.4310 o         1 CRG     -0.825300
     15 CB2         2.2950    1.4100   -0.0900 ce        1 CRG     -0.162800
     16 CG2         3.5140    0.6850    0.1410 cc        1 CRG      0.374100
     17 CD2         4.7120    1.2810    0.6120 cd        1 CRG     -0.262600
     18 CE1         5.0050   -0.9190    0.2970 cd        1 CRG      0.367400
     19 ND1         3.7230   -0.6920   -0.0500 nc        1 CRG     -0.608000
     20 NE2         5.6500    0.2570    0.7090 na        1 CRG     -0.330900
     21 OXT        -4.4430   -0.1700   -0.2220 o         1 CRG     -0.825300
     22 HN11       -0.0480   -2.8470   -1.5720 hn        1 CRG      0.348800
     23 HN12       -1.5470   -3.4100   -1.8350 hn        1 CRG      0.348800
     24 HA1        -2.5570   -1.3420   -1.2300 h1        1 CRG      0.127700
     25 HB1        -1.8210   -1.3950    1.3070 h1        1 CRG      0.099700
     26 HG11       -3.1360   -3.5360    1.6190 hc        1 CRG      0.049367
     27 HG12       -3.8880   -2.3540    0.4470 hc        1 CRG      0.049367
     28 HG13       -3.0310   -3.8550   -0.1600 hc        1 CRG      0.049367
     29 HG1O        0.1110   -2.5790    1.0160 ho        1 CRG      0.413000
     30 HA31       -2.6770    2.3340   -0.6470 h1        1 CRG      0.053700
     31 HA32       -3.0130    1.0070   -1.8670 h1        1 CRG      0.053700
     32 HB2         2.3900    2.5110   -0.0370 ha        1 CRG      0.138000
     33 HD2         4.9340    2.3120    0.8730 h4        1 CRG      0.173000
     34 HE1         5.5070   -1.8900    0.2730 h5        1 CRG      0.052100
     35 HE2         6.5770    0.3440    1.0210 hn        1 CRG      0.290700
@<TRIPOS>BOND
     1    1    2 1   
     2    1   22 1   
     3    1   23 1   
     4    2    3 1   
     5    2    6 1   
     6    2   24 1   
     7    3    4 1   
     8    3    5 1   
     9    3   25 1   
    10    4   26 1   
    11    4   27 1   
    12    4   28 1   
    13    5   29 1   
    14    6    7 2   
    15    6    8 1   
    16    7   11 1   
    17    8    9 1   
    18    8   12 1   
    19    9   10 2   
    20    9   11 1   
    21   11   15 2   
    22   12   13 1   
    23   12   30 1   
    24   12   31 1   
    25   13   14 1   
    26   13   21 1   
    27   15   16 1   
    28   15   32 1   
    29   16   17 2   
    30   16   19 1   
    31   17   20 1   
    32   17   33 1   
    33   18   19 2   
    34   18   20 1   
    35   18   34 1   
    36   20   35 1   
@<TRIPOS>SUBSTRUCTURE
     1 CRG         1 TEMP              0 ****  ****    0 ROOT
