@<TRIPOS>MOLECULE
CRH
   52    49     1     0     0
SMALL
bcc


@<TRIPOS>ATOM
      1 C1         -1.1620    0.7850   -1.7840 c1        1 CRH      0.293000
      2 C2          0.2920    0.8240   -1.7810 c2        1 CRH     -0.199000
      3 C3          0.8750    0.6750   -0.3950 c3        1 CRH     -0.081000
      4 C4          0.4420   -0.4640    0.3850 c3        1 CRH     -0.133000
      5 C5         -3.6800   -2.9740    1.9170 c1        1 CRH     -0.171000
      6 C6         -5.0570   -3.2440    1.8260 c1        1 CRH     -0.069000
      7 C7         -5.8460   -2.5900    0.8490 c1        1 CRH     -0.122000
      8 C8         -5.2570   -1.6730   -0.0280 c1        1 CRH      0.128000
      9 C9         -3.2490   -0.4740   -0.8520 c1        1 CRH      0.208000
     10 C10        -1.6640   -1.7900    1.1120 c1        1 CRH     -0.173000
     11 C11        -3.0800   -2.0460    1.0310 c1        1 CRH      0.040000
     12 C12        -3.8600   -1.3960    0.0620 c1        1 CRH     -0.135000
     13 C13        -1.8870   -0.2230   -0.7780 c2        1 CRH     -0.266000
     14 C14        -1.0710   -0.9020    0.2330 c2        1 CRH      0.008000
     15 C15        -7.2890   -3.0310    1.0240 c3        1 CRH     -0.165000
     16 O1         -1.7810    1.2740   -2.7000 o         1 CRH     -0.352000
     17 O8         -6.2460   -1.3610   -0.9980 oh        1 CRH     -0.254000
     18 O9         -4.1050    0.1890   -1.7470 oh        1 CRH     -0.283000
     19 C1'         2.4930    0.5930   -0.5390 c3        1 CRH     -0.012000
     20 C2'         3.1140    1.4530    0.4790 c2        1 CRH      0.171000
     21 C3'         3.9480    2.6560    0.0550 c3        1 CRH     -0.055000
     22 C4'         5.3750    2.4940    0.5790 c3        1 CRH      0.008000
     23 C1M         3.9000   -1.1210   -1.3100 c3        1 CRH     -0.084000
     24 C4M         6.2460    3.6650    0.0780 c3        1 CRH     -0.249000
     25 O1'         2.9100   -0.7050   -0.3630 os        1 CRH     -0.255000
     26 O2'         2.9820    1.1900    1.6560 o         1 CRH     -0.254000
     27 O3'         3.3900    3.8190    0.5770 oh        1 CRH     -0.312000
     28 O4'         5.3620    2.4900    1.9570 oh        1 CRH     -0.318000
     29 H21         0.5530    1.5980   -2.2630 ha        1 CRH      0.123000
     30 H22         0.6910    0.1090   -2.3490 ha        1 CRH      0.123000
     31 H3          0.6590    1.4840    0.1090 hc        1 CRH      0.103000
     32 H41         0.6070   -0.2590    1.3430 hc        1 CRH      0.118000
     33 H42         0.9940   -1.2180    0.1390 hc        1 CRH      0.118000
     34 H5         -3.1380   -3.4240    2.5890 ha        1 CRH      0.140000
     35 H6         -5.4670   -3.8810    2.4330 ha        1 CRH      0.138000
     36 H10        -1.1280   -2.1830    1.8640 ha        1 CRH      0.144000
     37 H151       -7.5080   -3.7150    0.3480 hc        1 CRH      0.086667
     38 H152       -7.4120   -3.4180    1.9450 hc        1 CRH      0.086667
     39 H153       -7.8910   -2.2460    0.9100 hc        1 CRH      0.086667
     40 HO8        -6.1550   -1.9090   -1.7070 ho        1 CRH      0.242000
     41 HO9        -4.4360    0.9100   -1.3580 ho        1 CRH      0.276000
     42 H1'         2.7600    0.9020   -1.4350 h1        1 CRH      0.094000
     43 H3'         3.9630    2.7110   -0.8900 h1        1 CRH      0.137000
     44 H4'         5.7450    1.6520    0.2570 h1        1 CRH      0.113000
     45 H1'1        3.8530   -0.5310   -2.1200 h1        1 CRH      0.082333
     46 H1'2        4.8060   -1.0490   -0.8980 h1        1 CRH      0.082333
     47 H1'3        3.7370   -2.0240   -1.5650 h1        1 CRH      0.082333
     48 H4'1        5.9830    4.4810    0.5310 hc        1 CRH      0.089333
     49 H4'2        6.1280    3.7720   -0.8650 hc        1 CRH      0.089333
     50 H4'3        7.1580    3.4810    0.2630 hc        1 CRH      0.089333
     51 HO3         3.2050    4.3970   -0.1030 ho        1 CRH      0.228000
     52 HO4         6.2010    2.2480    2.2740 ho        1 CRH      0.216000
@<TRIPOS>BOND
     1    1   13 1   
     2    1   16 1   
     3    2    3 1   
     4    2   29 1   
     5    2   30 1   
     6    3    4 1   
     7    3   19 1   
     8    3   31 1   
     9    4   14 1   
    10    4   32 1   
    11    4   33 1   
    12    5   11 1   
    13    5   34 1   
    14    6    7 1   
    15    6   35 1   
    16    7   15 1   
    17    8   12 1   
    18    8   17 1   
    19    9   13 1   
    20    9   18 1   
    21   10   14 1   
    22   10   36 1   
    23   11   12 1   
    24   13   14 1   
    25   15   37 1   
    26   15   38 1   
    27   15   39 1   
    28   17   40 1   
    29   18   41 1   
    30   19   20 1   
    31   19   25 1   
    32   19   42 1   
    33   20   21 1   
    34   20   26 1   
    35   21   22 1   
    36   21   27 1   
    37   21   43 1   
    38   22   24 1   
    39   22   28 1   
    40   22   44 1   
    41   23   25 1   
    42   23   45 1   
    43   23   46 1   
    44   23   47 1   
    45   24   48 1   
    46   24   49 1   
    47   24   50 1   
    48   27   51 1   
    49   28   52 1   
@<TRIPOS>SUBSTRUCTURE
     1 CRH         1 TEMP              0 ****  ****    0 ROOT
