@<TRIPOS>MOLECULE
CRH
   52    54     1     0     0
SMALL
bcc


@<TRIPOS>ATOM
      1 C1         -1.5850   -0.0170   -0.2140 c         1 CRH      0.605700
      2 C2         -1.0590    0.1170    1.1900 c3        1 CRH     -0.178400
      3 C3          0.4050   -0.2510    1.3050 c3        1 CRH     -0.050700
      4 C4          1.2140    0.5690    0.3160 c3        1 CRH     -0.040100
      5 C5          2.1550    0.4940   -4.5130 ca        1 CRH     -0.172000
      6 C6          1.7680    0.3660   -5.8270 ca        1 CRH     -0.069000
      7 C7          0.4190    0.1450   -6.1660 ca        1 CRH     -0.128300
      8 C8         -0.5340    0.0430   -5.1460 ca        1 CRH      0.174100
      9 C9         -1.0670   -0.0220   -2.6660 ca        1 CRH      0.254100
     10 C10         1.6170    0.5120   -2.1130 ca        1 CRH     -0.171000
     11 C11         1.2060    0.3840   -3.4690 ca        1 CRH      0.039000
     12 C12        -0.1580    0.1370   -3.7720 ca        1 CRH     -0.134000
     13 C13        -0.6530    0.1160   -1.3380 ca        1 CRH     -0.285600
     14 C14         0.7260    0.3920   -1.0790 ca        1 CRH     -0.001300
     15 C15         0.0180    0.0110   -7.5850 c3        1 CRH     -0.040800
     16 O1         -2.8050   -0.2100   -0.3720 o         1 CRH     -0.585100
     17 O8         -1.8160   -0.1960   -5.5750 oh        1 CRH     -0.499100
     18 O9         -2.3450   -0.3170   -3.0390 oh        1 CRH     -0.528100
     19 C1'         0.9160   -0.0090    2.7340 c3        1 CRH      0.053100
     20 C2'         0.1280   -0.8380    3.7350 c         1 CRH      0.507100
     21 C3'        -0.9060   -0.0800    4.5510 c3        1 CRH      0.005100
     22 C4'        -0.2210    0.7630    5.6520 c3        1 CRH      0.118100
     23 C4M        -0.7390    2.1880    5.6420 c3        1 CRH     -0.130100
     24 O1'         2.2920   -0.3840    2.7230 os        1 CRH     -0.396600
     25 O2'         0.3010   -2.0460    3.8980 o         1 CRH     -0.486100
     26 O3'        -1.8450   -0.9580    5.1380 oh        1 CRH     -0.585800
     27 O4'        -0.4150    0.1500    6.9110 oh        1 CRH     -0.591800
     28 H21        -1.6790   -0.5320    1.8670 hc        1 CRH      0.077700
     29 H22        -1.2170    1.1850    1.5050 hc        1 CRH      0.077700
     30 H3          0.5410   -1.3450    1.0750 hc        1 CRH      0.093700
     31 H41         1.1490    1.6590    0.5860 hc        1 CRH      0.067700
     32 H42         2.2950    0.2700    0.3920 hc        1 CRH      0.067700
     33 H5          3.2080    0.6810   -4.2540 ha        1 CRH      0.139000
     34 H6          2.5120    0.4440   -6.6360 ha        1 CRH      0.138000
     35 H10         2.6820    0.7090   -1.9110 ha        1 CRH      0.141000
     36 H151       -0.9650    0.5160   -7.7620 hc        1 CRH      0.047700
     37 H152        0.7830    0.4600   -8.2640 hc        1 CRH      0.047700
     38 H153       -0.1010   -1.0710   -7.8470 hc        1 CRH      0.047700
     39 HO8        -2.4480    0.1820   -4.9460 ho        1 CRH      0.444000
     40 HO9        -2.9140   -0.5050   -2.2740 ho        1 CRH      0.478000
     41 H1'         0.8280    1.0820    3.0060 h1        1 CRH      0.050700
     42 H3'        -1.5180    0.5760    3.8670 h1        1 CRH      0.096700
     43 H4'         0.8990    0.7550    5.5140 h1        1 CRH      0.073700
     44 H1'1        4.0130   -0.4540    3.7560 h1        1 CRH      0.043033
     45 H1'2        2.9150    0.9470    4.2160 h1        1 CRH      0.043033
     46 H1'3        2.5110   -0.7560    4.7710 h1        1 CRH      0.043033
     47 H4'1       -0.2880    2.7590    6.4890 hc        1 CRH      0.050033
     48 H4'2       -0.4700    2.6890    4.6820 hc        1 CRH      0.050033
     49 H4'3       -1.8500    2.2020    5.7580 hc        1 CRH      0.050033
     50 HO3        -1.3490   -1.6840    5.5460 ho        1 CRH      0.430000
     51 HO4        -1.3680    0.1380    7.0840 ho        1 CRH      0.417000
     52 C1M         2.9580   -0.1390    3.9520 c3        1 CRH      0.103700
@<TRIPOS>BOND
     1    1    2 1   
     2    1   13 1   
     3    1   16 2   
     4    2    3 1   
     5    2   28 1   
     6    2   29 1   
     7    3    4 1   
     8    3   19 1   
     9    3   30 1   
    10    4   14 1   
    11    4   31 1   
    12    4   32 1   
    13    5    6 ar  
    14    5   11 ar  
    15    5   33 1   
    16    6    7 ar  
    17    6   34 1   
    18    7    8 ar  
    19    7   15 1   
    20    8   12 ar  
    21    8   17 1   
    22    9   12 ar  
    23    9   13 ar  
    24    9   18 1   
    25   10   11 ar  
    26   10   14 ar  
    27   10   35 1   
    28   11   12 ar  
    29   13   14 ar  
    30   15   36 1   
    31   15   37 1   
    32   15   38 1   
    33   17   39 1   
    34   18   40 1   
    35   19   20 1   
    36   19   24 1   
    37   19   41 1   
    38   20   21 1   
    39   20   25 2   
    40   21   22 1   
    41   21   26 1   
    42   21   42 1   
    43   22   23 1   
    44   22   27 1   
    45   22   43 1   
    46   23   47 1   
    47   23   48 1   
    48   23   49 1   
    49   24   52 1   
    50   26   50 1   
    51   27   51 1   
    52   44   52 1   
    53   45   52 1   
    54   46   52 1   
@<TRIPOS>SUBSTRUCTURE
     1 CRH         1 TEMP              0 ****  ****    0 ROOT
