@<TRIPOS>MOLECULE
CRH
   52    53     1     0     0
SMALL
bcc


@<TRIPOS>ATOM
      1 C1          0.2000   -0.3870    1.5240 c         1 CRH      0.591700
      2 C2          0.8980    0.5790    2.4420 c3        1 CRH     -0.187400
      3 C3         -0.0290    1.6920    2.8690 c3        1 CRH     -0.068400
      4 C4         -1.2440    1.1390    3.5790 c3        1 CRH     -0.046100
      5 C5         -5.2520   -1.6110    2.7610 ca        1 CRH     -0.163000
      6 C6         -5.8970   -2.6720    2.1820 ca        1 CRH     -0.070000
      7 C7         -5.2190   -3.5320    1.2840 ca        1 CRH     -0.183300
      8 C8         -3.8860   -3.2740    0.9870 ca        1 CRH      0.159100
      9 C9         -1.8180   -1.8280    1.2640 ca        1 CRH      0.229100
     10 C10        -3.2250   -0.2580    3.1020 ca        1 CRH     -0.186000
     11 C11        -3.8870   -1.3400    2.4690 ca        1 CRH      0.040000
     12 C12        -3.1820   -2.1620    1.5520 ca        1 CRH     -0.127000
     13 C13        -1.1870   -0.7420    1.8810 ca        1 CRH     -0.224600
     14 C14        -1.9040    0.0290    2.8350 ca        1 CRH      0.007700
     15 C15        -5.9400   -4.6830    0.6930 c3        1 CRH     -0.052800
     16 O1          0.7760   -0.8400    0.5270 o         1 CRH     -0.535100
     17 O8         -3.1590   -4.0800    0.1400 oh        1 CRH     -0.521100
     18 O9         -1.0300   -2.5720    0.4320 oh        1 CRH     -0.471100
     19 C1'         6.8490    0.4360   -0.0430 ce        1 CRH     -0.394200
     20 C2'         5.8750    1.4700    0.2580 c         1 CRH      0.559300
     21 C3'         4.4980    0.9920    0.6890 c3        1 CRH      0.058100
     22 C4'         8.1320    0.6660   -0.4110 c2        1 CRH      0.158900
     23 C4M         3.6970    0.5480   -0.5220 c3        1 CRH     -0.135100
     24 O1'        10.4240   -0.1440   -0.3990 oh        1 CRH     -0.583800
     25 O2'         6.1130    2.6890    0.1760 o         1 CRH     -0.592100
     26 O3'         3.8150    2.0010    1.4110 oh        1 CRH     -0.595800
     27 O4'         8.7220    1.8830   -0.5570 oh        1 CRH     -0.510100
     28 H21        -0.3480    2.2830    1.9700 hc        1 CRH      0.051200
     29 H22         1.2550    0.0070    3.3400 hc        1 CRH      0.081700
     30 H3          1.8060    1.0030    1.9280 hc        1 CRH      0.081700
     31 H41        -1.9820    1.9680    3.7570 hc        1 CRH      0.056700
     32 H42        -0.9390    0.7440    4.5880 hc        1 CRH      0.056700
     33 H5         -5.7780   -0.9500    3.4660 ha        1 CRH      0.139000
     34 H6         -6.9550   -2.8760    2.4100 ha        1 CRH      0.136000
     35 H10        -3.7910    0.3510    3.8220 ha        1 CRH      0.138000
     36 H151       -5.4520   -5.6480    0.9840 hc        1 CRH      0.045367
     37 H152       -5.9490   -4.6130   -0.4240 hc        1 CRH      0.045367
     38 H153       -7.0000   -4.7140    1.0450 hc        1 CRH      0.045367
     39 HO8        -3.7230   -4.8010   -0.1740 ho        1 CRH      0.437000
     40 HO9        -1.5690   -2.9690   -0.2680 ho        1 CRH      0.444000
     41 H1'         0.5180    2.3930    3.5530 hc        1 CRH      0.051200
     42 H3'         6.4950   -0.6040    0.0420 ha        1 CRH      0.155000
     43 H4'         4.6020    0.1460    1.4270 h1        1 CRH      0.091700
     44 H1'1        8.8400   -1.3700   -0.1620 h1        1 CRH      0.070200
     45 H1'2        9.0140   -0.6550   -1.8500 h1        1 CRH      0.070200
     46 H1'3       10.6540    0.7040   -0.8030 ho        1 CRH      0.420000
     47 H4'1        4.2330   -0.2710   -1.0570 hc        1 CRH      0.059033
     48 H4'2        3.5440    1.4020   -1.2240 hc        1 CRH      0.059033
     49 H4'3        2.6950    0.1730   -0.1910 hc        1 CRH      0.059033
     50 HO3         3.8930    2.8230    0.9060 ho        1 CRH      0.417000
     51 HO4         8.0990    2.5940   -0.3140 ho        1 CRH      0.471000
     52 C1M         9.0930   -0.4440   -0.7470 c3        1 CRH      0.162600
@<TRIPOS>BOND
     1    1    2 1   
     2    1   13 1   
     3    1   16 2   
     4    2    3 1   
     5    2   29 1   
     6    2   30 1   
     7    3    4 1   
     8    3   28 1   
     9    3   41 1   
    10    4   14 1   
    11    4   31 1   
    12    4   32 1   
    13    5    6 ar  
    14    5   11 ar  
    15    5   33 1   
    16    6    7 ar  
    17    6   34 1   
    18    7    8 ar  
    19    7   15 1   
    20    8   12 ar  
    21    8   17 1   
    22    9   12 ar  
    23    9   13 ar  
    24    9   18 1   
    25   10   11 ar  
    26   10   14 ar  
    27   10   35 1   
    28   11   12 ar  
    29   13   14 ar  
    30   15   36 1   
    31   15   37 1   
    32   15   38 1   
    33   17   39 1   
    34   18   40 1   
    35   19   20 1   
    36   19   22 2   
    37   19   42 1   
    38   20   21 1   
    39   20   25 2   
    40   21   23 1   
    41   21   26 1   
    42   21   43 1   
    43   22   27 1   
    44   22   52 1   
    45   23   47 1   
    46   23   48 1   
    47   23   49 1   
    48   24   46 1   
    49   24   52 1   
    50   26   50 1   
    51   27   51 1   
    52   44   52 1   
    53   45   52 1   
@<TRIPOS>SUBSTRUCTURE
     1 CRH         1 TEMP              0 ****  ****    0 ROOT
