@<TRIPOS>MOLECULE
CRH
   52    51     1     0     0
SMALL
bcc


@<TRIPOS>ATOM
      1 C1          0.3200   -1.0080   -0.2620 c2        1 CRH      0.311000
      2 C2          0.3230   -1.8550   -1.4920 c3        1 CRH     -0.269000
      3 C3          1.9680   -1.5400    3.5010 c2        1 CRH     -0.166000
      4 C4          1.3950   -1.7400    2.3120 c2        1 CRH     -0.163000
      5 C5         -3.1500   -2.7900    4.0090 c3        1 CRH     -0.189000
      6 C6         -4.5820   -2.8850    3.7730 c1        1 CRH     -0.081000
      7 C7         -5.1030   -2.5640    2.5060 c2        1 CRH     -0.265000
      8 C8         -4.2780   -2.1360    1.4790 c2        1 CRH      0.206000
      9 C9         -1.9690   -1.5110    0.6270 ca        1 CRH      0.176000
     10 C10        -0.9030   -2.2510    3.0950 ca        1 CRH     -0.183000
     11 C11        -2.2810   -2.3290    2.8910 ca        1 CRH      0.011000
     12 C12        -2.8410   -1.9740    1.6430 ca        1 CRH     -0.169000
     13 C13        -0.5760   -1.4550    0.8340 ca        1 CRH     -0.202000
     14 C14        -0.0410   -1.8180    2.0840 ca        1 CRH      0.068000
     15 C15        -6.5650   -2.7110    2.3020 c3        1 CRH     -0.164000
     16 O1          1.0390   -0.0050   -0.1540 o         1 CRH     -0.332000
     17 O8         -4.7460   -1.8460    0.2300 oh        1 CRH     -0.273000
     18 O9         -2.3820   -1.1150   -0.6190 oh        1 CRH     -0.262000
     19 C1'         3.8020    0.9580    1.4780 c2        1 CRH      0.015000
     20 C2'         4.1920    2.1250    0.7600 c2        1 CRH      0.114000
     21 C3'         3.2310    2.4400   -0.2370 c2        1 CRH     -0.034000
     22 C4'         7.6960    1.8160   -1.4170 c2        1 CRH     -0.005000
     23 C4M         6.6960    2.4390   -2.0490 c2        1 CRH     -0.358000
     24 O1'         4.5150    0.3360    2.4250 os        1 CRH     -0.186000
     25 O2'         5.2610    2.7800    0.9800 o         1 CRH     -0.517000
     26 O3'         3.4930    3.4810   -1.0570 oh        1 CRH     -0.184000
     27 O4'         7.8430    1.7490   -0.0570 oh        1 CRH     -0.300000
     28 H21         0.5300   -2.9190   -1.2200 hc        1 CRH      0.114000
     29 H22         1.0970   -1.5030   -2.2150 hc        1 CRH      0.114000
     30 H3         -0.6840   -1.8030   -1.9790 hc        1 CRH      0.114000
     31 H41         1.4000   -1.4250    4.4340 ha        1 CRH      0.127000
     32 H42         2.0190   -1.8290    1.4030 ha        1 CRH      0.134000
     33 H5         -3.0080   -2.1020    4.8950 hc        1 CRH      0.158000
     34 H6         -2.8070   -3.8120    4.3520 hc        1 CRH      0.158000
     35 H10        -0.4910   -2.5410    4.0750 ha        1 CRH      0.148000
     36 H151       -7.0470   -3.0520    3.2530 hc        1 CRH      0.083333
     37 H152       -6.7850   -3.4670    1.5070 hc        1 CRH      0.083333
     38 H153       -7.0280   -1.7360    2.0040 hc        1 CRH      0.083333
     39 HO8        -5.7060   -1.9920    0.2000 ho        1 CRH      0.255000
     40 HO9        -3.2900   -0.7800   -0.5790 ho        1 CRH      0.252000
     41 H1'         3.0600   -1.4540    3.6020 ha        1 CRH      0.127000
     42 H3'         2.8400    0.4290    1.3190 h4        1 CRH      0.180000
     43 H4'         2.2970    1.8730   -0.3790 h4        1 CRH      0.156000
     44 H1'1        6.4810    0.8050    1.8570 h1        1 CRH      0.108333
     45 H1'2        6.1650    0.1490    3.5580 h1        1 CRH      0.108333
     46 H1'3        5.7330    1.8970    3.1240 h1        1 CRH      0.108333
     47 H4'1        8.5230    1.2720   -1.9030 h4        1 CRH      0.141000
     48 H4'2        6.6350    2.4600   -3.1410 ha        1 CRH      0.130000
     49 H4'3        5.8960    2.9620   -1.5030 ha        1 CRH      0.130000
     50 HO3         2.7560    3.5650   -1.6830 ho        1 CRH      0.218000
     51 HO4         7.1460    2.2870    0.3630 ho        1 CRH      0.253000
     52 C1M         5.8190    0.8470    2.7560 c3        1 CRH     -0.081000
@<TRIPOS>BOND
     1    1    2 1   
     2    1   13 1   
     3    1   16 1   
     4    2   28 1   
     5    2   29 1   
     6    2   30 1   
     7    3    4 1   
     8    3   31 1   
     9    3   41 1   
    10    4   14 1   
    11    4   32 1   
    12    5    6 1   
    13    5   11 1   
    14    5   33 1   
    15    5   34 1   
    16    6    7 1   
    17    7    8 1   
    18    7   15 1   
    19    8   12 1   
    20    8   17 1   
    21    9   12 1   
    22    9   13 1   
    23    9   18 1   
    24   10   11 1   
    25   10   14 1   
    26   10   35 1   
    27   11   12 1   
    28   13   14 1   
    29   15   36 1   
    30   15   37 1   
    31   15   38 1   
    32   17   39 1   
    33   18   40 1   
    34   19   20 1   
    35   19   24 1   
    36   19   42 1   
    37   20   21 1   
    38   20   25 1   
    39   21   26 1   
    40   21   43 1   
    41   22   23 1   
    42   22   27 1   
    43   22   47 1   
    44   23   48 1   
    45   23   49 1   
    46   24   52 1   
    47   26   50 1   
    48   27   51 1   
    49   44   52 1   
    50   45   52 1   
    51   46   52 1   
@<TRIPOS>SUBSTRUCTURE
     1 CRH         1 TEMP              0 ****  ****    0 ROOT
