@<TRIPOS>MOLECULE
CRI
   57    54     1     0     0
SMALL
bcc


@<TRIPOS>ATOM
      1 N         132.1680   98.9980  171.1080 n4        1 CRI     -0.006000
      2 OH        133.3920   99.5020  170.8350 oh        1 CRI     -0.201000
      3 O         131.3400  101.1130  170.6240 o         1 CRI     -0.181000
      4 C         131.0170   99.9370  170.7150 c2        1 CRI      0.292000
      5 C1        131.7610   98.4150  174.3310 c1        1 CRI     -0.227500
      6 C2        129.7330   99.2920  170.5170 c2        1 CRI     -0.277000
      7 C3        128.6760  100.0350  170.1010 c2        1 CRI      0.156000
      8 C4        127.4030   99.5100  169.8730 c1        1 CRI     -0.148000
      9 C5        126.2920   99.1020  169.6600 c1        1 CRI      0.011000
     10 C6        132.4750   97.4970  174.0390 c1        1 CRI     -0.227500
     11 C11       124.9970   98.6200  169.4060 c2        1 CRI     -0.311000
     12 C12       124.0130   99.5570  168.8820 c2        1 CRI      0.009000
     13 C13       122.7660   99.1740  168.5370 c2        1 CRI     -0.228000
     14 C14      -379.0050 -272.0380 -467.5520 c1        1 CRI      0.199000
     15 C15      -379.9890 -271.2240 -467.5670 c2        1 CRI     -0.254000
     16 C16       124.6960   97.3230  169.6450 c1        1 CRI      0.427000
     17 C20      -379.8890 -269.7060 -467.5000 c2        1 CRI      0.258000
     18 O21      -379.4350 -269.1570 -466.5170 o         1 CRI     -0.143000
     19 N22      -377.4200 -273.5110 -466.3450 n3        1 CRI     -0.302000
     20 C23      -376.6440 -272.6610 -465.4840 c3        1 CRI     -0.136000
     21 C27      -377.9030 -272.9490 -467.5600 c3        1 CRI     -0.051000
     22 N31       121.7660  100.0800  168.0010 n4        1 CRI     -0.074000
     23 C33       121.3210   99.6180  166.5910 c2        1 CRI      0.334000
     24 O34       122.0580   99.9580  165.6880 o         1 CRI     -0.143000
     25 C35       120.2580   97.4030  166.1350 c3        1 CRI      0.004000
     26 C36       120.9540   96.6060  167.0990 c1        1 CRI     -0.230000
     27 C37       121.5100   95.8790  167.8740 c1        1 CRI     -0.114000
     28 C38       117.7380   99.8180  167.1320 c2        1 CRI     -0.086000
     29 C39       118.9260   99.3560  166.8960 c1        1 CRI     -0.114000
     30 C40       120.0830   98.8240  166.5870 c2        1 CRI     -0.132000
     31 HN        132.1070   98.1180  170.5580 hn        1 CRI      0.285000
     32 HO1       133.3930  100.4760  171.0160 ho        1 CRI      0.288000
     33 H7        131.1370   99.2070  174.6680 ha        1 CRI      0.240500
     34 H8        129.6440   98.2100  170.7070 ha        1 CRI      0.179000
     35 H9        128.7850  101.1280  169.9130 ha        1 CRI      0.189000
     36 H10       133.1180   96.6730  173.8290 ha        1 CRI      0.240500
     37 H17       124.3640  100.6030  168.7860 ha        1 CRI      0.171000
     38 H18       122.3940   98.1270  168.6010 hx        1 CRI      0.211000
     39 H19      -381.0590 -271.5500 -467.6370 ha        1 CRI      0.286000
     40 H24      -375.7700 -272.2450 -466.0520 h1        1 CRI      0.102333
     41 H25      -376.2520 -273.2930 -464.6410 h1        1 CRI      0.102333
     42 H26      -377.2360 -271.8090 -465.0510 h1        1 CRI      0.102333
     43 H28      -378.0970 -274.0650 -465.8580 hn        1 CRI      0.208000
     44 H29      -377.0410 -272.4170 -468.1020 h1        1 CRI      0.215500
     45 H30      -378.2020 -273.8030 -468.2700 h1        1 CRI      0.215500
     46 H32       120.9490  100.0730  168.6240 hn        1 CRI      0.253500
     47 H43       120.8140   97.3970  165.1520 hc        1 CRI      0.146000
     48 H44       119.2390   96.9530  165.9440 hc        1 CRI      0.146000
     49 H41       117.2660   99.7760  168.1300 ha        1 CRI      0.186500
     50 H42       117.1210  100.2800  166.3380 ha        1 CRI      0.186500
     51 H46       121.4640   94.6890  169.6060 hc        1 CRI      0.113333
     52 H47       122.5030   94.0700  168.2490 hc        1 CRI      0.113333
     53 H48       123.0610   95.4920  169.2430 hc        1 CRI      0.113333
     54 HN3       132.1090   98.7640  172.1300 hn        1 CRI      0.285000
     55 H221     -380.2940 -269.2250 -468.4160 h4        1 CRI      0.196000
     56 H312      122.1370  101.0360  167.9430 hn        1 CRI      0.253500
     57 C45       122.1630   94.9970  168.7840 c3        1 CRI     -0.135000
@<TRIPOS>BOND
     1    1    2 1   
     2    1    4 1   
     3    1   31 1   
     4    1   54 1   
     5    2   32 1   
     6    3    4 1   
     7    4    6 1   
     8    5   10 1   
     9    5   33 1   
    10    6    7 1   
    11    6   34 1   
    12    7    8 1   
    13    7   35 1   
    14    8    9 1   
    15    9   11 1   
    16   10   36 1   
    17   11   12 1   
    18   11   16 1   
    19   12   13 1   
    20   12   37 1   
    21   13   22 1   
    22   13   38 1   
    23   14   15 1   
    24   14   21 1   
    25   15   17 1   
    26   15   39 1   
    27   17   18 1   
    28   17   55 1   
    29   19   20 1   
    30   19   21 1   
    31   19   43 1   
    32   20   40 1   
    33   20   41 1   
    34   20   42 1   
    35   21   44 1   
    36   21   45 1   
    37   22   23 1   
    38   22   46 1   
    39   22   56 1   
    40   23   24 1   
    41   23   30 1   
    42   25   26 1   
    43   25   30 1   
    44   25   47 1   
    45   25   48 1   
    46   26   27 1   
    47   27   57 1   
    48   28   29 1   
    49   28   49 1   
    50   28   50 1   
    51   29   30 1   
    52   51   57 1   
    53   52   57 1   
    54   53   57 1   
@<TRIPOS>SUBSTRUCTURE
     1 CRI         1 TEMP              0 ****  ****    0 ROOT
