@<TRIPOS>MOLECULE
CRI
   54    47     1     0     0
SMALL
bcc


@<TRIPOS>ATOM
      1 N           7.5600   -2.1580   -1.0760 n         1 CRI     -0.188000
      2 OH          8.8430   -2.5900   -1.4010 oh        1 CRI     -0.244000
      3 O           6.5970   -3.4970   -2.6430 o         1 CRI     -0.319000
      4 C           6.4390   -2.6740   -1.7780 c2        1 CRI      0.278000
      5 C1          4.2550   -2.9600   -0.5480 c1        1 CRI     -0.075000
      6 C2          5.0390   -2.2060   -1.4220 c2        1 CRI     -0.123000
      7 C3          4.4840   -1.0920   -2.0820 c2        1 CRI     -0.102000
      8 C4          3.1590   -0.7440   -1.8640 c1        1 CRI     -0.122000
      9 C5          2.3660   -1.5040   -0.9820 c1        1 CRI     -0.019000
     10 C6          2.9160   -2.6100   -0.3260 c1        1 CRI     -0.118000
     11 C11         0.9840   -1.2670   -0.9100 c1        1 CRI     -0.019000
     12 C12         0.4880   -0.3080   -0.0310 c1        1 CRI     -0.130000
     13 C13        -0.8770   -0.0350    0.0030 c1        1 CRI      0.078000
     14 C14        -1.7480   -0.7210   -0.8430 c1        1 CRI     -0.155000
     15 C15        -1.2590   -1.6710   -1.7150 c1        1 CRI     -0.080000
     16 C16         0.1160   -1.9490   -1.7520 c1        1 CRI     -0.118000
     17 C20        -2.2390   -2.4300   -2.6880 c2        1 CRI      0.342000
     18 O21        -1.8020   -3.2670   -3.4550 o         1 CRI     -0.351000
     19 N22        -3.6030   -2.0130   -2.7920 n         1 CRI     -0.331000
     20 C23        -4.6680   -2.9590   -2.5430 c3        1 CRI     -0.081000
     21 C27        -3.9140   -0.7060   -3.2980 c3        1 CRI     -0.081000
     22 N31        -1.4130    0.8680    1.0150 n         1 CRI     -0.326000
     23 C33        -0.5660    1.7650    1.6750 c2        1 CRI      0.358000
     24 O34         0.5850    1.7930    1.4120 o         1 CRI     -0.347000
     25 C35        -1.9230    3.7110    2.0670 c1        1 CRI     -0.101000
     26 C36        -2.6630    4.6250    2.7970 c1        1 CRI     -0.138000
     27 C37        -2.6370    4.5870    4.2100 c1        1 CRI     -0.041000
     28 C38        -1.8690    3.6330    4.8630 c1        1 CRI     -0.104500
     29 C39        -1.1180    2.7050    4.1200 c1        1 CRI     -0.104500
     30 C40        -1.1440    2.7430    2.7310 c1        1 CRI     -0.135000
     31 C45        -3.4000    5.6000    5.0000 c3        1 CRI     -0.187000
     32 HN          7.4420   -1.5010   -0.4410 hn        1 CRI      0.212000
     33 HO1         9.2110   -3.0050   -0.6890 ho        1 CRI      0.235000
     34 H7          4.6410   -3.7340   -0.0890 ha        1 CRI      0.156000
     35 H8          5.0390   -0.5570   -2.7000 ha        1 CRI      0.134000
     36 H9          2.7590    0.0630   -2.3420 ha        1 CRI      0.150000
     37 H10         2.3680   -3.1370    0.2840 ha        1 CRI      0.149000
     38 H17         1.0800    0.1600    0.5470 ha        1 CRI      0.178000
     39 H18        -2.7060   -0.5280   -0.8180 ha        1 CRI      0.142000
     40 H19         0.4720   -2.6440   -2.3890 ha        1 CRI      0.149000
     41 H24        -4.3770   -3.6090   -1.8860 h1        1 CRI      0.084000
     42 H25        -5.4370   -2.4920   -2.2110 h1        1 CRI      0.084000
     43 H26        -4.9060   -3.4300   -3.3990 h1        1 CRI      0.084000
     44 H28        -3.1100   -0.3220   -3.7410 h1        1 CRI      0.084000
     45 H29        -4.6650   -0.7730   -3.9670 h1        1 CRI      0.084000
     46 H30        -4.1930   -0.1160   -2.5440 h1        1 CRI      0.084000
     47 H32        -2.3120    0.7960    1.2760 hn        1 CRI      0.236000
     48 H43        -1.9410    3.7370    1.0820 ha        1 CRI      0.134000
     49 H44        -3.2240    5.3210    2.3180 ha        1 CRI      0.138000
     50 H41        -1.8500    3.6050    5.8670 ha        1 CRI      0.148000
     51 H42        -0.5850    2.0430    4.5720 ha        1 CRI      0.148000
     52 H46        -3.0290    6.4770    4.8430 hc        1 CRI      0.090000
     53 H47        -3.3380    5.3860    5.9520 hc        1 CRI      0.090000
     54 H48        -4.3270    5.5900    4.7270 hc        1 CRI      0.090000
@<TRIPOS>BOND
     1    1    2 1   
     2    1    4 1   
     3    1   32 1   
     4    2   33 1   
     5    3    4 1   
     6    4    6 1   
     7    5    6 1   
     8    5   34 1   
     9    6    7 1   
    10    7    8 1   
    11    7   35 1   
    12    8   36 1   
    13    9   10 1   
    14   10   37 1   
    15   11   16 1   
    16   12   13 1   
    17   12   38 1   
    18   13   22 1   
    19   14   15 1   
    20   14   39 1   
    21   15   17 1   
    22   16   40 1   
    23   17   18 1   
    24   17   19 1   
    25   19   20 1   
    26   19   21 1   
    27   20   41 1   
    28   20   42 1   
    29   20   43 1   
    30   21   44 1   
    31   21   45 1   
    32   21   46 1   
    33   22   23 1   
    34   22   47 1   
    35   23   24 1   
    36   23   30 1   
    37   25   30 1   
    38   25   48 1   
    39   26   27 1   
    40   26   49 1   
    41   27   31 1   
    42   28   29 1   
    43   28   50 1   
    44   29   51 1   
    45   31   52 1   
    46   31   53 1   
    47   31   54 1   
@<TRIPOS>SUBSTRUCTURE
     1 CRI         1 TEMP              0 ****  ****    0 ROOT
