@<TRIPOS>MOLECULE
CRI
   56    53     1     0     0
SMALL
bcc


@<TRIPOS>ATOM
      1 N          -1.9920    1.9860    3.9390 n4        1 CRI      0.002000
      2 OH         -1.4090    2.3250    5.1060 oh        1 CRI     -0.227000
      3 O          -1.5200   -0.2260    4.5270 o         1 CRI     -0.283000
      4 C          -2.1420    0.4560    3.7110 c2        1 CRI      0.312000
      5 C1         -4.5510   -2.1970   -1.8010 c1        1 CRI     -0.073000
      6 C2         -2.9870    0.1530    2.6290 c2        1 CRI     -0.418000
      7 C3         -3.4430   -1.1510    2.4260 c2        1 CRI      0.056000
      8 C4         -4.4000   -1.4660    1.5770 c1        1 CRI      0.044000
      9 C5         -5.4250   -1.8360    0.6600 c3        1 CRI      0.165000
     10 C6         -4.9590   -2.0270   -0.6900 c1        1 CRI     -0.270000
     11 C11        -6.5750   -0.8500    0.7300 c2        1 CRI     -0.306000
     12 C12        -6.3530    0.3560    1.5240 c2        1 CRI     -0.222000
     13 C13        -7.2530    0.8070    2.4290 c2        1 CRI      0.033000
     14 C14       -12.6160   -3.7900   -2.2020 c1        1 CRI      0.414000
     15 C15       -11.4180   -3.9930   -2.7300 c2        1 CRI     -0.576000
     16 C16        -7.7090   -1.0260    0.0640 c1        1 CRI      0.186000
     17 C20       -10.3830   -3.1130   -3.2080 c2        1 CRI      0.356000
     18 O21        -9.2700   -3.4010   -3.6250 o         1 CRI     -0.174000
     19 N22       -10.6830   -1.6130   -3.1990 n4        1 CRI     -0.075000
     20 C23       -11.9250   -1.2970   -3.9460 c3        1 CRI     -0.202000
     21 C27       -10.7310   -1.0990   -1.8070 c3        1 CRI     -0.202000
     22 N31        -7.1360    1.9160    3.2500 n         1 CRI     -0.308000
     23 C33        -5.9770    2.6440    3.5290 c2        1 CRI      0.479000
     24 O34        -4.8610    2.3230    3.0590 o         1 CRI     -0.419000
     25 C35        -9.4840    7.6150    5.2280 c2        1 CRI     -0.139500
     26 C36        -9.9170    6.9460    6.2580 c1        1 CRI     -0.130500
     27 C37       -10.3510    6.3140    7.2650 c1        1 CRI     -0.130500
     28 C38        -6.4010    5.8420    5.9770 c3        1 CRI     -0.168000
     29 C39        -6.2630    4.7140    5.1200 c1        1 CRI      0.053000
     30 C40        -6.1490    3.7610    4.3990 c1        1 CRI     -0.320000
     31 HN         -1.4410    2.3950    3.1660 hn        1 CRI      0.275500
     32 HO1        -0.9230    1.5410    5.4670 ho        1 CRI      0.285000
     33 H7         -4.1860   -2.3570   -2.7890 ha        1 CRI      0.251000
     34 H8         -3.3690    0.9620    1.9870 ha        1 CRI      0.178000
     35 H9         -3.0100   -1.9800    3.0470 ha        1 CRI      0.242000
     36 H10        -5.8050   -2.8490    1.0580 hc        1 CRI      0.194000
     37 H17        -5.3960    0.8740    1.3410 ha        1 CRI      0.172000
     38 H18        -8.2210    0.2780    2.5710 h4        1 CRI      0.147000
     39 H19       -11.1430   -5.0840   -2.8300 ha        1 CRI      0.276000
     40 H24       -11.8570   -1.7300   -4.9820 hx        1 CRI      0.152000
     41 H25       -12.8180   -1.7270   -3.4140 hx        1 CRI      0.152000
     42 H26       -12.0450   -0.1810   -4.0150 hx        1 CRI      0.152000
     43 H28       -10.9740   -0.0020   -1.8250 hx        1 CRI      0.152000
     44 H29        -9.7280   -1.2520   -1.3100 hx        1 CRI      0.152000
     45 H30       -11.5270   -1.6450   -1.2330 hx        1 CRI      0.152000
     46 H32        -7.9690    2.2060    3.7200 hn        1 CRI      0.261000
     47 H43        -9.7070    7.3130    4.1950 ha        1 CRI      0.135750
     48 H44        -8.8920    8.5370    5.3380 ha        1 CRI      0.135750
     49 H41        -7.4180    6.3120    5.8520 hc        1 CRI      0.134667
     50 H42        -6.2860    5.5350    7.0510 hc        1 CRI      0.134667
     51 H46        -5.6200    6.6140    5.7420 hc        1 CRI      0.134667
     52 H47       -11.4390    4.7860    8.2210 ha        1 CRI      0.135750
     53 H48       -10.6080    6.0290    9.3340 ha        1 CRI      0.135750
     54 HN3        -2.9440    2.4180    3.9390 hn        1 CRI      0.275500
     55 H221       -9.8930   -1.1520   -3.6830 hn        1 CRI      0.265000
     56 C45       -10.8120    5.6860    8.3070 c2        1 CRI     -0.139500
@<TRIPOS>BOND
     1    1    2 1   
     2    1    4 1   
     3    1   31 1   
     4    1   54 1   
     5    2   32 1   
     6    3    4 1   
     7    4    6 1   
     8    5   10 1   
     9    5   33 1   
    10    6    7 1   
    11    6   34 1   
    12    7    8 1   
    13    7   35 1   
    14    8    9 1   
    15    9   10 1   
    16    9   11 1   
    17    9   36 1   
    18   11   12 1   
    19   11   16 1   
    20   12   13 1   
    21   12   37 1   
    22   13   22 1   
    23   13   38 1   
    24   14   15 1   
    25   15   17 1   
    26   15   39 1   
    27   17   18 1   
    28   17   19 1   
    29   19   20 1   
    30   19   21 1   
    31   19   55 1   
    32   20   40 1   
    33   20   41 1   
    34   20   42 1   
    35   21   43 1   
    36   21   44 1   
    37   21   45 1   
    38   22   23 1   
    39   22   46 1   
    40   23   24 1   
    41   23   30 1   
    42   25   26 1   
    43   25   47 1   
    44   25   48 1   
    45   26   27 1   
    46   27   56 1   
    47   28   29 1   
    48   28   49 1   
    49   28   50 1   
    50   28   51 1   
    51   29   30 1   
    52   52   56 1   
    53   53   56 1   
@<TRIPOS>SUBSTRUCTURE
     1 CRI         1 TEMP              0 ****  ****    0 ROOT
