@<TRIPOS>MOLECULE
CRI
   54    56     1     0     0
SMALL
bcc


@<TRIPOS>ATOM
      1 N          -1.7380   -0.9720   -7.0720 n         1 CRI     -0.348400
      2 OH         -2.6740   -1.1060   -8.0160 oh        1 CRI     -0.438100
      3 O          -2.5870    1.1340   -6.6150 o         1 CRI     -0.557100
      4 C          -1.9230    0.1630   -6.2150 c         1 CRI      0.602700
      5 C1         -0.0070   -0.5350   -4.7260 ca        1 CRI     -0.084500
      6 C2         -1.2040    0.1630   -4.9170 ca        1 CRI     -0.152600
      7 C3         -1.7510    0.9070   -3.8630 ca        1 CRI     -0.084500
      8 C4         -1.1180    0.9330   -2.6230 ca        1 CRI     -0.126500
      9 C5          0.0780    0.2280   -2.4230 cp        1 CRI     -0.010000
     10 C6          0.6290   -0.5000   -3.4870 ca        1 CRI     -0.126500
     11 C11         0.7470    0.2550   -1.1210 cp        1 CRI     -0.025000
     12 C12        -0.0150    0.2020    0.0510 ca        1 CRI     -0.131000
     13 C13         0.6130    0.2320    1.3140 ca        1 CRI      0.070600
     14 C14         2.0260    0.3000    1.3700 ca        1 CRI     -0.159000
     15 C15         2.7690    0.3540    0.1940 ca        1 CRI     -0.102600
     16 C16         2.1430    0.3400   -1.0530 ca        1 CRI     -0.104000
     17 C20         4.2560    0.4990    0.2440 c         1 CRI      0.671700
     18 O21         4.8160    1.4820   -0.2810 o         1 CRI     -0.594100
     19 N22         5.0060   -0.4770    0.8840 n         1 CRI     -0.480800
     20 C23         6.4320   -0.3430    0.9960 c3        1 CRI      0.079800
     21 C27         4.4320   -1.6720    1.4280 c3        1 CRI      0.079800
     22 N31        -0.0970    0.2100    2.5250 n         1 CRI     -0.472100
     23 C33        -1.4570   -0.0210    2.7050 c         1 CRI      0.684700
     24 O34        -2.2300   -0.2740    1.7630 o         1 CRI     -0.582100
     25 C35        -2.8780   -0.9300    4.5230 ca        1 CRI     -0.086000
     26 C36        -3.3690   -0.9110    5.8260 ca        1 CRI     -0.139000
     27 C37        -2.9390    0.0650    6.7330 ca        1 CRI     -0.048300
     28 C38        -2.0130    1.0290    6.3120 ca        1 CRI     -0.139000
     29 C39        -1.5140    1.0110    5.0120 ca        1 CRI     -0.086000
     30 C40        -1.9410    0.0270    4.1150 ca        1 CRI     -0.157600
     31 HN         -1.7030   -1.8430   -6.5530 hn        1 CRI      0.297500
     32 HO1        -2.5220   -0.3760   -8.6490 ho        1 CRI      0.436000
     33 H7          0.4530   -1.1030   -5.5490 ha        1 CRI      0.151500
     34 H8         -2.6800    1.4760   -4.0270 ha        1 CRI      0.151500
     35 H9         -1.5540    1.5190   -1.7990 ha        1 CRI      0.145000
     36 H10         1.5700   -1.0520   -3.3420 ha        1 CRI      0.145000
     37 H17        -1.1140    0.1300   -0.0260 ha        1 CRI      0.181000
     38 H18         2.5510    0.3200    2.3380 ha        1 CRI      0.139000
     39 H19         2.7450    0.4180   -1.9710 ha        1 CRI      0.155000
     40 H24         6.7380   -0.4630    2.0700 h1        1 CRI      0.043700
     41 H25         6.9440   -1.1370    0.3860 h1        1 CRI      0.043700
     42 H26         6.7600    0.6660    0.6290 h1        1 CRI      0.043700
     43 H28         3.4170   -1.8690    0.9930 h1        1 CRI      0.043700
     44 H29         5.0970   -2.5490    1.1990 h1        1 CRI      0.043700
     45 H30         4.3360   -1.5830    2.5450 h1        1 CRI      0.043700
     46 H32         0.4510    0.3440    3.3460 hn        1 CRI      0.321500
     47 H43        -3.2310   -1.6850    3.8020 ha        1 CRI      0.146000
     48 H44        -4.1040   -1.6660    6.1440 ha        1 CRI      0.140000
     49 H41        -1.6810    1.8090    7.0140 ha        1 CRI      0.140000
     50 H42        -0.8040    1.7900    4.6960 ha        1 CRI      0.146000
     51 H46        -2.8060   -0.5720    8.7690 hc        1 CRI      0.050367
     52 H47        -3.4460    1.1100    8.5450 hc        1 CRI      0.050367
     53 H48        -4.4970   -0.3190    8.1650 hc        1 CRI      0.050367
     54 C45        -3.4510    0.0750    8.1220 c3        1 CRI     -0.061800
@<TRIPOS>BOND
     1    1    2 1   
     2    1    4 1   
     3    1   31 1   
     4    2   32 1   
     5    3    4 2   
     6    4    6 1   
     7    5    6 ar  
     8    5   10 ar  
     9    5   33 1   
    10    6    7 ar  
    11    7    8 ar  
    12    7   34 1   
    13    8    9 ar  
    14    8   35 1   
    15    9   10 ar  
    16    9   11 1   
    17   10   36 1   
    18   11   12 ar  
    19   11   16 ar  
    20   12   13 ar  
    21   12   37 1   
    22   13   14 ar  
    23   13   22 1   
    24   14   15 ar  
    25   14   38 1   
    26   15   16 ar  
    27   15   17 1   
    28   16   39 1   
    29   17   18 2   
    30   17   19 1   
    31   19   20 1   
    32   19   21 1   
    33   20   40 1   
    34   20   41 1   
    35   20   42 1   
    36   21   43 1   
    37   21   44 1   
    38   21   45 1   
    39   22   23 1   
    40   22   46 1   
    41   23   24 2   
    42   23   30 1   
    43   25   26 ar  
    44   25   30 ar  
    45   25   47 1   
    46   26   27 ar  
    47   26   48 1   
    48   27   28 ar  
    49   27   54 1   
    50   28   29 ar  
    51   28   49 1   
    52   29   30 ar  
    53   29   50 1   
    54   51   54 1   
    55   52   54 1   
    56   53   54 1   
@<TRIPOS>SUBSTRUCTURE
     1 CRI         1 TEMP              0 ****  ****    0 ROOT
