@<TRIPOS>MOLECULE
CRJ
   55    57     1     0     0
SMALL
bcc


@<TRIPOS>ATOM
      1 C2          3.9060   -3.6730    1.5030 ca        1 CRJ      0.147900
      2 C4          3.9110   -1.4830    0.4810 ca        1 CRJ     -0.069500
      3 C5          2.6210   -1.7100   -0.0110 ca        1 CRJ     -0.146300
      4 C6          1.9740   -2.9210    0.2600 ca        1 CRJ     -0.069500
      5 C1          2.6060   -3.9050    1.0130 ca        1 CRJ     -0.169500
      6 C3          4.5590   -2.4560    1.2340 ca        1 CRJ     -0.169500
      7 C8          1.9350   -0.6350   -0.8080 c3        1 CRJ      0.222800
      8 F7          4.5290   -4.6240    2.2370 f         1 CRJ     -0.134900
      9 N9          0.6320   -0.2880   -0.2690 n3        1 CRJ     -0.832200
     10 C10         1.7940   -1.1010   -2.3250 c3        1 CRJ      0.621900
     11 C11         0.2130    1.0850   -0.4680 c3        1 CRJ      0.147500
     12 C12         1.0890    2.1340    0.2650 c         1 CRJ      0.625100
     13 C13        -1.2220    1.2840    0.0320 c3        1 CRJ     -0.311600
     14 S14        -2.2910    0.0260   -0.4670 s6        1 CRJ      1.345000
     15 C15        -3.7530    0.8380   -0.0880 c3        1 CRJ     -0.356600
     16 N16         1.1760    3.3830   -0.3220 n         1 CRJ     -0.527900
     17 O17         1.6250    1.8630    1.3550 o         1 CRJ     -0.584100
     18 C18        -4.9750   -0.0900   -0.1080 c3        1 CRJ      0.137700
     19 C19        -6.2920    0.7310   -0.0060 c3        1 CRJ     -0.085400
     20 C20        -7.0430    0.1720    1.1990 c3        1 CRJ     -0.163400
     21 C21        -6.1340   -0.9060    1.7790 c         1 CRJ      0.697500
     22 N22        -5.0130   -1.0540    0.9720 n         1 CRJ     -0.587900
     23 O23        -6.3520   -1.5750    2.7990 o         1 CRJ     -0.615500
     24 C24         2.0470    4.4120    0.1490 cx        1 CRJ      0.079500
     25 C25         1.4620    5.7110    0.7140 cx        1 CRJ     -0.093400
     26 C26         2.1490    4.7560    1.6340 cx        1 CRJ     -0.093400
     27 O27        -2.2240   -0.1410   -1.8490 o         1 CRJ     -0.635800
     28 O28        -2.1530   -1.0760    0.3810 o         1 CRJ     -0.635800
     29 F29         0.9670   -2.1650   -2.5450 f         1 CRJ     -0.233300
     30 F30         1.3270   -0.1030   -3.1450 f         1 CRJ     -0.233300
     31 F31         2.9950   -1.4540   -2.8830 f         1 CRJ     -0.233300
     32 C32         3.2680    4.5610   -0.6160 c1        1 CRJ      0.215700
     33 H4          4.4240   -0.5290    0.2760 ha        1 CRJ      0.154000
     34 H6          0.9610   -3.1030   -0.1370 ha        1 CRJ      0.154000
     35 H1          2.1030   -4.8590    1.2280 ha        1 CRJ      0.156500
     36 H3          5.5740   -2.2840    1.6210 ha        1 CRJ      0.156500
     37 H8          2.6140    0.2730   -0.8640 h1        1 CRJ      0.072700
     38 HN9         0.5560   -0.5660    0.6960 hn        1 CRJ      0.417800
     39 H11         0.2420    1.2720   -1.5860 h1        1 CRJ      0.103700
     40 H131       -1.2010    1.3520    1.1540 h1        1 CRJ      0.120700
     41 H132       -1.5600    2.2890   -0.3310 h1        1 CRJ      0.120700
     42 H151       -3.7100    1.3510    0.9080 h1        1 CRJ      0.117200
     43 H152       -3.9580    1.6470   -0.8390 h1        1 CRJ      0.117200
     44 HN16        0.8300    3.5050   -1.2460 hn        1 CRJ      0.322500
     45 H18        -4.9560   -0.6500   -1.0920 h1        1 CRJ      0.067700
     46 H191       -6.0720    1.8170    0.1280 hc        1 CRJ      0.058700
     47 H192       -6.8840    0.6090   -0.9450 hc        1 CRJ      0.058700
     48 H201       -7.2350    0.9520    1.9740 hc        1 CRJ      0.083200
     49 H202       -8.0200   -0.2860    0.9080 hc        1 CRJ      0.083200
     50 HN22       -4.2230   -1.6060    1.2090 hn        1 CRJ      0.355500
     51 H251        1.9590    6.6600    0.4430 hc        1 CRJ      0.093200
     52 H252        0.3630    5.8160    0.7680 hc        1 CRJ      0.093200
     53 H261        1.5550    4.1550    2.3490 hc        1 CRJ      0.093200
     54 H262        3.1490    5.0060    2.0330 hc        1 CRJ      0.093200
     55 N33         4.2520    4.6860   -1.2220 n1        1 CRJ     -0.346800
@<TRIPOS>BOND
     1    1    5 ar  
     2    1    6 ar  
     3    1    8 1   
     4    2    3 ar  
     5    2    6 ar  
     6    2   33 1   
     7    3    4 ar  
     8    3    7 1   
     9    4    5 ar  
    10    4   34 1   
    11    5   35 1   
    12    6   36 1   
    13    7    9 1   
    14    7   10 1   
    15    7   37 1   
    16    9   11 1   
    17    9   38 1   
    18   10   29 1   
    19   10   30 1   
    20   10   31 1   
    21   11   12 1   
    22   11   13 1   
    23   11   39 1   
    24   12   16 1   
    25   12   17 2   
    26   13   14 1   
    27   13   40 1   
    28   13   41 1   
    29   14   15 1   
    30   14   27 2   
    31   14   28 2   
    32   15   18 1   
    33   15   42 1   
    34   15   43 1   
    35   16   24 1   
    36   16   44 1   
    37   18   19 1   
    38   18   22 1   
    39   18   45 1   
    40   19   20 1   
    41   19   46 1   
    42   19   47 1   
    43   20   21 1   
    44   20   48 1   
    45   20   49 1   
    46   21   22 1   
    47   21   23 2   
    48   22   50 1   
    49   24   25 1   
    50   24   26 1   
    51   24   32 1   
    52   25   26 1   
    53   25   51 1   
    54   25   52 1   
    55   26   53 1   
    56   26   54 1   
    57   32   55 3   
@<TRIPOS>SUBSTRUCTURE
     1 CRJ         1 TEMP              0 ****  ****    0 ROOT
