@<TRIPOS>MOLECULE
CRJ
   55    53     1     0     0
SMALL
bcc


@<TRIPOS>ATOM
      1 C2         -3.8030   -1.3430   -5.4810 c1        1 CRJ      0.112000
      2 C4         -3.8710   -1.4290   -3.0710 c1        1 CRJ     -0.069000
      3 C5         -2.4800   -1.3690   -3.0290 c1        1 CRJ     -0.137000
      4 C6         -1.7510   -1.2960   -4.2130 c1        1 CRJ     -0.122000
      5 C1         -2.4120   -1.2830   -5.4390 c1        1 CRJ     -0.122000
      6 C3         -4.5320   -1.4160   -4.2980 c1        1 CRJ     -0.168000
      7 C8         -1.7550   -1.4470   -1.6920 c3        1 CRJ      0.015000
      8 F7         -4.4380   -1.3680   -6.6640 f         1 CRJ     -0.100000
      9 N9         -0.6500   -0.5380   -1.6940 n3        1 CRJ     -0.296000
     10 C10        -1.2520   -2.8520   -1.4740 c3        1 CRJ      0.406000
     11 C11        -0.4740    0.0020   -0.3830 c3        1 CRJ      0.018000
     12 C12        -1.5380    1.0520   -0.1220 c2        1 CRJ      0.255000
     13 C13         0.9050    0.6390   -0.2760 c3        1 CRJ     -0.869000
     14 S14         2.0100   -0.4670    0.6200 s4        1 CRJ      2.021800
     15 C15         3.4230    0.4490    1.2630 c2        1 CRJ     -0.869000
     16 N16        -1.8770    1.4130    1.2340 n         1 CRJ     -0.345000
     17 O17        -2.1640    1.5280   -1.0520 o         1 CRJ     -0.358000
     18 C18         4.1180   -0.3910    2.4150 c3        1 CRJ      0.045000
     19 C19         4.4420    0.5960    3.7250 c3        1 CRJ     -0.167000
     20 C20         5.3330    0.0260    4.4010 c3        1 CRJ     -0.195000
     21 C21         6.0670   -0.8370    3.3070 c2        1 CRJ      0.295000
     22 N22         5.1510   -0.8050    2.0420 n         1 CRJ     -0.393000
     23 O23         7.2330   -1.1960    3.3390 o         1 CRJ     -0.320000
     24 C24        -2.9580    2.3380    1.4870 cx        1 CRJ      0.080000
     25 C25        -2.2840    3.7990    0.9110 cx        1 CRJ     -0.177500
     26 C26        -2.1860    3.4760    2.5070 cx        1 CRJ     -0.177500
     27 O27         1.3130   -1.1600    1.6730 o         1 CRJ     -0.541400
     28 O28         2.4330   -1.5680   -0.2080 o         1 CRJ     -0.541400
     29 F29        -0.0540   -2.9950   -2.0640 f         1 CRJ     -0.164333
     30 F30        -1.1330   -3.0860   -0.1570 f         1 CRJ     -0.164333
     31 F31        -2.1200   -3.7280   -2.0080 f         1 CRJ     -0.164333
     32 N33        -5.4050    0.5780    1.2780 n1        1 CRJ     -0.029000
     33 C32        -4.4800    1.2430    1.3570 c1        1 CRJ     -0.128000
     34 H4         -4.3860   -1.4810   -2.2370 ha        1 CRJ      0.145000
     35 H6         -0.7710   -1.2530   -4.1830 ha        1 CRJ      0.156500
     36 H1         -1.8970   -1.2310   -6.2750 ha        1 CRJ      0.156500
     37 H3         -5.5130   -1.4590   -4.3270 ha        1 CRJ      0.156000
     38 H8         -2.3760   -1.2060   -0.9700 h1        1 CRJ      0.115000
     39 HN9        -0.8150    0.1430   -2.2860 hn        1 CRJ      0.207000
     40 H11        -0.5550   -0.7170    0.2810 h1        1 CRJ      0.140000
     41 H131        1.2620    0.7990   -1.1770 h1        1 CRJ      0.184000
     42 H132        0.8350    1.4930    0.2040 h1        1 CRJ      0.184000
     43 H151        4.0680    0.6080    0.5380 ha        1 CRJ      0.162500
     44 H152        3.1180    1.3100    1.6240 ha        1 CRJ      0.162500
     45 HN16       -1.4090    1.0500    1.9360 hn        1 CRJ      0.271000
     46 H18         3.5360   -1.1330    2.6890 h1        1 CRJ      0.108000
     47 H191        3.6300    0.7110    4.2690 hc        1 CRJ      0.101000
     48 H192        4.7660    1.4730    3.4140 hc        1 CRJ      0.101000
     49 H201        5.8410    0.7160    4.8900 hc        1 CRJ      0.125500
     50 H202        5.0170   -0.5540    5.1290 hc        1 CRJ      0.125500
     51 HN22        5.2990   -1.2580    1.2580 hn        1 CRJ      0.249000
     52 H251       -1.4480    3.7110    0.4090 hc        1 CRJ      0.130500
     53 H252       -2.9310    4.4940    0.6570 hc        1 CRJ      0.130500
     54 H261       -1.2980    3.2180    2.8340 hc        1 CRJ      0.130500
     55 H262       -2.7830    4.0010    3.0840 hc        1 CRJ      0.130500
@<TRIPOS>BOND
     1    1    6 1   
     2    1    8 1   
     3    2    3 1   
     4    2   34 1   
     5    3    7 1   
     6    4    5 1   
     7    4   35 1   
     8    5   36 1   
     9    6   37 1   
    10    7    9 1   
    11    7   10 1   
    12    7   38 1   
    13    9   11 1   
    14    9   39 1   
    15   10   29 1   
    16   10   30 1   
    17   10   31 1   
    18   11   12 1   
    19   11   13 1   
    20   11   40 1   
    21   12   16 1   
    22   12   17 1   
    23   13   14 1   
    24   13   41 1   
    25   13   42 1   
    26   14   27 1   
    27   14   28 1   
    28   15   18 1   
    29   15   43 1   
    30   15   44 1   
    31   16   24 1   
    32   16   45 1   
    33   18   19 1   
    34   18   22 1   
    35   18   46 1   
    36   19   20 1   
    37   19   47 1   
    38   19   48 1   
    39   20   21 1   
    40   20   49 1   
    41   20   50 1   
    42   21   22 1   
    43   21   23 1   
    44   22   51 1   
    45   24   25 1   
    46   24   26 1   
    47   24   33 1   
    48   25   26 1   
    49   25   52 1   
    50   25   53 1   
    51   26   54 1   
    52   26   55 1   
    53   32   33 1   
@<TRIPOS>SUBSTRUCTURE
     1 CRJ         1 TEMP              0 ****  ****    0 ROOT
