@<TRIPOS>MOLECULE
CRJ
   57    59     1     0     0
SMALL
bcc


@<TRIPOS>ATOM
      1 C2          1.5310   -0.1370   -0.8790 ca        1 CRJ      0.223900
      2 C4          1.0140    0.8290    1.2800 ca        1 CRJ     -0.055000
      3 C5          2.1990    0.2850    1.8020 ca        1 CRJ     -0.253300
      4 C6          3.0500   -0.4690    0.9760 ca        1 CRJ     -0.055000
      5 C1          2.7270   -0.6800   -0.3550 ca        1 CRJ     -0.161500
      6 C3          0.6750    0.6210   -0.0490 ca        1 CRJ     -0.161500
      7 C8          2.5190    0.4940    3.2390 c3        1 CRJ      0.163800
      8 F7          1.2100   -0.3410   -2.1670 f         1 CRJ     -0.082900
      9 N9          3.7670    1.3540    3.3370 n4        1 CRJ     -0.781000
     10 C10         2.7040   -0.8820    4.0220 c3        1 CRJ      0.632900
     11 C11         4.2140    1.7110    4.7200 c3        1 CRJ      0.092500
     12 C12         3.2200    2.6470    5.4360 c         1 CRJ      0.518100
     13 C13         5.5820    2.3820    4.7370 c3        1 CRJ     -0.321600
     14 S14         6.4770    2.0170    6.2350 s6        1 CRJ      1.306000
     15 C15         7.9970    1.5440    5.7390 c3        1 CRJ     -0.342600
     16 N16         3.4220    2.7680    6.9150 n4        1 CRJ     -0.632800
     17 O17         2.3400    3.2800    4.8750 o         1 CRJ     -0.372100
     18 C18         8.1000    0.1000    5.1910 c3        1 CRJ      0.098700
     19 C19         9.2450   -0.0170    4.1490 c3        1 CRJ     -0.099400
     20 C20         8.5590   -0.1800    2.7930 c3        1 CRJ     -0.171400
     21 C21         7.0820   -0.2760    3.1040 c         1 CRJ      0.701500
     22 N22         6.8490   -0.2450    4.5110 n         1 CRJ     -0.621900
     23 O23         6.1290   -0.2500    2.3100 o         1 CRJ     -0.638500
     24 C24         2.1970    3.1640    7.6670 cx        1 CRJ      0.067300
     25 C25         2.3660    3.8420    9.0310 cx        1 CRJ     -0.059400
     26 C26         1.8640    4.6420    7.8760 cx        1 CRJ     -0.059400
     27 O27         6.3970    3.2440    6.9090 o         1 CRJ     -0.655300
     28 O28         5.6870    1.0360    6.8700 o         1 CRJ     -0.655300
     29 F29         3.9560   -1.4280    3.9030 f         1 CRJ     -0.203967
     30 F30         2.5360   -0.6980    5.3740 f         1 CRJ     -0.203967
     31 F31         1.8120   -1.8360    3.6580 f         1 CRJ     -0.203967
     32 N33         0.2210    1.5020    7.3800 n1        1 CRJ     -0.205800
     33 C32         1.1200    2.2310    7.4930 c1        1 CRJ      0.158700
     34 H4          0.3330    1.4110    1.9230 ha        1 CRJ      0.156000
     35 H6          3.9750   -0.9150    1.3840 ha        1 CRJ      0.156000
     36 H1          3.3850   -1.2760   -1.0100 ha        1 CRJ      0.189000
     37 H3         -0.2610    1.0330   -0.4650 ha        1 CRJ      0.189000
     38 H8          1.6790    1.0460    3.7620 hx        1 CRJ      0.133700
     39 HN9         3.5930    2.2090    2.7880 hn        1 CRJ      0.493300
     40 H11         4.2660    0.7170    5.2930 hx        1 CRJ      0.182700
     41 H131        5.4740    3.5000    4.6460 h1        1 CRJ      0.146700
     42 H132        6.1850    2.0970    3.8330 h1        1 CRJ      0.146700
     43 H151        8.7400    1.6040    6.5940 h1        1 CRJ      0.170200
     44 H152        8.4330    2.2480    4.9730 h1        1 CRJ      0.170200
     45 HN16        3.7530    1.8550    7.2950 hn        1 CRJ      0.504300
     46 H18         8.2900   -0.5950    6.0580 h1        1 CRJ      0.109700
     47 H191        9.9120    0.8780    4.1670 hc        1 CRJ      0.095200
     48 H192        9.8740   -0.9120    4.3860 hc        1 CRJ      0.095200
     49 H201        8.7600    0.6800    2.1050 hc        1 CRJ      0.119700
     50 H202        8.8880   -1.1160    2.2670 hc        1 CRJ      0.119700
     51 HN22        6.3220   -1.0010    4.9000 hn        1 CRJ      0.336500
     52 H251        3.3850    4.0280    9.4250 hc        1 CRJ      0.129950
     53 H252        1.6680    3.5290    9.8370 hc        1 CRJ      0.129950
     54 H261        2.5150    5.4150    7.4230 hc        1 CRJ      0.129950
     55 H262        0.7930    4.9310    7.8250 hc        1 CRJ      0.129950
     56 H92         4.5450    0.8230    2.8800 hn        1 CRJ      0.493300
     57 H162        4.1620    3.4760    7.0970 hn        1 CRJ      0.504300
@<TRIPOS>BOND
     1    1    5 ar  
     2    1    6 ar  
     3    1    8 1   
     4    2    3 ar  
     5    2    6 ar  
     6    2   34 1   
     7    3    4 ar  
     8    3    7 1   
     9    4    5 ar  
    10    4   35 1   
    11    5   36 1   
    12    6   37 1   
    13    7    9 1   
    14    7   10 1   
    15    7   38 1   
    16    9   11 1   
    17    9   39 1   
    18    9   56 1   
    19   10   29 1   
    20   10   30 1   
    21   10   31 1   
    22   11   12 1   
    23   11   13 1   
    24   11   40 1   
    25   12   16 1   
    26   12   17 2   
    27   13   14 1   
    28   13   41 1   
    29   13   42 1   
    30   14   15 1   
    31   14   27 2   
    32   14   28 2   
    33   15   18 1   
    34   15   43 1   
    35   15   44 1   
    36   16   24 1   
    37   16   45 1   
    38   16   57 1   
    39   18   19 1   
    40   18   22 1   
    41   18   46 1   
    42   19   20 1   
    43   19   47 1   
    44   19   48 1   
    45   20   21 1   
    46   20   49 1   
    47   20   50 1   
    48   21   22 1   
    49   21   23 2   
    50   22   51 1   
    51   24   25 1   
    52   24   26 1   
    53   24   33 1   
    54   25   26 1   
    55   25   52 1   
    56   25   53 1   
    57   26   54 1   
    58   26   55 1   
    59   32   33 3   
@<TRIPOS>SUBSTRUCTURE
     1 CRJ         1 TEMP              0 ****  ****    0 ROOT
