@<TRIPOS>MOLECULE
CRJ
   57    59     1     0     0
SMALL
bcc


@<TRIPOS>ATOM
      1 C2          1.4950   -0.1270   -0.8620 ca        1 CRJ      0.223900
      2 C4          0.9910    0.8260    1.3060 ca        1 CRJ     -0.055000
      3 C5          2.1830    0.2860    1.8150 ca        1 CRJ     -0.253300
      4 C6          3.0300   -0.4600    0.9780 ca        1 CRJ     -0.055000
      5 C1          2.6980   -0.6660   -0.3510 ca        1 CRJ     -0.161500
      6 C3          0.6420    0.6230   -0.0210 ca        1 CRJ     -0.161500
      7 C8          2.5140    0.4900    3.2500 c3        1 CRJ      0.163800
      8 F7          1.1640   -0.3270   -2.1480 f         1 CRJ     -0.082900
      9 N9          3.7580    1.3560    3.3420 ny        1 CRJ     -0.781000
     10 C10         2.7130   -0.8890    4.0250 c3        1 CRJ      0.632900
     11 C11         4.2140    1.7090    4.7230 c3        1 CRJ      0.092500
     12 C12         3.2220    2.6350    5.4520 c         1 CRJ      0.518100
     13 C13         5.5790    2.3870    4.7320 c3        1 CRJ     -0.321600
     14 S14         6.4890    2.0190    6.2210 s6        1 CRJ      1.306000
     15 C15         8.0070    1.5560    5.7100 c3        1 CRJ     -0.342600
     16 N16         3.4350    2.7510    6.9300 ny        1 CRJ     -0.632800
     17 O17         2.3340    3.2660    4.9020 o         1 CRJ     -0.372100
     18 C18         8.1130    0.1150    5.1540 c3        1 CRJ      0.098700
     19 C19         9.2490    0.0090    4.1020 c3        1 CRJ     -0.099400
     20 C20         8.5530   -0.1510    2.7510 c3        1 CRJ     -0.171400
     21 C21         7.0790   -0.2560    3.0750 c         1 CRJ      0.701500
     22 N22         6.8580   -0.2330    4.4830 ns        1 CRJ     -0.621900
     23 O23         6.1200   -0.2310    2.2880 o         1 CRJ     -0.638500
     24 C24         2.2140    3.1360    7.6940 cx        1 CRJ      0.067300
     25 C25         2.3910    3.8090    9.0600 cx        1 CRJ     -0.059400
     26 C26         1.8750    4.6110    7.9130 cx        1 CRJ     -0.059400
     27 O27         6.4080    3.2430    6.9010 o         1 CRJ     -0.655300
     28 O28         5.7090    1.0320    6.8580 o         1 CRJ     -0.655300
     29 F29         3.9660   -1.4280    3.8930 f         1 CRJ     -0.203967
     30 F30         2.5550   -0.7130    5.3790 f         1 CRJ     -0.203967
     31 F31         1.8230   -1.8460    3.6640 f         1 CRJ     -0.203967
     32 N33         0.2460    1.4650    7.4150 n1        1 CRJ     -0.205800
     33 C32         1.1410    2.1980    7.5240 c1        1 CRJ      0.158700
     34 H4          0.3130    1.4020    1.9570 ha        1 CRJ      0.156000
     35 H6          3.9620   -0.9030    1.3770 ha        1 CRJ      0.156000
     36 H1          3.3540   -1.2560   -1.0140 ha        1 CRJ      0.189000
     37 H3         -0.2990    1.0320   -0.4270 ha        1 CRJ      0.189000
     38 H8          1.6750    1.0340    3.7830 hx        1 CRJ      0.133700
     39 HN9         3.5750    2.2120    2.7990 hn        1 CRJ      0.493300
     40 H11         4.2770    0.7120    5.2910 hx        1 CRJ      0.182700
     41 H131        5.4640    3.5040    4.6470 h1        1 CRJ      0.146700
     42 H132        6.1760    2.1090    3.8220 h1        1 CRJ      0.146700
     43 H151        8.4330    2.2660    4.9430 h1        1 CRJ      0.170200
     44 H152        8.7560    1.6160    6.5590 h1        1 CRJ      0.170200
     45 HN16        4.1730    3.4620    7.1090 hn        1 CRJ      0.504300
     46 H18         8.3140   -0.5830    6.0160 h1        1 CRJ      0.109700
     47 H191        9.8860   -0.8840    4.3300 hc        1 CRJ      0.095200
     48 H192        9.9130    0.9070    4.1190 hc        1 CRJ      0.095200
     49 H201        8.8820   -1.0830    2.2190 hc        1 CRJ      0.119700
     50 H202        8.7440    0.7130    2.0660 hc        1 CRJ      0.119700
     51 HN22        6.3380   -0.9940    4.8720 hn        1 CRJ      0.336500
     52 H251        1.7020    3.4880    9.8700 hc        1 CRJ      0.129950
     53 H252        3.4120    3.9980    9.4460 hc        1 CRJ      0.129950
     54 H261        2.5180    5.3900    7.4590 hc        1 CRJ      0.129950
     55 H262        0.8010    4.8940    7.8720 hc        1 CRJ      0.129950
     56 H92         4.5350    0.8310    2.8760 hn        1 CRJ      0.493300
     57 H162        3.7740    1.8380    7.3030 hn        1 CRJ      0.504300
@<TRIPOS>BOND
     1    1    5 ar  
     2    1    6 ar  
     3    1    8 1   
     4    2    3 ar  
     5    2    6 ar  
     6    2   34 1   
     7    3    4 ar  
     8    3    7 1   
     9    4    5 ar  
    10    4   35 1   
    11    5   36 1   
    12    6   37 1   
    13    7    9 1   
    14    7   10 1   
    15    7   38 1   
    16    9   11 1   
    17    9   39 1   
    18    9   56 1   
    19   10   29 1   
    20   10   30 1   
    21   10   31 1   
    22   11   12 1   
    23   11   13 1   
    24   11   40 1   
    25   12   16 1   
    26   12   17 2   
    27   13   14 1   
    28   13   41 1   
    29   13   42 1   
    30   14   15 1   
    31   14   27 2   
    32   14   28 2   
    33   15   18 1   
    34   15   43 1   
    35   15   44 1   
    36   16   24 1   
    37   16   45 1   
    38   16   57 1   
    39   18   19 1   
    40   18   22 1   
    41   18   46 1   
    42   19   20 1   
    43   19   47 1   
    44   19   48 1   
    45   20   21 1   
    46   20   49 1   
    47   20   50 1   
    48   21   22 1   
    49   21   23 2   
    50   22   51 1   
    51   24   25 1   
    52   24   26 1   
    53   24   33 1   
    54   25   26 1   
    55   25   52 1   
    56   25   53 1   
    57   26   54 1   
    58   26   55 1   
    59   32   33 3   
@<TRIPOS>SUBSTRUCTURE
     1 CRJ         1 TEMP              0 ****  ****    0 ROOT
