@<TRIPOS>MOLECULE
CRK
   38    32     1     0     0
SMALL
bcc


@<TRIPOS>ATOM
      1 C1         -1.2660   -0.4150    0.7640 c1        1 CRK     -0.146000
      2 C2         -0.6300   -0.4060    2.9750 c1        1 CRK      0.316000
      3 C3         -3.1650   -1.6770    3.5270 c1        1 CRK      0.165000
      4 CA1        -1.9830    0.2090   -0.4140 c1        1 CRK      0.321000
      5 CA2         0.5980   -0.5160    1.9950 c1        1 CRK     -0.302000
      6 CA3        -3.1690   -0.6770    2.3910 c2        1 CRK     -0.061000
      7 CB         -1.1920    0.7180   -1.5970 c3        1 CRK     -0.188000
      8 CB2         1.9040   -0.6000    2.3150 c1        1 CRK      0.114000
      9 CD2         3.3560   -1.9450    0.7690 c1        1 CRK     -0.161500
     10 CD1         3.5690    0.4470    0.7540 c1        1 CRK     -0.002000
     11 CE         -2.3870    2.9890   -4.9510 c3        1 CRK     -0.342000
     12 CE2         4.3870   -2.0420   -0.1530 c1        1 CRK     -0.161500
     13 CE1         4.6010    0.3490   -0.1670 c1        1 CRK     -0.308000
     14 CG         -2.1430    1.2440   -2.6530 c3        1 CRK     -0.264000
     15 CG2         2.9470   -0.7000    1.2230 c1        1 CRK     -0.240000
     16 CZ          5.0090   -0.8960   -0.6210 c1        1 CRK      0.294000
     17 N2          0.0480   -0.5070    0.7620 n2        1 CRK     -0.052000
     18 N3         -1.8310   -0.3440    2.0480 n3        1 CRK     -0.274000
     19 O1         -3.1940    0.2930   -0.4110 o         1 CRK     -0.357000
     20 O2         -0.6450   -0.7430    4.1410 o         1 CRK     -0.414000
     21 O3         -2.3590   -2.5890    3.5320 o         1 CRK     -0.282000
     22 OH          6.2110   -1.1870   -1.2900 o         1 CRK     -0.406000
     23 SD         -1.3240    2.4780   -3.6260 ss        1 CRK      0.067000
     24 H3         -3.8050   -1.5870    4.2610 ha        1 CRK      0.063000
     25 HA31       -3.6460    0.1320    2.6710 h4        1 CRK      0.124500
     26 HA32       -3.6190   -1.0680    1.6130 h4        1 CRK      0.124500
     27 HB1        -0.6600   -0.0110   -1.9730 hc        1 CRK      0.133500
     28 HB2A       -0.5970    1.4390   -1.3060 hc        1 CRK      0.133500
     29 HB2         2.1780   -0.5960    3.2520 ha        1 CRK      0.123000
     30 HD2         2.9170   -2.7530    1.0980 ha        1 CRK      0.112000
     31 HD1         3.2820    1.3240    1.0740 ha        1 CRK      0.138000
     32 HE1A       -2.4420    2.2750   -5.6200 h1        1 CRK      0.095667
     33 HE2A       -3.2830    3.1750   -4.5980 h1        1 CRK      0.095667
     34 HE3        -2.0260    3.7990   -5.3660 h1        1 CRK      0.095667
     35 HE2         4.6750   -2.9190   -0.4730 ha        1 CRK      0.112000
     36 HE1         5.0390    1.1580   -0.4970 ha        1 CRK      0.124000
     37 HG1        -2.4270    0.5080   -3.2310 h1        1 CRK      0.105500
     38 HG2        -2.9270    1.6390   -2.2180 h1        1 CRK      0.105500
@<TRIPOS>BOND
     1    1   17 1   
     2    1   18 1   
     3    2   18 1   
     4    2   20 1   
     5    3   21 1   
     6    3   24 1   
     7    4    7 1   
     8    4   19 1   
     9    5    8 1   
    10    5   17 1   
    11    6   18 1   
    12    6   25 1   
    13    6   26 1   
    14    7   14 1   
    15    7   27 1   
    16    7   28 1   
    17    8   29 1   
    18    9   12 1   
    19    9   30 1   
    20   10   15 1   
    21   10   31 1   
    22   11   23 1   
    23   11   32 1   
    24   11   33 1   
    25   11   34 1   
    26   12   35 1   
    27   13   16 1   
    28   13   36 1   
    29   14   23 1   
    30   14   37 1   
    31   14   38 1   
    32   16   22 1   
@<TRIPOS>SUBSTRUCTURE
     1 CRK         1 TEMP              0 ****  ****    0 ROOT
