@<TRIPOS>MOLECULE
CRK
   38    39     1     0     0
SMALL
bcc


@<TRIPOS>ATOM
      1 C1         -1.2090   -0.5880    0.2830 cc        1 CRK      0.135600
      2 C2          0.9980   -1.2270    0.3960 c         1 CRK      0.599200
      3 C3         -0.8720   -3.7610   -0.7990 c         1 CRK      0.559900
      4 CA1        -2.6780   -0.6580    0.3160 c         1 CRK      0.532800
      5 CA2         0.8620    0.2260    0.1520 cd        1 CRK      0.138600
      6 CA3        -0.7170   -3.0770    0.5460 c3        1 CRK     -0.004000
      7 CB         -3.3910    0.6450    0.0670 c3        1 CRK     -0.158400
      8 CB2         1.8130    1.2430   -0.0120 cf        1 CRK      0.025400
      9 CD2         4.0730    0.1410    0.0470 cc        1 CRK     -0.024500
     10 CD1         3.8320    2.5550   -0.2290 cc        1 CRK     -0.024500
     11 CE         -7.3320    1.6690   -0.1350 c3        1 CRK     -0.040000
     12 CE2         5.4210    0.2660   -0.0140 cd        1 CRK     -0.314700
     13 CE1         5.1740    2.7030   -0.2910 cd        1 CRK     -0.314700
     14 CG         -4.8870    0.4740    0.1000 c3        1 CRK     -0.002300
     15 CG2         3.1920    1.2700   -0.0560 cc        1 CRK     -0.233000
     16 CZ          6.0760    1.5560   -0.1880 c         1 CRK      0.570500
     17 N2         -0.5070    0.5430    0.0970 nc        1 CRK     -0.587000
     18 N3         -0.3490   -1.7040    0.5070 n         1 CRK     -0.392400
     19 O1         -3.2990   -1.7100    0.5330 o         1 CRK     -0.583100
     20 O2          1.9660   -1.9990    0.5310 o         1 CRK     -0.678500
     21 O3         -1.2030   -4.9460   -0.8820 o         1 CRK     -0.561100
     22 OH          7.3190    1.6840   -0.2450 o         1 CRK     -0.639100
     23 SD         -5.6250    2.0550   -0.2030 ss        1 CRK     -0.305200
     24 H3         -0.6700   -3.1510   -1.7080 h4        1 CRK      0.000200
     25 HA31       -1.6930   -3.1900    1.1040 h1        1 CRK      0.094700
     26 HA32        0.0930   -3.6310    1.1110 h1        1 CRK      0.094700
     27 HB1        -3.0650    1.3850    0.8480 hc        1 CRK      0.090700
     28 HB2A       -3.0650    1.0470   -0.9300 hc        1 CRK      0.090700
     29 HB2         1.3430    2.2500   -0.1350 ha        1 CRK      0.110000
     30 HD2         3.6230   -0.8570    0.1790 ha        1 CRK      0.131500
     31 HD1         3.1780    3.4410   -0.3100 ha        1 CRK      0.131500
     32 HE1A       -7.6200    0.9270   -0.9130 h1        1 CRK      0.057367
     33 HE2A       -7.6260    1.2660    0.8600 h1        1 CRK      0.057367
     34 HE3        -7.8790    2.6210   -0.3180 h1        1 CRK      0.057367
     35 HE2         6.0780   -0.6120    0.0660 ha        1 CRK      0.124000
     36 HE1         5.6410    3.6890   -0.4220 ha        1 CRK      0.124000
     37 HG1        -5.2110   -0.2630   -0.6750 h1        1 CRK      0.067700
     38 HG2        -5.2110    0.0750    1.0920 h1        1 CRK      0.067700
@<TRIPOS>BOND
     1    1    4 1   
     2    1   17 1   
     3    1   18 2   
     4    2    5 1   
     5    2   18 1   
     6    2   20 2   
     7    3    6 1   
     8    3   21 2   
     9    3   24 1   
    10    4    7 1   
    11    4   19 2   
    12    5    8 1   
    13    5   17 2   
    14    6   18 1   
    15    6   25 1   
    16    6   26 1   
    17    7   14 1   
    18    7   27 1   
    19    7   28 1   
    20    8   15 2   
    21    8   29 1   
    22    9   12 2   
    23    9   15 1   
    24    9   30 1   
    25   10   13 2   
    26   10   15 1   
    27   10   31 1   
    28   11   23 1   
    29   11   32 1   
    30   11   33 1   
    31   11   34 1   
    32   12   16 1   
    33   12   35 1   
    34   13   16 1   
    35   13   36 1   
    36   14   23 1   
    37   14   37 1   
    38   14   38 1   
    39   16   22 2   
@<TRIPOS>SUBSTRUCTURE
     1 CRK         1 TEMP              0 ****  ****    0 ROOT
