@<TRIPOS>MOLECULE
CRL
   58    58     1     0     0
SMALL
bcc


@<TRIPOS>ATOM
      1 N1         -1.1140    0.9400   -0.5590 n         1 CRL     -0.343000
      2 C1         -1.8900   -0.2410   -0.4330 c2        1 CRL      0.386000
      3 O1         -1.3450   -1.3270   -0.4120 o         1 CRL     -0.409000
      4 N2         -3.3010   -0.1530   -0.3070 n         1 CRL     -0.318000
      5 C2         -4.3350   -1.2430   -0.1370 c3        1 CRL     -0.062000
      6 C3         -5.3280   -1.2770   -1.2790 c3        1 CRL     -0.037000
      7 O2         -5.3130   -0.1580   -1.9370 os        1 CRL     -0.273000
      8 C4         -5.1980    1.0370   -1.4450 c3        1 CRL     -0.037000
      9 C5         -4.2070    1.0570   -0.3020 c3        1 CRL     -0.062000
     10 C6          0.3030    0.8590   -0.5780 c3        1 CRL      0.031000
     11 C7          0.8280    0.8650    0.8400 c2        1 CRL      0.274000
     12 O3          0.5800    1.8000    1.5750 o         1 CRL     -0.361000
     13 N3          1.6550   -0.1950    1.2940 n         1 CRL     -0.369000
     14 C8          2.1910   -0.1630    2.6070 c3        1 CRL      0.179000
     15 C9          2.4850    1.2710    2.7560 c1        1 CRL     -0.172000
     16 N4          2.7130    2.3830    2.8720 n1        1 CRL     -0.014000
     17 C10         3.5140   -1.0270    2.7000 c3        1 CRL     -0.134000
     18 C11         3.3130   -2.5340    2.6240 c3        1 CRL     -0.854000
     19 S1          2.1830   -3.0290    3.7970 s4        1 CRL      2.022800
     20 O4          1.9050   -4.4270    3.6170 o         1 CRL     -0.534400
     21 O5          2.7370   -2.8200    5.1060 o         1 CRL     -0.534400
     22 C12         0.7690   -2.1260    3.6670 c2        1 CRL     -0.858000
     23 C13         1.0940   -0.6480    3.6940 c3        1 CRL     -0.132000
     24 C14         0.8660    2.0460   -1.3290 c3        1 CRL     -0.511000
     25 SI1         1.6030    1.4700   -2.9410 Si        1 CRL      1.251000
     26 C15         0.8740   -0.1830   -3.4020 c3        1 CRL     -0.574333
     27 C16         1.2220    2.7120   -4.2780 c3        1 CRL     -0.574333
     28 C17         3.4510    1.3030   -2.7550 c3        1 CRL     -0.574333
     29 HN1        -1.5260    1.7520   -0.6090 hn        1 CRL      0.231000
     30 H21        -4.8200   -1.0930    0.7000 h1        1 CRL      0.104000
     31 H22        -3.8800   -2.1080   -0.0880 h1        1 CRL      0.104000
     32 H31        -6.2270   -1.4270   -0.9200 h1        1 CRL      0.097750
     33 H32        -5.0960   -2.0100   -1.8860 h1        1 CRL      0.097750
     34 H41        -4.8910    1.6470   -2.1480 h1        1 CRL      0.097750
     35 H42        -6.0730    1.3360   -1.1190 h1        1 CRL      0.097750
     36 H51        -4.6990    1.0820    0.5430 h1        1 CRL      0.104000
     37 H52        -3.6580    1.8640   -0.3730 h1        1 CRL      0.104000
     38 H6          0.5770    0.0330   -1.0240 h1        1 CRL      0.147000
     39 HN3         1.8550   -0.8880    0.7360 hn        1 CRL      0.229000
     40 H101        3.9570   -0.8200    3.5470 hc        1 CRL      0.114500
     41 H102        4.1070   -0.7600    1.9680 hc        1 CRL      0.114500
     42 H111        3.1340   -2.9200    1.7430 h1        1 CRL      0.161000
     43 H112        4.1810   -2.9420    2.8180 h1        1 CRL      0.161000
     44 H121        0.1680   -2.3880    2.9400 ha        1 CRL      0.167500
     45 H122        0.2070   -2.3360    4.4410 ha        1 CRL      0.167500
     46 H131        0.2670   -0.1500    3.5380 hc        1 CRL      0.129500
     47 H132        1.4260   -0.4240    4.5860 hc        1 CRL      0.129500
     48 H141        1.5590    2.4750   -0.7880 hc        1 CRL      0.105000
     49 H142        0.1490    2.6870   -1.5090 hc        1 CRL      0.105000
     50 H151        1.2060   -0.8700   -2.7870 hc        1 CRL      0.092000
     51 H152        1.1350   -0.4110   -4.3190 hc        1 CRL      0.092000
     52 H153       -0.1030   -0.1370   -3.3430 hc        1 CRL      0.092000
     53 H161        0.2830    2.6280   -4.5440 hc        1 CRL      0.092000
     54 H162        1.3860    3.6170   -3.9390 hc        1 CRL      0.092000
     55 H163        1.7980    2.5440   -5.0530 hc        1 CRL      0.092000
     56 H171        3.8620    1.2170   -3.6410 hc        1 CRL      0.092000
     57 H172        3.8070    2.0980   -2.3050 hc        1 CRL      0.092000
     58 H173        3.6550    0.5070   -2.2210 hc        1 CRL      0.092000
@<TRIPOS>BOND
     1    1    2 1   
     2    1   10 1   
     3    1   29 1   
     4    2    3 1   
     5    2    4 1   
     6    4    5 1   
     7    4    9 1   
     8    5    6 1   
     9    5   30 1   
    10    5   31 1   
    11    6    7 1   
    12    6   32 1   
    13    6   33 1   
    14    7    8 1   
    15    8    9 1   
    16    8   34 1   
    17    8   35 1   
    18    9   36 1   
    19    9   37 1   
    20   10   11 1   
    21   10   24 1   
    22   10   38 1   
    23   11   12 1   
    24   11   13 1   
    25   13   14 1   
    26   13   39 1   
    27   14   15 1   
    28   14   17 1   
    29   14   23 1   
    30   15   16 1   
    31   17   18 1   
    32   17   40 1   
    33   17   41 1   
    34   18   19 1   
    35   18   42 1   
    36   18   43 1   
    37   19   20 1   
    38   19   21 1   
    39   22   23 1   
    40   22   44 1   
    41   22   45 1   
    42   23   46 1   
    43   23   47 1   
    44   24   25 1   
    45   24   48 1   
    46   24   49 1   
    47   25   26 1   
    48   25   27 1   
    49   25   28 1   
    50   26   50 1   
    51   26   51 1   
    52   26   52 1   
    53   27   53 1   
    54   27   54 1   
    55   27   55 1   
    56   28   56 1   
    57   28   57 1   
    58   28   58 1   
@<TRIPOS>SUBSTRUCTURE
     1 CRL         1 TEMP              0 ****  ****    0 ROOT
