@<TRIPOS>MOLECULE
CRL
   60    61     1     0     0
SMALL
bcc


@<TRIPOS>ATOM
      1 N1         -0.2290    0.5750   -0.0370 n4        1 CRL     -0.677800
      2 C1         -0.7260   -0.7980    0.4740 c         1 CRL      0.643100
      3 O1          0.2070   -1.5110    0.8940 o         1 CRL     -0.607100
      4 N2         -2.0500   -1.0730    0.4690 n         1 CRL     -0.367800
      5 C2         -3.0720   -0.1940   -0.0840 c3        1 CRL      0.030000
      6 C3         -4.4590   -0.4100    0.5630 c3        1 CRL      0.114400
      7 O2         -4.7870   -1.7850    0.6170 os        1 CRL     -0.362600
      8 C4         -3.8620   -2.5140    1.4110 c3        1 CRL      0.114400
      9 C5         -2.4560   -2.4500    0.7960 c3        1 CRL      0.030000
     10 C6          1.2740    0.5910   -0.1720 c3        1 CRL      0.133500
     11 C7          1.8930    0.4880    1.2430 c         1 CRL      0.519100
     12 O3          1.5880    1.2370    2.1580 o         1 CRL     -0.375100
     13 N3          2.9060   -0.5870    1.4400 n4        1 CRL     -0.666800
     14 C8          3.5550   -0.6740    2.8350 c3        1 CRL      0.247300
     15 C9          2.4900   -0.7630    3.8320 c1        1 CRL      0.122700
     16 N4          1.6690   -0.8320    4.6520 n1        1 CRL     -0.194800
     17 C10         4.4320    0.5610    3.1270 c3        1 CRL     -0.067900
     18 C11         5.6470    0.6480    2.2480 c3        1 CRL     -0.341100
     19 S1          6.7610   -0.6690    2.3870 s6        1 CRL      1.343000
     20 O4          7.6490   -0.5820    1.3280 o         1 CRL     -0.594800
     21 O5          7.1630   -0.7850    3.7050 o         1 CRL     -0.594800
     22 C12         5.6250   -1.9210    2.0270 c3        1 CRL     -0.341100
     23 C13         4.4100   -1.9630    2.9090 c3        1 CRL     -0.067900
     24 C14         1.7910    1.8530   -0.8250 c3        1 CRL     -0.346400
     25 SI1         1.7410    1.9150   -2.7500 Si        1 CRL      0.698000
     26 C15         2.7610    0.5330   -3.3120 c3        1 CRL     -0.339100
     27 C16        -0.0070    1.6560   -3.1770 c3        1 CRL     -0.339100
     28 C17         2.3630    3.5320   -3.2140 c3        1 CRL     -0.339100
     29 HN1        -0.5200    1.3110    0.6200 hn        1 CRL      0.482300
     30 H21        -2.8010    0.8860    0.0770 h1        1 CRL      0.085950
     31 H22        -3.1550   -0.4010   -1.1910 h1        1 CRL      0.085950
     32 H31        -5.2470    0.0510   -0.0940 h1        1 CRL      0.098200
     33 H32        -4.4860    0.0450    1.5880 h1        1 CRL      0.098200
     34 H41        -3.8610   -2.1340    2.4660 h1        1 CRL      0.098200
     35 H42        -4.2320   -3.5760    1.3780 h1        1 CRL      0.098200
     36 H51        -2.4420   -3.0420   -0.1650 h1        1 CRL      0.085950
     37 H52        -1.7150   -2.8960    1.5170 h1        1 CRL      0.085950
     38 H6          1.5490   -0.3140   -0.7990 hx        1 CRL      0.133700
     39 HN3         3.6670   -0.4630    0.7600 hn        1 CRL      0.482800
     40 H101        4.7570    0.4750    4.2070 hc        1 CRL      0.115200
     41 H102        3.8170    1.4970    3.0530 hc        1 CRL      0.115200
     42 H111        5.3740    0.8300    1.1790 h1        1 CRL      0.128200
     43 H112        6.1930    1.5940    2.5500 h1        1 CRL      0.128200
     44 H121        6.1520   -2.9160    2.1610 h1        1 CRL      0.128200
     45 H122        5.3490   -1.9170    0.9420 h1        1 CRL      0.128200
     46 H131        4.7330   -2.0680    3.9880 hc        1 CRL      0.115200
     47 H132        3.7800   -2.8630    2.6760 hc        1 CRL      0.115200
     48 H141        2.8740    1.9680   -0.5580 hc        1 CRL      0.099700
     49 H142        1.2750    2.7640   -0.4310 hc        1 CRL      0.099700
     50 H151        2.7760    0.4770   -4.4310 hc        1 CRL      0.073033
     51 H152        2.3970   -0.4590   -2.9570 hc        1 CRL      0.073033
     52 H153        3.8270    0.6320   -2.9980 hc        1 CRL      0.073033
     53 H161       -0.7030    2.2940   -2.5830 hc        1 CRL      0.073033
     54 H162       -0.1840    1.9370   -4.2490 hc        1 CRL      0.073033
     55 H163       -0.3320    0.5940   -3.0880 hc        1 CRL      0.073033
     56 H171        2.3050    3.6970   -4.3200 hc        1 CRL      0.073033
     57 H172        1.7910    4.3680   -2.7440 hc        1 CRL      0.073033
     58 H173        3.4350    3.6780   -2.9360 hc        1 CRL      0.073033
     59 H12        -0.6370    0.7820   -0.9640 hn        1 CRL      0.482300
     60 H321        2.4340   -1.4920    1.2580 hn        1 CRL      0.482800
@<TRIPOS>BOND
     1    1    2 1   
     2    1   10 1   
     3    1   29 1   
     4    1   59 1   
     5    2    3 2   
     6    2    4 1   
     7    4    5 1   
     8    4    9 1   
     9    5    6 1   
    10    5   30 1   
    11    5   31 1   
    12    6    7 1   
    13    6   32 1   
    14    6   33 1   
    15    7    8 1   
    16    8    9 1   
    17    8   34 1   
    18    8   35 1   
    19    9   36 1   
    20    9   37 1   
    21   10   11 1   
    22   10   24 1   
    23   10   38 1   
    24   11   12 2   
    25   11   13 1   
    26   13   14 1   
    27   13   39 1   
    28   13   60 1   
    29   14   15 1   
    30   14   17 1   
    31   14   23 1   
    32   15   16 3   
    33   17   18 1   
    34   17   40 1   
    35   17   41 1   
    36   18   19 1   
    37   18   42 1   
    38   18   43 1   
    39   19   20 2   
    40   19   21 2   
    41   19   22 1   
    42   22   23 1   
    43   22   44 1   
    44   22   45 1   
    45   23   46 1   
    46   23   47 1   
    47   24   25 1   
    48   24   48 1   
    49   24   49 1   
    50   25   26 1   
    51   25   27 1   
    52   25   28 1   
    53   26   50 1   
    54   26   51 1   
    55   26   52 1   
    56   27   53 1   
    57   27   54 1   
    58   27   55 1   
    59   28   56 1   
    60   28   57 1   
    61   28   58 1   
@<TRIPOS>SUBSTRUCTURE
     1 CRL         1 TEMP              0 ****  ****    0 ROOT
