@<TRIPOS>MOLECULE
CRL
   60    61     1     0     0
SMALL
bcc


@<TRIPOS>ATOM
      1 N1         -0.2300    0.5680   -0.0410 ny        1 CRL     -0.677800
      2 C1         -0.7270   -0.8010    0.4810 c         1 CRL      0.643100
      3 O1          0.2080   -1.5090    0.9080 o         1 CRL     -0.607100
      4 N2         -2.0500   -1.0770    0.4770 n         1 CRL     -0.367800
      5 C2         -3.0720   -0.2040   -0.0840 c3        1 CRL      0.030000
      6 C3         -4.4600   -0.4170    0.5630 c3        1 CRL      0.114400
      7 O2         -4.7860   -1.7910    0.6290 os        1 CRL     -0.362600
      8 C4         -3.8620   -2.5130    1.4290 c3        1 CRL      0.114400
      9 C5         -2.4550   -2.4520    0.8160 c3        1 CRL      0.030000
     10 C6          1.2720    0.5850   -0.1740 c3        1 CRL      0.133500
     11 C7          1.8900    0.4950    1.2420 c         1 CRL      0.519100
     12 O3          1.5840    1.2500    2.1510 o         1 CRL     -0.375100
     13 N3          2.9050   -0.5780    1.4480 ny        1 CRL     -0.666800
     14 C8          3.5540   -0.6520    2.8440 c3        1 CRL      0.247300
     15 C9          2.4890   -0.7340    3.8420 c1        1 CRL      0.122700
     16 N4          1.6690   -0.7970    4.6620 n1        1 CRL     -0.194800
     17 C10         4.4290    0.5870    3.1250 c3        1 CRL     -0.067900
     18 C11         5.6440    0.6690    2.2460 c3        1 CRL     -0.341100
     19 S1          6.7600   -0.6450    2.3960 s6        1 CRL      1.343000
     20 O4          7.6470   -0.5660    1.3350 o         1 CRL     -0.594800
     21 O5          7.1630   -0.7500    3.7150 o         1 CRL     -0.594800
     22 C12         5.6260   -1.9020    2.0470 c3        1 CRL     -0.341100
     23 C13         4.4110   -1.9380    2.9290 c3        1 CRL     -0.067900
     24 C14         1.7880    1.8420   -0.8370 c3        1 CRL     -0.346400
     25 Si1         1.7400    1.8880   -2.7630 Si        1 CRL      0.698000
     26 C15         2.7630    0.5030   -3.3120 c3        1 CRL     -0.339100
     27 C16        -0.0070    1.6240   -3.1890 c3        1 CRL     -0.339100
     28 C17         2.3610    3.5030   -3.2400 c3        1 CRL     -0.339100
     29 HN1        -0.6390    0.7670   -0.9690 hn        1 CRL      0.482300
     30 H21        -2.8030    0.8770    0.0690 h1        1 CRL      0.085950
     31 H22        -3.1540   -0.4200   -1.1890 h1        1 CRL      0.085950
     32 H31        -4.4890    0.0470    1.5850 h1        1 CRL      0.098200
     33 H32        -5.2480    0.0370   -0.0980 h1        1 CRL      0.098200
     34 H41        -3.8620   -2.1240    2.4810 h1        1 CRL      0.098200
     35 H42        -4.2290   -3.5760    1.4050 h1        1 CRL      0.098200
     36 H51        -2.4390   -3.0520   -0.1410 h1        1 CRL      0.085950
     37 H52        -1.7130   -2.8910    1.5420 h1        1 CRL      0.085950
     38 H6          1.5490   -0.3250   -0.7940 hx        1 CRL      0.133700
     39 HN3         2.4340   -1.4840    1.2740 hn        1 CRL      0.482800
     40 H101        4.7540    0.5110    4.2060 hc        1 CRL      0.115200
     41 H102        3.8120    1.5220    3.0430 hc        1 CRL      0.115200
     42 H111        5.3700    0.8410    1.1750 h1        1 CRL      0.128200
     43 H112        6.1890    1.6180    2.5390 h1        1 CRL      0.128200
     44 H121        6.1550   -2.8950    2.1890 h1        1 CRL      0.128200
     45 H122        5.3500   -1.9070    0.9610 h1        1 CRL      0.128200
     46 H131        4.7340   -2.0340    4.0090 hc        1 CRL      0.115200
     47 H132        3.7830   -2.8410    2.7040 hc        1 CRL      0.115200
     48 H141        2.8710    1.9620   -0.5700 hc        1 CRL      0.099700
     49 H142        1.2710    2.7560   -0.4510 hc        1 CRL      0.099700
     50 H151        2.4000   -0.4860   -2.9500 hc        1 CRL      0.073033
     51 H152        3.8290    0.6060   -2.9980 hc        1 CRL      0.073033
     52 H153        2.7800    0.4390   -4.4310 hc        1 CRL      0.073033
     53 H161       -0.7040    2.2650   -2.6020 hc        1 CRL      0.073033
     54 H162       -0.3300    0.5620   -3.0920 hc        1 CRL      0.073033
     55 H163       -0.1830    1.8950   -4.2640 hc        1 CRL      0.073033
     56 H171        2.3030    3.6580   -4.3470 hc        1 CRL      0.073033
     57 H172        3.4320    3.6520   -2.9610 hc        1 CRL      0.073033
     58 H173        1.7870    4.3410   -2.7770 hc        1 CRL      0.073033
     59 H12        -0.5230    1.3100    0.6100 hn        1 CRL      0.482300
     60 H321        3.6650   -0.4580    0.7670 hn        1 CRL      0.482800
@<TRIPOS>BOND
     1    1    2 1   
     2    1   10 1   
     3    1   29 1   
     4    1   59 1   
     5    2    3 2   
     6    2    4 1   
     7    4    5 1   
     8    4    9 1   
     9    5    6 1   
    10    5   30 1   
    11    5   31 1   
    12    6    7 1   
    13    6   32 1   
    14    6   33 1   
    15    7    8 1   
    16    8    9 1   
    17    8   34 1   
    18    8   35 1   
    19    9   36 1   
    20    9   37 1   
    21   10   11 1   
    22   10   24 1   
    23   10   38 1   
    24   11   12 2   
    25   11   13 1   
    26   13   14 1   
    27   13   39 1   
    28   13   60 1   
    29   14   15 1   
    30   14   17 1   
    31   14   23 1   
    32   15   16 3   
    33   17   18 1   
    34   17   40 1   
    35   17   41 1   
    36   18   19 1   
    37   18   42 1   
    38   18   43 1   
    39   19   20 2   
    40   19   21 2   
    41   19   22 1   
    42   22   23 1   
    43   22   44 1   
    44   22   45 1   
    45   23   46 1   
    46   23   47 1   
    47   24   25 1   
    48   24   48 1   
    49   24   49 1   
    50   25   26 1   
    51   25   27 1   
    52   25   28 1   
    53   26   50 1   
    54   26   51 1   
    55   26   52 1   
    56   27   53 1   
    57   27   54 1   
    58   27   55 1   
    59   28   56 1   
    60   28   57 1   
    61   28   58 1   
@<TRIPOS>SUBSTRUCTURE
     1 CRL         1 TEMP              0 ****  ****    0 ROOT
