@<TRIPOS>MOLECULE
CRL
   60    61     1     0     0
SMALL
bcc


@<TRIPOS>ATOM
      1 N1         -0.2300    0.5610   -0.0510 n4        1 CRL     -0.677800
      2 C1         -0.7270   -0.8080    0.4700 c         1 CRL      0.643100
      3 O1          0.2060   -1.5130    0.9060 o         1 CRL     -0.607100
      4 N2         -2.0490   -1.0880    0.4560 n         1 CRL     -0.367800
      5 C2         -3.0700   -0.2200   -0.1150 c3        1 CRL      0.030000
      6 C3         -4.4610   -0.4350    0.5210 c3        1 CRL      0.114400
      7 O2         -4.7840   -1.8100    0.5880 os        1 CRL     -0.362600
      8 C4         -3.8640   -2.5270    1.3970 c3        1 CRL      0.114400
      9 C5         -2.4530   -2.4640    0.7940 c3        1 CRL      0.030000
     10 C6          1.2730    0.5820   -0.1740 c3        1 CRL      0.133500
     11 C7          1.8810    0.4950    1.2470 c         1 CRL      0.519100
     12 O3          1.5660    1.2510    2.1530 o         1 CRL     -0.375100
     13 N3          2.8980   -0.5740    1.4620 n4        1 CRL     -0.666800
     14 C8          3.5420   -0.6400    2.8600 c3        1 CRL      0.247300
     15 C9          2.4730   -0.7240    3.8540 c1        1 CRL      0.122700
     16 N4          1.6490   -0.7880    4.6710 n1        1 CRL     -0.194800
     17 C10         4.4100    0.6030    3.1410 c3        1 CRL     -0.067900
     18 C11         5.6280    0.6880    2.2660 c3        1 CRL     -0.341100
     19 S1          6.7500   -0.6210    2.4240 s6        1 CRL      1.343000
     20 O4          7.6400   -0.5400    1.3670 o         1 CRL     -0.594800
     21 O5          7.1480   -0.7190    3.7450 o         1 CRL     -0.594800
     22 C12         5.6220   -1.8840    2.0750 c3        1 CRL     -0.341100
     23 C13         4.4040   -1.9230    2.9530 c3        1 CRL     -0.067900
     24 C14         1.7910    1.8400   -0.8350 c3        1 CRL     -0.346400
     25 SI1         1.7570    1.8810   -2.7610 Si        1 CRL      0.698000
     26 C15         2.7880    0.4990   -3.3000 c3        1 CRL     -0.339100
     27 C16         0.0130    1.6110   -3.2000 c3        1 CRL     -0.339100
     28 C17         2.3760    3.4970   -3.2360 c3        1 CRL     -0.339100
     29 HN1        -0.5300    1.3030    0.5970 hn        1 CRL      0.482300
     30 H21        -2.8050    0.8630    0.0370 h1        1 CRL      0.085950
     31 H22        -3.1420   -0.4390   -1.2200 h1        1 CRL      0.085950
     32 H31        -5.2460    0.0150   -0.1470 h1        1 CRL      0.098200
     33 H32        -4.5000    0.0310    1.5420 h1        1 CRL      0.098200
     34 H41        -4.2290   -3.5910    1.3720 h1        1 CRL      0.098200
     35 H42        -3.8740   -2.1360    2.4480 h1        1 CRL      0.098200
     36 H51        -2.4270   -3.0660   -0.1610 h1        1 CRL      0.085950
     37 H52        -1.7160   -2.8990    1.5270 h1        1 CRL      0.085950
     38 H6          1.5570   -0.3280   -0.7900 hx        1 CRL      0.133700
     39 HN3         3.6600   -0.4550    0.7830 hn        1 CRL      0.482800
     40 H101        4.7310    0.5320    4.2230 hc        1 CRL      0.115200
     41 H102        3.7890    1.5350    3.0540 hc        1 CRL      0.115200
     42 H111        6.1670    1.6400    2.5590 h1        1 CRL      0.128200
     43 H112        5.3570    0.8550    1.1930 h1        1 CRL      0.128200
     44 H121        5.3510   -1.8950    0.9890 h1        1 CRL      0.128200
     45 H122        6.1550   -2.8740    2.2240 h1        1 CRL      0.128200
     46 H131        4.7230   -2.0130    4.0340 hc        1 CRL      0.115200
     47 H132        3.7800   -2.8290    2.7280 hc        1 CRL      0.115200
     48 H141        2.8710    1.9620   -0.5600 hc        1 CRL      0.099700
     49 H142        1.2680    2.7530   -0.4550 hc        1 CRL      0.099700
     50 H151        2.8120    0.4310   -4.4180 hc        1 CRL      0.073033
     51 H152        3.8510    0.6060   -2.9780 hc        1 CRL      0.073033
     52 H153        2.4250   -0.4910   -2.9370 hc        1 CRL      0.073033
     53 H161       -0.3070    0.5480   -3.1020 hc        1 CRL      0.073033
     54 H162       -0.6900    2.2520   -2.6190 hc        1 CRL      0.073033
     55 H163       -0.1550    1.8800   -4.2760 hc        1 CRL      0.073033
     56 H171        3.4450    3.6500   -2.9500 hc        1 CRL      0.073033
     57 H172        2.3260    3.6500   -4.3440 hc        1 CRL      0.073033
     58 H173        1.7970    4.3350   -2.7800 hc        1 CRL      0.073033
     59 H12        -0.6330    0.7580   -0.9820 hn        1 CRL      0.482300
     60 H321        2.4300   -1.4820    1.2900 hn        1 CRL      0.482800
@<TRIPOS>BOND
     1    1    2 1   
     2    1   10 1   
     3    1   29 1   
     4    1   59 1   
     5    2    3 2   
     6    2    4 1   
     7    4    5 1   
     8    4    9 1   
     9    5    6 1   
    10    5   30 1   
    11    5   31 1   
    12    6    7 1   
    13    6   32 1   
    14    6   33 1   
    15    7    8 1   
    16    8    9 1   
    17    8   34 1   
    18    8   35 1   
    19    9   36 1   
    20    9   37 1   
    21   10   11 1   
    22   10   24 1   
    23   10   38 1   
    24   11   12 2   
    25   11   13 1   
    26   13   14 1   
    27   13   39 1   
    28   13   60 1   
    29   14   15 1   
    30   14   17 1   
    31   14   23 1   
    32   15   16 3   
    33   17   18 1   
    34   17   40 1   
    35   17   41 1   
    36   18   19 1   
    37   18   42 1   
    38   18   43 1   
    39   19   20 2   
    40   19   21 2   
    41   19   22 1   
    42   22   23 1   
    43   22   44 1   
    44   22   45 1   
    45   23   46 1   
    46   23   47 1   
    47   24   25 1   
    48   24   48 1   
    49   24   49 1   
    50   25   26 1   
    51   25   27 1   
    52   25   28 1   
    53   26   50 1   
    54   26   51 1   
    55   26   52 1   
    56   27   53 1   
    57   27   54 1   
    58   27   55 1   
    59   28   56 1   
    60   28   57 1   
    61   28   58 1   
@<TRIPOS>SUBSTRUCTURE
     1 CRL         1 TEMP              0 ****  ****    0 ROOT
