@<TRIPOS>MOLECULE
CRL
   58    59     1     0     0
SMALL
bcc


@<TRIPOS>ATOM
      1 N1          1.3690    3.9060   -1.1490 n         1 CRL     -0.552900
      2 C1          0.3180    3.0840   -1.5780 c         1 CRL      0.755100
      3 O1         -0.8730    3.4250   -1.3480 o         1 CRL     -0.666100
      4 N2          0.5760    1.8870   -2.2870 n         1 CRL     -0.432800
      5 C2          1.9110    1.3230   -2.3020 c3        1 CRL      0.044500
      6 C3          2.0410    0.1170   -3.2460 c3        1 CRL      0.120400
      7 O2          0.9980   -0.8280   -3.0610 os        1 CRL     -0.406600
      8 C4         -0.2850   -0.2400   -3.2440 c3        1 CRL      0.120400
      9 C5         -0.5120    0.9200   -2.2690 c3        1 CRL      0.044500
     10 C6          1.0780    5.2180   -0.6150 c3        1 CRL      0.066700
     11 C7          0.8040    6.2290   -1.7730 c         1 CRL      0.624100
     12 O3          1.6890    7.0080   -2.1690 o         1 CRL     -0.590100
     13 N3         -0.4790    6.2110   -2.2910 n         1 CRL     -0.564900
     14 C8         -0.8830    6.9300   -3.4870 c3        1 CRL      0.187500
     15 C9         -0.1890    6.4130   -4.6880 c1        1 CRL      0.186700
     16 N4          0.3560    6.0080   -5.6300 n1        1 CRL     -0.348800
     17 C10        -0.5880    8.4520   -3.4240 c3        1 CRL     -0.053900
     18 C11        -1.3640    9.1420   -2.3310 c3        1 CRL     -0.315600
     19 S1         -3.0590    9.0480   -2.4770 s6        1 CRL      1.324000
     20 O4         -3.6440    9.4280   -1.2620 o         1 CRL     -0.649300
     21 O5         -3.4850    9.7130   -3.6340 o         1 CRL     -0.649300
     22 C12        -3.2560    7.3610   -2.6750 c3        1 CRL     -0.315600
     23 C13        -2.4050    6.7460   -3.7550 c3        1 CRL     -0.053900
     24 C14         2.1930    5.7750    0.2590 c3        1 CRL     -0.276400
     25 SI1         2.1360    5.1980    2.0200 Si        1 CRL      0.630000
     26 C15         0.4150    5.1650    2.6300 c3        1 CRL     -0.300433
     27 C16         2.8860    3.5390    2.1640 c3        1 CRL     -0.300433
     28 C17         3.1110    6.3940    2.9990 c3        1 CRL     -0.300433
     29 HN1         2.2790    3.7840   -1.5300 hn        1 CRL      0.316500
     30 H21         2.2190    1.0070   -1.2640 h1        1 CRL      0.057450
     31 H22         2.6400    2.1000   -2.6700 h1        1 CRL      0.057450
     32 H31         2.0550    0.4580   -4.3150 h1        1 CRL      0.061950
     33 H32         2.9800   -0.4480   -3.0070 h1        1 CRL      0.061950
     34 H41        -1.0090   -1.0680   -3.0230 h1        1 CRL      0.061950
     35 H42        -0.3980    0.1010   -4.3070 h1        1 CRL      0.061950
     36 H51        -1.4630    1.4560   -2.5500 h1        1 CRL      0.057450
     37 H52        -0.6390    0.5020   -1.2290 h1        1 CRL      0.057450
     38 H6          0.1360    5.1320    0.0140 h1        1 CRL      0.096700
     39 HN3        -1.0680    5.4420   -2.0360 hn        1 CRL      0.343500
     40 H101       -0.8610    8.8970   -4.4190 hc        1 CRL      0.082450
     41 H102        0.5130    8.6100   -3.2680 hc        1 CRL      0.082450
     42 H111       -1.0240    8.7440   -1.3360 h1        1 CRL      0.124700
     43 H112       -1.0470   10.2230   -2.3280 h1        1 CRL      0.124700
     44 H121       -4.3310    7.1410   -2.9280 h1        1 CRL      0.124700
     45 H122       -3.0780    6.8240   -1.7040 h1        1 CRL      0.124700
     46 H131       -2.6420    5.6540   -3.8520 hc        1 CRL      0.082450
     47 H132       -2.6390    7.2310   -4.7410 hc        1 CRL      0.082450
     48 H141        3.1930    5.5560   -0.1910 hc        1 CRL      0.075700
     49 H142        2.1040    6.8930    0.2510 hc        1 CRL      0.075700
     50 H151       -0.1540    4.2970    2.2250 hc        1 CRL      0.051033
     51 H152        0.3840    5.0870    3.7420 hc        1 CRL      0.051033
     52 H153       -0.1440    6.0870    2.3500 hc        1 CRL      0.051033
     53 H161        2.3770    2.7980    1.5070 hc        1 CRL      0.051033
     54 H162        3.9640    3.5500    1.8810 hc        1 CRL      0.051033
     55 H163        2.8240    3.1530    3.2080 hc        1 CRL      0.051033
     56 H171        3.0080    6.2080    4.0930 hc        1 CRL      0.051033
     57 H172        4.1960    6.3380    2.7540 hc        1 CRL      0.051033
     58 H173        2.7840    7.4430    2.8100 hc        1 CRL      0.051033
@<TRIPOS>BOND
     1    1    2 1   
     2    1   10 1   
     3    1   29 1   
     4    2    3 2   
     5    2    4 1   
     6    4    5 1   
     7    4    9 1   
     8    5    6 1   
     9    5   30 1   
    10    5   31 1   
    11    6    7 1   
    12    6   32 1   
    13    6   33 1   
    14    7    8 1   
    15    8    9 1   
    16    8   34 1   
    17    8   35 1   
    18    9   36 1   
    19    9   37 1   
    20   10   11 1   
    21   10   24 1   
    22   10   38 1   
    23   11   12 2   
    24   11   13 1   
    25   13   14 1   
    26   13   39 1   
    27   14   15 1   
    28   14   17 1   
    29   14   23 1   
    30   15   16 3   
    31   17   18 1   
    32   17   40 1   
    33   17   41 1   
    34   18   19 1   
    35   18   42 1   
    36   18   43 1   
    37   19   20 2   
    38   19   21 2   
    39   19   22 1   
    40   22   23 1   
    41   22   44 1   
    42   22   45 1   
    43   23   46 1   
    44   23   47 1   
    45   24   25 1   
    46   24   48 1   
    47   24   49 1   
    48   25   26 1   
    49   25   27 1   
    50   25   28 1   
    51   26   50 1   
    52   26   51 1   
    53   26   52 1   
    54   27   53 1   
    55   27   54 1   
    56   27   55 1   
    57   28   56 1   
    58   28   57 1   
    59   28   58 1   
@<TRIPOS>SUBSTRUCTURE
     1 CRL         1 TEMP              0 ****  ****    0 ROOT
