@<TRIPOS>MOLECULE
CRM
   44    45     1     0     0
SMALL
bcc


@<TRIPOS>ATOM
      1 C2          0.6290   -0.4790   -0.4210 c         1 CRM      0.816500
      2 O15         0.2740   -0.5970   -1.6170 o         1 CRM     -0.667500
      3 N3          2.0000   -0.3650   -0.1230 ns        1 CRM     -0.486100
      4 C4          2.4530   -0.2200    1.1930 cc        1 CRM      0.207200
      5 N10         3.8180   -0.0820    1.4620 n         1 CRM     -0.372000
      6 C17         4.8020   -0.1200    0.4020 c3        1 CRM      0.059000
      7 C18         4.9760   -1.5060   -0.2660 c3        1 CRM      0.145100
      8 C20         5.1440   -1.3880   -1.7980 c3        1 CRM      0.104100
      9 C22         4.8550   -2.7290   -2.5010 c3        1 CRM      0.106100
     10 C25         5.5170   -2.7600   -3.8850 c3        1 CRM      0.088400
     11 O26         5.1710   -4.0110   -4.4560 oh        1 CRM     -0.607800
     12 O23         5.3750   -3.7690   -1.6910 oh        1 CRM     -0.608800
     13 O21         4.2210   -0.4110   -2.2580 oh        1 CRM     -0.611800
     14 O19         6.1740   -2.0330    0.2760 oh        1 CRM     -0.587800
     15 C9          4.2430    0.0910    2.8170 c         1 CRM      0.569200
     16 O16         5.4460    0.2870    3.0330 o         1 CRM     -0.578500
     17 C8          3.1750    0.0410    3.8760 cc        1 CRM      0.389300
     18 C11         3.7240    0.1450    5.2690 c3        1 CRM     -0.095700
     19 C12         2.7120    0.4250    6.3490 c3        1 CRM     -0.196400
     20 C13         3.3960    0.3660    7.7320 c         1 CRM      0.909600
     21 O28         3.0780    1.2440    8.5820 o         1 CRM     -0.846800
     22 O27         4.2270   -0.5630    7.9460 o         1 CRM     -0.846800
     23 N7          1.9100   -0.0960    3.5910 nd        1 CRM     -0.454300
     24 C5          1.5250   -0.2120    2.2630 cd        1 CRM     -0.108600
     25 C6          0.0790   -0.3360    1.9830 c         1 CRM      0.747700
     26 O14        -0.8400   -0.3380    2.8120 o         1 CRM     -0.574500
     27 N1         -0.2880   -0.4650    0.6250 ns        1 CRM     -0.595500
     28 H3          2.6270   -0.3490   -0.9020 hn        1 CRM      0.369500
     29 H171        4.5430    0.6530   -0.3740 h1        1 CRM      0.098700
     30 H172        5.8040    0.1640    0.8500 h1        1 CRM      0.098700
     31 H18         4.1120   -2.1930   -0.0540 h1        1 CRM      0.059700
     32 H20         6.1950   -1.0550   -2.0250 h1        1 CRM      0.062700
     33 H22         3.7420   -2.8640   -2.6150 h1        1 CRM      0.067700
     34 H251        6.6310   -2.6720   -3.7860 h1        1 CRM      0.035200
     35 H252        5.1280   -1.9240   -4.5230 h1        1 CRM      0.035200
     36 H26         5.6570   -4.0840   -5.2860 ho        1 CRM      0.410000
     37 H23         5.2370   -4.5930   -2.1770 ho        1 CRM      0.431000
     38 H21         4.2620   -0.4000   -3.2220 ho        1 CRM      0.413000
     39 H19         6.1750   -2.9860    0.1160 ho        1 CRM      0.425000
     40 H111        4.2500   -0.8230    5.5090 hc        1 CRM      0.082200
     41 H112        4.5080    0.9520    5.2670 hc        1 CRM      0.082200
     42 H121        2.2450    1.4300    6.2050 hc        1 CRM      0.038200
     43 H122        1.8980   -0.3420    6.3420 hc        1 CRM      0.038200
     44 H1         -1.2530   -0.5500    0.3890 hn        1 CRM      0.349500
@<TRIPOS>BOND
     1    1    2 2   
     2    1    3 1   
     3    1   27 1   
     4    3    4 1   
     5    3   28 1   
     6    4    5 1   
     7    4   24 2   
     8    5    6 1   
     9    5   15 1   
    10    6    7 1   
    11    6   29 1   
    12    6   30 1   
    13    7    8 1   
    14    7   14 1   
    15    7   31 1   
    16    8    9 1   
    17    8   13 1   
    18    8   32 1   
    19    9   10 1   
    20    9   12 1   
    21    9   33 1   
    22   10   11 1   
    23   10   34 1   
    24   10   35 1   
    25   11   36 1   
    26   12   37 1   
    27   13   38 1   
    28   14   39 1   
    29   15   16 2   
    30   15   17 1   
    31   17   18 1   
    32   17   23 2   
    33   18   19 1   
    34   18   40 1   
    35   18   41 1   
    36   19   20 1   
    37   19   42 1   
    38   19   43 1   
    39   20   21 1   
    40   20   22 1   
    41   23   24 1   
    42   24   25 1   
    43   25   26 2   
    44   25   27 1   
    45   27   44 1   
@<TRIPOS>SUBSTRUCTURE
     1 CRM         1 TEMP              0 ****  ****    0 ROOT
