@<TRIPOS>MOLECULE
CRM
   44    41     1     0     0
SMALL
bcc


@<TRIPOS>ATOM
      1 C2         -3.9580   -1.1420   -1.0450 c1        1 CRM      0.857900
      2 O15        -4.5940   -1.1250   -2.1720 o         1 CRM     -0.616500
      3 N3         -2.5330   -1.1670   -1.0320 n2        1 CRM     -0.777800
      4 C4         -1.8590   -1.1390    0.1480 c1        1 CRM      0.161700
      5 N10        -0.4800   -1.1510    0.1590 n3        1 CRM     -0.190400
      6 C17         0.2790   -1.1120   -1.1300 c3        1 CRM      0.008300
      7 C18         0.9630    0.3370   -1.3170 c3        1 CRM      0.103100
      8 C20         1.4770    0.4740   -2.6890 c3        1 CRM      0.109100
      9 C22         2.1100    1.7860   -2.8140 c3        1 CRM      0.144100
     10 C25         2.9540    1.8500   -4.1270 c3        1 CRM      0.096400
     11 O26         3.5140    3.2150   -4.2730 oh        1 CRM     -0.615800
     12 O23         1.1340    2.7650   -2.8460 oh        1 CRM     -0.622800
     13 O21         2.4450   -0.5580   -2.9560 oh        1 CRM     -0.589800
     14 O19         0.0940    1.2420   -1.1080 oh        1 CRM     -0.630800
     15 C9          0.2120   -1.1100    1.3730 c1        1 CRM      0.532500
     16 O16         1.5400   -1.2040    1.3850 o         1 CRM     -0.536500
     17 C8         -0.4750   -1.0590    2.5420 c1        1 CRM      0.306700
     18 C11         0.1910   -1.1480    3.8950 c3        1 CRM     -0.045300
     19 C12        -0.1110    0.0960    4.6800 c3        1 CRM     -0.201400
     20 C13         0.6320    0.0410    6.0630 c         1 CRM      0.916600
     21 O28         0.0220   -0.2930    7.0630 o         1 CRM     -0.843800
     22 O27         1.8320    0.5520    6.1770 o         1 CRM     -0.843800
     23 N7         -1.8270   -1.0470    2.5350 n1        1 CRM     -0.359800
     24 C5         -2.5350   -1.0890    1.2950 cg        1 CRM     -0.205200
     25 C6         -3.9620   -1.0650    1.2760 ce        1 CRM      0.622500
     26 O14        -4.6170   -1.0670    2.3720 o         1 CRM     -0.572300
     27 N1         -4.6300   -1.0930    0.0800 n2        1 CRM     -0.619400
     28 H3         -2.0630   -1.1840   -1.8410 hn        1 CRM      0.525400
     29 H171        0.9330   -1.7620   -1.1240 h1        1 CRM      0.080200
     30 H172       -0.2860   -1.2660   -1.8130 h1        1 CRM      0.080200
     31 H18         1.6950    0.4360   -0.6830 h1        1 CRM      0.080700
     32 H20         0.8220    0.4110   -3.2500 h1        1 CRM      0.054700
     33 H22         2.7030    1.9370   -2.0370 h1        1 CRM      0.074700
     34 H251        3.7010    1.1810   -4.0760 h1        1 CRM      0.044700
     35 H252        2.3620    1.6360   -4.9300 h1        1 CRM      0.044700
     36 H26         3.9870    3.2380   -4.8830 ho        1 CRM      0.408000
     37 H23         1.4480    3.4870   -2.5110 ho        1 CRM      0.433000
     38 H21         2.0780   -1.1780   -3.4360 ho        1 CRM      0.408000
     39 H19         0.2880    1.6910   -0.2590 ho        1 CRM      0.441000
     40 H111        1.1410   -1.2290    3.7770 hc        1 CRM      0.084700
     41 H112       -0.1750   -1.9970    4.4130 hc        1 CRM      0.084700
     42 H121       -1.1400    0.1650    4.8390 hc        1 CRM      0.030700
     43 H122        0.1730    0.8290    4.2090 hc        1 CRM      0.030700
     44 H1         -5.4830   -1.1860    0.0710 hn        1 CRM      0.507400
@<TRIPOS>BOND
     1    1    2 2   
     2    1    3 2   
     3    3   28 1   
     4    4    5 1   
     5    4   24 3   
     6    5    6 1   
     7    5   15 2   
     8    6    7 1   
     9    6   29 1   
    10    6   30 1   
    11    7    8 1   
    12    7   14 1   
    13    7   31 1   
    14    8    9 1   
    15    8   13 1   
    16    8   32 1   
    17    9   10 1   
    18    9   12 1   
    19    9   33 1   
    20   10   11 1   
    21   10   34 1   
    22   10   35 1   
    23   11   36 1   
    24   12   37 1   
    25   13   38 1   
    26   14   39 1   
    27   15   16 2   
    28   17   18 1   
    29   17   23 3   
    30   18   19 1   
    31   18   40 1   
    32   18   41 1   
    33   19   20 1   
    34   19   42 1   
    35   19   43 1   
    36   20   21 1   
    37   20   22 1   
    38   24   25 1   
    39   25   26 1   
    40   25   27 2   
    41   27   44 1   
@<TRIPOS>SUBSTRUCTURE
     1 CRM         1 TEMP              0 ****  ****    0 ROOT
