@<TRIPOS>MOLECULE
CRM
   44    45     1     0     0
SMALL
bcc


@<TRIPOS>ATOM
      1 C2          3.7650   -0.2160    0.4970 c         1 CRM      0.816500
      2 O15         4.6020   -0.0390    1.4100 o         1 CRM     -0.651500
      3 N3          2.4200    0.1380    0.7220 n         1 CRM     -0.487100
      4 C4          1.4510   -0.0280   -0.2720 cc        1 CRM      0.210200
      5 N10         0.1240    0.3500   -0.0440 n         1 CRM     -0.384000
      6 C17        -0.2800    1.0530    1.1510 c3        1 CRM      0.033000
      7 C18        -0.6080    0.1300    2.3460 c3        1 CRM      0.097100
      8 C20        -0.0950    0.7770    3.6480 c3        1 CRM      0.110100
      9 C22        -0.6450    0.1150    4.9190 c3        1 CRM      0.080100
     10 C25        -1.9710    0.7490    5.3480 c3        1 CRM      0.099400
     11 O26        -2.4280    0.1830    6.5590 oh        1 CRM     -0.599800
     12 O23        -0.7880   -1.2860    4.7710 oh        1 CRM     -0.611800
     13 O21         1.3240    0.7280    3.6260 oh        1 CRM     -0.609800
     14 O19        -2.0060   -0.0620    2.4720 oh        1 CRM     -0.625800
     15 C9         -0.8770   -0.0200   -0.9960 c         1 CRM      0.580200
     16 O16        -2.0580    0.0750   -0.6350 o         1 CRM     -0.595500
     17 C8         -0.3820   -0.5090   -2.3250 cc        1 CRM      0.393300
     18 C11        -1.4460   -0.6220   -3.3790 c3        1 CRM     -0.095700
     19 C12        -1.8020    0.7370   -3.9370 c3        1 CRM     -0.204400
     20 C13        -2.9860    0.6370   -4.9240 c         1 CRM      0.917600
     21 O28        -3.3330    1.7040   -5.5020 o         1 CRM     -0.840800
     22 O27        -3.5380   -0.4860   -5.0950 o         1 CRM     -0.840800
     23 N7          0.8760   -0.7830   -2.5430 nd        1 CRM     -0.462300
     24 C5          1.7980   -0.5950   -1.5220 cd        1 CRM     -0.105600
     25 C6          3.1970   -0.9970   -1.7800 c         1 CRM      0.748700
     26 O14         3.6380   -1.5140   -2.8140 o         1 CRM     -0.576500
     27 N1          4.1170   -0.7660   -0.7340 n         1 CRM     -0.594500
     28 H3          2.2000    0.5330    1.6160 hn        1 CRM      0.368500
     29 H171       -1.2110    1.6470    0.9010 h1        1 CRM      0.090200
     30 H172        0.5140    1.7940    1.4520 h1        1 CRM      0.090200
     31 H18        -0.1140   -0.8780    2.2320 h1        1 CRM      0.053700
     32 H20        -0.3430    1.8750    3.6590 h1        1 CRM      0.088700
     33 H22         0.1130    0.2230    5.7490 h1        1 CRM      0.091700
     34 H251       -2.7420    0.6130    4.5410 h1        1 CRM      0.064700
     35 H252       -1.8360    1.8400    5.5680 h1        1 CRM      0.064700
     36 H26        -2.4080   -0.7770    6.4490 ho        1 CRM      0.409000
     37 H23        -1.4900   -1.4430    4.1230 ho        1 CRM      0.423000
     38 H21         1.5870   -0.1690    3.8760 ho        1 CRM      0.419000
     39 H19        -2.3630   -0.2140    1.5810 ho        1 CRM      0.451000
     40 H111       -1.1150   -1.2920   -4.2150 hc        1 CRM      0.086700
     41 H112       -2.3650   -1.0820   -2.9210 hc        1 CRM      0.086700
     42 H121       -2.0980    1.4310   -3.1110 hc        1 CRM      0.030200
     43 H122       -0.9290    1.1830   -4.4740 hc        1 CRM      0.030200
     44 H1          5.0750   -1.0090   -0.8680 hn        1 CRM      0.351500
@<TRIPOS>BOND
     1    1    2 2   
     2    1    3 1   
     3    1   27 1   
     4    3    4 1   
     5    3   28 1   
     6    4    5 1   
     7    4   24 2   
     8    5    6 1   
     9    5   15 1   
    10    6    7 1   
    11    6   29 1   
    12    6   30 1   
    13    7    8 1   
    14    7   14 1   
    15    7   31 1   
    16    8    9 1   
    17    8   13 1   
    18    8   32 1   
    19    9   10 1   
    20    9   12 1   
    21    9   33 1   
    22   10   11 1   
    23   10   34 1   
    24   10   35 1   
    25   11   36 1   
    26   12   37 1   
    27   13   38 1   
    28   14   39 1   
    29   15   16 2   
    30   15   17 1   
    31   17   18 1   
    32   17   23 2   
    33   18   19 1   
    34   18   40 1   
    35   18   41 1   
    36   19   20 1   
    37   19   42 1   
    38   19   43 1   
    39   20   21 1   
    40   20   22 1   
    41   23   24 1   
    42   24   25 1   
    43   25   26 2   
    44   25   27 1   
    45   27   44 1   
@<TRIPOS>SUBSTRUCTURE
     1 CRM         1 TEMP              0 ****  ****    0 ROOT
