@<TRIPOS>MOLECULE
CRM
   44    45     1     0     0
SMALL
bcc


@<TRIPOS>ATOM
      1 C2          0.6160   -0.5650   -0.4160 c         1 CRM      0.816500
      2 O15         0.2600   -0.6990   -1.6110 o         1 CRM     -0.667500
      3 N3          1.9830   -0.4140   -0.1230 n         1 CRM     -0.486100
      4 C4          2.4360   -0.2500    1.1920 cc        1 CRM      0.207200
      5 N10         3.7980   -0.0760    1.4570 n         1 CRM     -0.372000
      6 C17         4.7800   -0.0950    0.3950 c3        1 CRM      0.059000
      7 C18         4.9870   -1.4800   -0.2660 c3        1 CRM      0.145100
      8 C20         5.1490   -1.3670   -1.7990 c3        1 CRM      0.104100
      9 C22         4.8910   -2.7200   -2.4930 c3        1 CRM      0.106100
     10 C25         5.5490   -2.7420   -3.8790 c3        1 CRM      0.088400
     11 O26         5.2340   -4.0050   -4.4420 oh        1 CRM     -0.607800
     12 O23         5.4400   -3.7410   -1.6790 oh        1 CRM     -0.608800
     13 O21         4.2000   -0.4170   -2.2630 oh        1 CRM     -0.611800
     14 O19         6.1990   -1.9730    0.2760 oh        1 CRM     -0.587800
     15 C9          4.2220    0.1160    2.8090 c         1 CRM      0.569200
     16 O16         5.4200    0.3440    3.0210 o         1 CRM     -0.578500
     17 C8          3.1580    0.0470    3.8710 cc        1 CRM      0.389300
     18 C11         3.7070    0.1740    5.2620 c3        1 CRM     -0.095700
     19 C12         2.6910    0.4410    6.3420 c3        1 CRM     -0.196400
     20 C13         3.3790    0.4090    7.7240 c         1 CRM      0.909600
     21 O28         3.0420    1.2860    8.5670 o         1 CRM     -0.846800
     22 O27         4.2320   -0.4990    7.9440 o         1 CRM     -0.846800
     23 N7          1.8960   -0.1240    3.5910 nd        1 CRM     -0.454300
     24 C5          1.5110   -0.2580    2.2640 cd        1 CRM     -0.108600
     25 C6          0.0680   -0.4210    1.9890 c         1 CRM      0.747700
     26 O14        -0.8490   -0.4410    2.8200 o         1 CRM     -0.574500
     27 N1         -0.3000   -0.5680    0.6320 n         1 CRM     -0.595500
     28 H3          2.6090   -0.3870   -0.9020 hn        1 CRM      0.369500
     29 H171        4.5000    0.6670   -0.3860 h1        1 CRM      0.098700
     30 H172        5.7760    0.2170    0.8380 h1        1 CRM      0.098700
     31 H18         4.1410   -2.1880   -0.0470 h1        1 CRM      0.059700
     32 H20         6.1900   -1.0090   -2.0310 h1        1 CRM      0.062700
     33 H22         3.7810   -2.8830   -2.6030 h1        1 CRM      0.067700
     34 H251        5.1370   -1.9200   -4.5210 h1        1 CRM      0.035200
     35 H252        6.6610   -2.6250   -3.7840 h1        1 CRM      0.035200
     36 H26         5.7180   -4.0700   -5.2720 ho        1 CRM      0.410000
     37 H23         5.3210   -4.5720   -2.1590 ho        1 CRM      0.431000
     38 H21         4.2390   -0.4100   -3.2260 ho        1 CRM      0.413000
     39 H19         6.2250   -2.9260    0.1210 ho        1 CRM      0.425000
     40 H111        4.4730    0.9970    5.2520 hc        1 CRM      0.082200
     41 H112        4.2540   -0.7800    5.5090 hc        1 CRM      0.082200
     42 H121        1.8950   -0.3440    6.3430 hc        1 CRM      0.038200
     43 H122        2.2010    1.4330    6.1900 hc        1 CRM      0.038200
     44 H1         -1.2630   -0.6790    0.3990 hn        1 CRM      0.349500
@<TRIPOS>BOND
     1    1    2 2   
     2    1    3 1   
     3    1   27 1   
     4    3    4 1   
     5    3   28 1   
     6    4    5 1   
     7    4   24 2   
     8    5    6 1   
     9    5   15 1   
    10    6    7 1   
    11    6   29 1   
    12    6   30 1   
    13    7    8 1   
    14    7   14 1   
    15    7   31 1   
    16    8    9 1   
    17    8   13 1   
    18    8   32 1   
    19    9   10 1   
    20    9   12 1   
    21    9   33 1   
    22   10   11 1   
    23   10   34 1   
    24   10   35 1   
    25   11   36 1   
    26   12   37 1   
    27   13   38 1   
    28   14   39 1   
    29   15   16 2   
    30   15   17 1   
    31   17   18 1   
    32   17   23 2   
    33   18   19 1   
    34   18   40 1   
    35   18   41 1   
    36   19   20 1   
    37   19   42 1   
    38   19   43 1   
    39   20   21 1   
    40   20   22 1   
    41   23   24 1   
    42   24   25 1   
    43   25   26 2   
    44   25   27 1   
    45   27   44 1   
@<TRIPOS>SUBSTRUCTURE
     1 CRM         1 TEMP              0 ****  ****    0 ROOT
