@<TRIPOS>MOLECULE
CRN
   19    18     1     0     0
SMALL
bcc


@<TRIPOS>ATOM
      1 O9          1.5750    0.4020    1.4630 o         1 CRN     -0.450000
      2 C7          2.3620   -0.0440    0.6350 c         1 CRN      0.633100
      3 O8          3.4680   -0.7040    1.0710 oh        1 CRN     -0.632100
      4 C5          2.1760    0.0300   -0.8610 c3        1 CRN      0.061800
      5 N1          3.3830    0.0740   -1.7300 n4        1 CRN     -0.715400
      6 C4          4.2730   -1.1010   -1.5910 c3        1 CRN      0.077100
      7 C2          4.2170    1.3950   -1.5630 c2        1 CRN      0.744100
      8 N6          4.6210    2.0740   -2.5700 n2        1 CRN     -0.744100
      9 N3          4.3880    1.7480   -0.2160 nh        1 CRN     -0.892800
     10 H51         1.5680    0.9640   -1.0680 hx        1 CRN      0.137700
     11 H52         1.5670   -0.8800   -1.1540 hx        1 CRN      0.137700
     12 H41         5.0470   -1.0690   -2.4050 hx        1 CRN      0.111700
     13 H42         3.6690   -2.0440   -1.6780 hx        1 CRN      0.111700
     14 H43         4.7850   -1.0930   -0.5900 hx        1 CRN      0.111700
     15 HN6         4.3520    1.8710   -3.5060 hn        1 CRN      0.463400
     16 HN31        4.7340    2.6790   -0.0750 hn        1 CRN      0.454800
     17 HN32        4.8190    1.0530    0.3600 hn        1 CRN      0.454800
     18 H11         3.0190    0.0700   -2.6950 hn        1 CRN      0.447800
     19 H33         3.4520   -0.7730    2.0450 ho        1 CRN      0.487000
@<TRIPOS>BOND
     1    1    2 2   
     2    2    3 1   
     3    2    4 1   
     4    3   19 1   
     5    4    5 1   
     6    4   10 1   
     7    4   11 1   
     8    5    6 1   
     9    5    7 1   
    10    5   18 1   
    11    6   12 1   
    12    6   13 1   
    13    6   14 1   
    14    7    8 2   
    15    7    9 1   
    16    8   15 1   
    17    9   16 1   
    18    9   17 1   
@<TRIPOS>SUBSTRUCTURE
     1 CRN         1 TEMP              0 ****  ****    0 ROOT
