@<TRIPOS>MOLECULE
CRN
   17    16     1     0     0
SMALL
bcc


@<TRIPOS>ATOM
      1 O9          0.0710    0.8010    2.5330 o         1 CRN     -0.848300
      2 C7          0.2570    0.6870    1.2900 c         1 CRN      0.888600
      3 O8          0.5580    1.6620    0.5370 o         1 CRN     -0.848300
      4 C5          0.0940   -0.7370    0.7050 c3        1 CRN      0.037800
      5 N1          0.4790   -1.0050   -0.6730 nh        1 CRN     -0.674600
      6 C4          1.8480   -0.6440   -0.9740 c3        1 CRN      0.154100
      7 C2         -0.4900   -0.4550   -1.6280 c2        1 CRN      0.747100
      8 N6         -1.4110   -1.2680   -2.0860 n2        1 CRN     -0.853100
      9 N3         -0.3130    0.8970   -2.0720 nh        1 CRN     -0.955800
     10 H51        -0.9840   -1.0300    0.8270 h1        1 CRN      0.049200
     11 H52         0.7160   -1.4290    1.3390 h1        1 CRN      0.049200
     12 H41         2.5040   -1.3590   -0.4100 h1        1 CRN      0.034033
     13 H42         2.0390   -0.7660   -2.0720 h1        1 CRN      0.034033
     14 H43         2.1190    0.4030   -0.6650 h1        1 CRN      0.034033
     15 HN6        -2.0480   -0.8390   -2.7260 hn        1 CRN      0.354400
     16 HN31       -1.1780    1.3640   -2.2430 hn        1 CRN      0.398300
     17 HN32        0.2730    1.4450   -1.4610 hn        1 CRN      0.398300
@<TRIPOS>BOND
     1    1    2 1   
     2    2    3 1   
     3    2    4 1   
     4    4    5 1   
     5    4   10 1   
     6    4   11 1   
     7    5    6 1   
     8    5    7 1   
     9    6   12 1   
    10    6   13 1   
    11    6   14 1   
    12    7    8 2   
    13    7    9 1   
    14    8   15 1   
    15    9   16 1   
    16    9   17 1   
@<TRIPOS>SUBSTRUCTURE
     1 CRN         1 TEMP              0 ****  ****    0 ROOT
