@<TRIPOS>MOLECULE
CRN
   19    18     1     0     0
SMALL
bcc


@<TRIPOS>ATOM
      1 O9          1.5890    0.4930    1.4660 o         1 CRN     -0.450000
      2 C7          2.3680    0.0140    0.6500 c         1 CRN      0.633100
      3 O8          3.4710   -0.6410    1.1010 oh        1 CRN     -0.632100
      4 C5          2.1740    0.0400   -0.8480 c3        1 CRN      0.061800
      5 N1          3.3770    0.0480   -1.7230 nx        1 CRN     -0.715400
      6 C4          4.2590   -1.1290   -1.5510 c3        1 CRN      0.077100
      7 C2          4.2220    1.3670   -1.6020 c2        1 CRN      0.744100
      8 N6          4.6250    2.0100   -2.6330 n2        1 CRN     -0.744100
      9 N3          4.4040    1.7600   -0.2690 nv        1 CRN     -0.892800
     10 H51         1.5710    0.9710   -1.0810 hx        1 CRN      0.137700
     11 H52         1.5570   -0.8750   -1.1070 hx        1 CRN      0.137700
     12 H41         5.0290   -1.1290   -2.3690 hx        1 CRN      0.111700
     13 H42         3.6470   -2.0710   -1.6070 hx        1 CRN      0.111700
     14 H43         4.7760   -1.0950   -0.5530 hx        1 CRN      0.111700
     15 HN6         4.3480    1.7800   -3.5600 hn        1 CRN      0.463400
     16 HN31        4.7580    2.6920   -0.1590 hn        1 CRN      0.454800
     17 HN32        4.8330    1.0800    0.3270 hn        1 CRN      0.454800
     18 H11         3.0080    0.0150   -2.6860 hn        1 CRN      0.447800
     19 H33         3.4590   -0.6790    2.0770 ho        1 CRN      0.487000
@<TRIPOS>BOND
     1    1    2 2   
     2    2    3 1   
     3    2    4 1   
     4    3   19 1   
     5    4    5 1   
     6    4   10 1   
     7    4   11 1   
     8    5    6 1   
     9    5    7 1   
    10    5   18 1   
    11    6   12 1   
    12    6   13 1   
    13    6   14 1   
    14    7    8 2   
    15    7    9 1   
    16    8   15 1   
    17    9   16 1   
    18    9   17 1   
@<TRIPOS>SUBSTRUCTURE
     1 CRN         1 TEMP              0 ****  ****    0 ROOT
