@<TRIPOS>MOLECULE
CRO
   39    40     1     0     0
SMALL
bcc


@<TRIPOS>ATOM
      1 N1         -1.2730   -2.3580   -2.0360 n3        1 CRO     -0.892800
      2 CA1        -1.8990   -1.6210   -0.9550 c3        1 CRO      0.097200
      3 CB1        -2.0680   -2.3960    0.3880 c3        1 CRO      0.095100
      4 CG1        -3.3170   -3.2520    0.3330 c3        1 CRO     -0.141100
      5 OG1        -0.9160   -3.1630    0.7030 oh        1 CRO     -0.596800
      6 C1         -1.1460   -0.3330   -0.6550 cc        1 CRO      0.511900
      7 N2          0.1800   -0.2580   -0.4910 nd        1 CRO     -0.645300
      8 N3         -1.8190    0.9110   -0.5290 n         1 CRO     -0.381300
      9 C2         -0.8390    1.8790   -0.2010 c         1 CRO      0.666700
     10 O2         -1.0190    3.0880   -0.0130 o         1 CRO     -0.608500
     11 CA2         0.4780    1.1040   -0.1940 cd        1 CRO      0.037400
     12 CA3        -3.2370    1.1310   -0.5040 c3        1 CRO     -0.037000
     13 C3         -4.0620    0.1160    0.3400 c         1 CRO      0.894600
     14 O3         -3.7910   -0.0210    1.5620 o         1 CRO     -0.825800
     15 CB2         1.6580    1.7040    0.0510 ce        1 CRO     -0.065200
     16 CG2         2.9700    1.0900    0.0830 ca        1 CRO     -0.070800
     17 CD1         3.1690   -0.2560    0.4250 ca        1 CRO     -0.074000
     18 CD2         4.0890    1.8880   -0.2180 ca        1 CRO     -0.074000
     19 CE1         4.4520   -0.7970    0.4540 ca        1 CRO     -0.195500
     20 CE2         5.3750    1.3630   -0.1970 ca        1 CRO     -0.195500
     21 CZ          5.5510    0.0120    0.1400 ca        1 CRO      0.112100
     22 OH          6.8470   -0.4610    0.1480 oh        1 CRO     -0.509100
     23 OXT        -4.9660   -0.5170   -0.2760 o         1 CRO     -0.825800
     24 HN11       -0.3120   -2.5540   -1.8230 hn        1 CRO      0.346300
     25 H2         -1.7570   -3.2290   -2.1510 hn        1 CRO      0.346300
     26 HA1        -2.9480   -1.3470   -1.3030 h1        1 CRO      0.130700
     27 HB1        -2.1600   -1.6480    1.2340 h1        1 CRO      0.139700
     28 HG11       -3.3040   -3.9310   -0.5530 hc        1 CRO      0.052700
     29 HG12       -3.3910   -3.8730    1.2570 hc        1 CRO      0.052700
     30 HG13       -4.2130   -2.5760    0.2730 hc        1 CRO      0.052700
     31 HOG1       -0.9370   -3.9550    0.1540 ho        1 CRO      0.373000
     32 HA31       -3.4160    2.1580   -0.0800 h1        1 CRO      0.053700
     33 HA32       -3.6150    1.1030   -1.5660 h1        1 CRO      0.053700
     34 HB2         1.6370    2.7950    0.2370 ha        1 CRO      0.139000
     35 HD1         2.3090   -0.8970    0.6800 ha        1 CRO      0.152500
     36 HD2         3.9430    2.9470   -0.4800 ha        1 CRO      0.152500
     37 HE1         4.5980   -1.8530    0.7210 ha        1 CRO      0.134000
     38 HE2         6.2490    1.9820   -0.4390 ha        1 CRO      0.134000
     39 HOH         6.8140   -1.3990    0.3820 ho        1 CRO      0.413000
@<TRIPOS>BOND
     1    1    2 1   
     2    1   24 1   
     3    1   25 1   
     4    2    3 1   
     5    2    6 1   
     6    2   26 1   
     7    3    4 1   
     8    3    5 1   
     9    3   27 1   
    10    4   28 1   
    11    4   29 1   
    12    4   30 1   
    13    5   31 1   
    14    6    7 2   
    15    6    8 1   
    16    7   11 1   
    17    8    9 1   
    18    8   12 1   
    19    9   10 2   
    20    9   11 1   
    21   11   15 2   
    22   12   13 1   
    23   12   32 1   
    24   12   33 1   
    25   13   14 1   
    26   13   23 1   
    27   15   16 1   
    28   15   34 1   
    29   16   17 ar  
    30   16   18 ar  
    31   17   19 ar  
    32   17   35 1   
    33   18   20 ar  
    34   18   36 1   
    35   19   21 ar  
    36   19   37 1   
    37   20   21 ar  
    38   20   38 1   
    39   21   22 1   
    40   22   39 1   
@<TRIPOS>SUBSTRUCTURE
     1 CRO         1 TEMP              0 ****  ****    0 ROOT
