@<TRIPOS>MOLECULE
CRO
   39    34     1     0     0
SMALL
bcc


@<TRIPOS>ATOM
      1 N1         -1.5850    2.3770    2.2010 n3        1 CRO     -0.319000
      2 CA1        -0.3650    2.6700    1.5700 c3        1 CRO     -0.017000
      3 CB1         0.6600    3.0310    2.6030 c3        1 CRO      0.008000
      4 CG1         0.9260    4.5320    2.5540 c3        1 CRO     -0.210000
      5 OG1         0.1810    2.6810    3.8710 oh        1 CRO     -0.360000
      6 C1          0.1100    1.4400    0.7930 c2        1 CRO      0.153000
      7 N2          0.0480    0.2310    1.3540 n1        1 CRO     -0.262000
      8 N3          0.0430    1.4210   -0.6120 n         1 CRO     -0.261000
      9 C2         -0.0680   -0.0650   -0.9500 c2        1 CRO      0.307000
     10 O2          0.2040   -0.5630   -1.9830 o         1 CRO     -0.326000
     11 CA2        -0.0550   -0.7810    0.4630 c1        1 CRO     -0.079000
     12 CA3         0.5290    2.4470   -1.4910 c3        1 CRO     -0.112000
     13 C3          0.8040    1.8500   -2.8610 c2        1 CRO      0.325000
     14 O3         -0.1050    1.7760   -3.6990 o         1 CRO     -0.564500
     15 CB2        -0.1340   -2.1690    0.7290 c1        1 CRO     -0.075000
     16 CG2        -0.2410   -3.1350   -0.3980 c1        1 CRO     -0.000500
     17 CD1         0.9010   -3.7750   -0.8740 c1        1 CRO     -0.107500
     18 CD2        -1.5010   -3.4890   -0.8990 c1        1 CRO     -0.156500
     19 CE1         0.7860   -4.7610   -1.8420 c1        1 CRO     -0.107500
     20 CE2        -1.6080   -4.4750   -1.8660 c1        1 CRO     -0.156500
     21 CZ         -0.4690   -5.1120   -2.3390 c1        1 CRO     -0.000500
     22 OH         -0.5790   -6.0920   -3.3590 o         1 CRO     -0.259000
     23 OXT         2.0040    1.4430   -3.1640 o         1 CRO     -0.564500
     24 HN11       -1.9390    3.1370    2.5410 hn        1 CRO      0.141500
     25 H2         -2.1360    2.0350    1.6220 hn        1 CRO      0.141500
     26 HA1        -0.4840    3.3960    0.9760 h1        1 CRO      0.162000
     27 HB1         1.5420    2.5180    2.4150 h1        1 CRO      0.131000
     28 HG11        1.5110    4.7810    3.2930 hc        1 CRO      0.084000
     29 HG12        0.1230    4.9910    2.6260 hc        1 CRO      0.084000
     30 HG13        1.3450    4.7550    1.7270 hc        1 CRO      0.084000
     31 HOG1        0.7800    2.8440    4.4560 ho        1 CRO      0.211000
     32 HA31        1.3190    2.8040   -1.1460 h1        1 CRO      0.097500
     33 HA32       -0.1660    3.1820   -1.5750 h1        1 CRO      0.097500
     34 HB2        -0.1190   -2.4870    1.6320 ha        1 CRO      0.134000
     35 HD1         1.7910   -3.6390   -0.3980 ha        1 CRO      0.159000
     36 HD2        -2.3350   -2.9820   -0.5920 ha        1 CRO      0.125000
     37 HE1         1.5900   -5.2150   -2.1800 ha        1 CRO      0.159000
     38 HE2        -2.4680   -4.7170   -2.2090 ha        1 CRO      0.125000
     39 HOH        -0.8420   -6.8850   -2.9880 ho        1 CRO      0.209000
@<TRIPOS>BOND
     1    1    2 1   
     2    1   24 1   
     3    1   25 1   
     4    2    3 1   
     5    2    6 1   
     6    2   26 1   
     7    3    4 1   
     8    3    5 1   
     9    3   27 1   
    10    4   28 1   
    11    4   29 1   
    12    4   30 1   
    13    5   31 1   
    14    6    7 1   
    15    6    8 1   
    16    8    9 1   
    17    8   12 1   
    18    9   10 1   
    19    9   11 1   
    20   11   15 1   
    21   12   13 1   
    22   12   32 1   
    23   12   33 1   
    24   13   14 1   
    25   13   23 1   
    26   15   34 1   
    27   16   18 1   
    28   17   19 1   
    29   17   35 1   
    30   18   36 1   
    31   19   37 1   
    32   20   21 1   
    33   20   38 1   
    34   22   39 1   
@<TRIPOS>SUBSTRUCTURE
     1 CRO         1 TEMP              0 ****  ****    0 ROOT
