@<TRIPOS>MOLECULE
CRP
   39    40     1     0     0
SMALL
bcc


@<TRIPOS>ATOM
      1 Cl0         0.0060   -0.9370    0.1260 cl        1 CRP     -0.025400
      2 C1'         4.4040   -0.1240   -0.1510 ca        1 CRP     -0.192300
      3 C2'         3.7120    0.1540    1.0340 ca        1 CRP     -0.094000
      4 C3'         2.3460   -0.1010    1.1250 ca        1 CRP     -0.117000
      5 C4'         1.6620   -0.6290    0.0230 ca        1 CRP      0.053400
      6 C5'         2.3500   -0.9070   -1.1680 ca        1 CRP     -0.117000
      7 C6'         3.7160   -0.6550   -1.2490 ca        1 CRP     -0.094000
      8 C7'         5.8790    0.1260   -0.2130 c3        1 CRP      0.199800
      9 C8'         6.6520   -1.1050   -0.6620 c3        1 CRP     -0.130100
     10 N           6.1420    1.3120   -1.1290 ny        1 CRP     -0.687800
     11 C           7.5340    1.8890   -0.9640 c         1 CRP      0.587100
     12 O           7.8720    2.1680    0.1730 o         1 CRP     -0.387100
     13 C1          8.2650    2.0990   -2.2470 cx        1 CRP     -0.220000
     14 C2          9.6530    1.4650   -2.3920 cx        1 CRP      0.116800
     15 C3          8.4820    0.9140   -3.1730 cx        1 CRP     -0.084700
     16 C4          8.3790    1.0670   -4.6500 c3        1 CRP     -0.092100
     17 C5          7.9540    3.4540   -2.8330 c3        1 CRP     -0.063400
     18 C6          7.7460    4.5260   -1.7940 c3        1 CRP     -0.111100
     19 Cl1        10.9030    2.3400   -3.1700 cl        1 CRP     -0.035400
     20 Cl2        10.2510    0.4950   -1.0930 cl        1 CRP     -0.035400
     21 H5'         1.8130   -1.3300   -2.0330 ha        1 CRP      0.172500
     22 H6'         4.2510   -0.8940   -2.1810 ha        1 CRP      0.142500
     23 H7'         6.2590    0.4440    0.8090 hx        1 CRP      0.122700
     24 H8'1        6.3580   -1.4350   -1.6880 hc        1 CRP      0.078367
     25 H8'2        6.4170   -1.9370    0.0500 hc        1 CRP      0.078367
     26 H8'3        7.7550   -0.9200   -0.6340 hc        1 CRP      0.078367
     27 HN          6.0030    1.0220   -2.1020 hn        1 CRP      0.457300
     28 H3          8.0960   -0.0760   -2.8330 hc        1 CRP      0.094700
     29 H41         7.3130    0.9650   -4.9740 hc        1 CRP      0.069700
     30 H42         8.7600    2.0590   -4.9980 hc        1 CRP      0.069700
     31 H43         8.9800    0.2670   -5.1510 hc        1 CRP      0.069700
     32 H51         8.7970    3.7640   -3.5110 hc        1 CRP      0.079200
     33 H52         7.0380    3.3540   -3.4770 hc        1 CRP      0.079200
     34 H61         7.6340    5.5190   -2.2960 hc        1 CRP      0.055367
     35 H62         6.8240    4.3340   -1.1930 hc        1 CRP      0.055367
     36 H63         8.6170    4.5830   -1.0950 hc        1 CRP      0.055367
     37 H2'         4.2440    0.5620    1.9090 ha        1 CRP      0.142500
     38 HN3         5.4560    2.0430   -0.9050 hn        1 CRP      0.457300
     39 H3'         1.8080    0.1110    2.0640 ha        1 CRP      0.172500
@<TRIPOS>BOND
     1    1    5 1   
     2    2    3 ar  
     3    2    7 ar  
     4    2    8 1   
     5    3    4 ar  
     6    3   37 1   
     7    4    5 ar  
     8    4   39 1   
     9    5    6 ar  
    10    6    7 ar  
    11    6   21 1   
    12    7   22 1   
    13    8    9 1   
    14    8   10 1   
    15    8   23 1   
    16    9   24 1   
    17    9   25 1   
    18    9   26 1   
    19   10   11 1   
    20   10   27 1   
    21   10   38 1   
    22   11   12 2   
    23   11   13 1   
    24   13   14 1   
    25   13   15 1   
    26   13   17 1   
    27   14   15 1   
    28   14   19 1   
    29   14   20 1   
    30   15   16 1   
    31   15   28 1   
    32   16   29 1   
    33   16   30 1   
    34   16   31 1   
    35   17   18 1   
    36   17   32 1   
    37   17   33 1   
    38   18   34 1   
    39   18   35 1   
    40   18   36 1   
@<TRIPOS>SUBSTRUCTURE
     1 CRP         1 TEMP              0 ****  ****    0 ROOT
