@<TRIPOS>MOLECULE
CRP
   39    40     1     0     0
SMALL
bcc


@<TRIPOS>ATOM
      1 CL0        -0.0220   -1.1680    0.0540 cl        1 CRP     -0.025400
      2 C1'         4.3460   -0.1900   -0.1710 ca        1 CRP     -0.193300
      3 C2'         3.6230    0.0890    0.9950 ca        1 CRP     -0.093500
      4 C3'         2.2670   -0.2170    1.0700 ca        1 CRP     -0.117500
      5 C4'         1.6230   -0.7980   -0.0300 ca        1 CRP      0.054400
      6 C5'         2.3420   -1.0770   -1.2020 ca        1 CRP     -0.117500
      7 C6'         3.6980   -0.7730   -1.2680 ca        1 CRP     -0.093500
      8 C7'         5.8110    0.1170   -0.2150 c3        1 CRP      0.200800
      9 C8'         6.6380   -1.0930   -0.6240 c3        1 CRP     -0.130100
     10 N           6.0430    1.2920   -1.1530 n4        1 CRP     -0.687800
     11 C           7.3940    1.9500   -0.9560 c         1 CRP      0.583100
     12 O           7.6680    2.2880    0.1820 o         1 CRP     -0.386100
     13 C1          8.1660    2.1630   -2.2160 cx        1 CRP     -0.219000
     14 C2          9.5660    1.5520   -2.3160 cx        1 CRP      0.118800
     15 C3          8.4260    0.9730   -3.1250 cx        1 CRP     -0.083700
     16 C4          8.3600    1.0910   -4.6070 c3        1 CRP     -0.092100
     17 C5          7.8670    3.5240   -2.7930 c3        1 CRP     -0.055400
     18 C6          8.2790    4.6560   -1.8860 c3        1 CRP     -0.110100
     19 CL1        10.8160    2.4520   -3.0650 cl        1 CRP     -0.036900
     20 CL2        10.1460    0.6060   -0.9920 cl        1 CRP     -0.036900
     21 H5'         1.8370   -1.5410   -2.0650 ha        1 CRP      0.172500
     22 H6'         4.2580   -1.0140   -2.1840 ha        1 CRP      0.142500
     23 H7'         6.1600    0.4710    0.8060 hx        1 CRP      0.122700
     24 H8'1        6.3760   -1.4540   -1.6480 hc        1 CRP      0.078367
     25 H8'2        7.7320   -0.8670   -0.5800 hc        1 CRP      0.078367
     26 H8'3        6.4200   -1.9190    0.1010 hc        1 CRP      0.078367
     27 HN          5.9540    0.9710   -2.1220 hn        1 CRP      0.457300
     28 H3          8.0470   -0.0170   -2.7770 hc        1 CRP      0.092700
     29 H41         8.7980    0.1720   -5.0740 hc        1 CRP      0.070033
     30 H42         8.9290    1.9740   -4.9900 hc        1 CRP      0.070033
     31 H43         7.2960    1.1860   -4.9380 hc        1 CRP      0.070033
     32 H51         6.7660    3.5850   -3.0110 hc        1 CRP      0.069700
     33 H52         8.4010    3.6280   -3.7780 hc        1 CRP      0.069700
     34 H61         7.9940    5.6310   -2.3510 hc        1 CRP      0.059700
     35 H62         7.7820    4.5800   -0.8880 hc        1 CRP      0.059700
     36 H63         9.3860    4.6530   -1.7270 hc        1 CRP      0.059700
     37 H2'         4.1230    0.5380    1.8690 ha        1 CRP      0.142500
     38 HN3         5.3090    1.9880   -0.9720 hn        1 CRP      0.457300
     39 H3'         1.7040   -0.0040    1.9940 ha        1 CRP      0.172500
@<TRIPOS>BOND
     1    1    5 1   
     2    2    3 ar  
     3    2    7 ar  
     4    2    8 1   
     5    3    4 ar  
     6    3   37 1   
     7    4    5 ar  
     8    4   39 1   
     9    5    6 ar  
    10    6    7 ar  
    11    6   21 1   
    12    7   22 1   
    13    8    9 1   
    14    8   10 1   
    15    8   23 1   
    16    9   24 1   
    17    9   25 1   
    18    9   26 1   
    19   10   11 1   
    20   10   27 1   
    21   10   38 1   
    22   11   12 2   
    23   11   13 1   
    24   13   14 1   
    25   13   15 1   
    26   13   17 1   
    27   14   15 1   
    28   14   19 1   
    29   14   20 1   
    30   15   16 1   
    31   15   28 1   
    32   16   29 1   
    33   16   30 1   
    34   16   31 1   
    35   17   18 1   
    36   17   32 1   
    37   17   33 1   
    38   18   34 1   
    39   18   35 1   
    40   18   36 1   
@<TRIPOS>SUBSTRUCTURE
     1 CRP         1 TEMP              0 ****  ****    0 ROOT
