@<TRIPOS>MOLECULE
CRP
   38    39     1     0     0
SMALL
bcc


@<TRIPOS>ATOM
      1 CL0         1.4020   -0.1980    6.2410 cl        1 CRP     -0.092400
      2 C1'        -0.8350    0.2910    2.3770 ca        1 CRP     -0.108300
      3 C2'        -0.9440   -0.8960    3.1080 ca        1 CRP     -0.111000
      4 C3'        -0.2540   -1.0520    4.3090 ca        1 CRP     -0.125000
      5 C4'         0.5560   -0.0140    4.7780 ca        1 CRP      0.019400
      6 C5'         0.6780    1.1750    4.0520 ca        1 CRP     -0.125000
      7 C6'        -0.0180    1.3210    2.8540 ca        1 CRP     -0.111000
      8 C7'        -1.6000    0.4470    1.0810 c3        1 CRP      0.142000
      9 C8'        -2.5880    1.6100    1.2200 c3        1 CRP     -0.102100
     10 N          -0.7200    0.6100   -0.0570 n         1 CRP     -0.564900
     11 C          -0.5490   -0.3780   -1.0080 c         1 CRP      0.692100
     12 O          -1.2370   -1.4150   -1.0050 o         1 CRP     -0.582100
     13 C1          0.5300   -0.1260   -2.0400 cx        1 CRP     -0.165000
     14 C2          0.1140    0.0610   -3.4910 cx        1 CRP      0.109800
     15 C3          0.6030    1.2460   -2.6870 cx        1 CRP     -0.100700
     16 C4          1.9000    1.9200   -2.9670 c3        1 CRP     -0.079100
     17 C5          1.7920   -0.8640   -1.6860 c3        1 CRP     -0.046400
     18 C6          1.6380   -2.3630   -1.7550 c3        1 CRP     -0.101100
     19 CL1         1.0910   -0.6060   -4.7500 cl        1 CRP     -0.086900
     20 CL2        -1.5620    0.0190   -3.9090 cl        1 CRP     -0.086900
     21 H3'        -0.3470   -1.9880    4.8810 ha        1 CRP      0.148500
     22 H5'         1.3170    1.9910    4.4230 ha        1 CRP      0.148500
     23 H6'         0.0720    2.2600    2.2870 ha        1 CRP      0.139500
     24 H7'        -2.2040   -0.4980    0.9030 h1        1 CRP      0.097700
     25 H8'1       -2.0560    2.5780    1.3800 hc        1 CRP      0.045367
     26 H8'2       -3.2220    1.6950    0.3060 hc        1 CRP      0.045367
     27 H8'3       -3.2480    1.4170    2.1000 hc        1 CRP      0.045367
     28 HN         -0.0730    1.3610   -0.0220 hn        1 CRP      0.307500
     29 H3         -0.1800    1.9810   -2.3920 hc        1 CRP      0.099700
     30 H41         1.7270    2.8240   -3.6030 hc        1 CRP      0.051033
     31 H42         2.3710    2.2450   -2.0060 hc        1 CRP      0.051033
     32 H43         2.6190    1.2530   -3.5030 hc        1 CRP      0.051033
     33 H51         2.0900   -0.5620   -0.6440 hc        1 CRP      0.052700
     34 H52         2.6210   -0.5440   -2.3720 hc        1 CRP      0.052700
     35 H61         2.5710   -2.8550   -1.3880 hc        1 CRP      0.049033
     36 H62         0.7790   -2.7040   -1.1270 hc        1 CRP      0.049033
     37 H63         1.4520   -2.6910   -2.8060 hc        1 CRP      0.049033
     38 H2'        -1.5760   -1.7180    2.7340 ha        1 CRP      0.139500
@<TRIPOS>BOND
     1    1    5 1   
     2    2    3 ar  
     3    2    7 ar  
     4    2    8 1   
     5    3    4 ar  
     6    3   38 1   
     7    4    5 ar  
     8    4   21 1   
     9    5    6 ar  
    10    6    7 ar  
    11    6   22 1   
    12    7   23 1   
    13    8    9 1   
    14    8   10 1   
    15    8   24 1   
    16    9   25 1   
    17    9   26 1   
    18    9   27 1   
    19   10   11 1   
    20   10   28 1   
    21   11   12 2   
    22   11   13 1   
    23   13   14 1   
    24   13   15 1   
    25   13   17 1   
    26   14   15 1   
    27   14   19 1   
    28   14   20 1   
    29   15   16 1   
    30   15   29 1   
    31   16   30 1   
    32   16   31 1   
    33   16   32 1   
    34   17   18 1   
    35   17   33 1   
    36   17   34 1   
    37   18   35 1   
    38   18   36 1   
    39   18   37 1   
@<TRIPOS>SUBSTRUCTURE
     1 CRP         1 TEMP              0 ****  ****    0 ROOT
