@<TRIPOS>MOLECULE
CRP
   39    40     1     0     0
SMALL
bcc


@<TRIPOS>ATOM
      1 CL0         0.0460   -0.9870    0.2210 cl        1 CRP     -0.025400
      2 C1'         4.4310   -0.1260   -0.1150 ca        1 CRP     -0.192300
      3 C2'         3.7490    0.1600    1.0740 ca        1 CRP     -0.094000
      4 C3'         2.3870   -0.1100    1.1830 ca        1 CRP     -0.117000
      5 C4'         1.6980   -0.6620    0.0950 ca        1 CRP      0.053400
      6 C5'         2.3770   -0.9480   -1.0980 ca        1 CRP     -0.117000
      7 C6'         3.7380   -0.6810   -1.1980 ca        1 CRP     -0.094000
      8 C7'         5.9030    0.1400   -0.1960 c3        1 CRP      0.199800
      9 C8'         6.6860   -1.0880   -0.6350 c3        1 CRP     -0.130100
     10 N           6.1420    1.3150   -1.1310 n4        1 CRP     -0.687800
     11 C           7.5300    1.9110   -0.9900 c         1 CRP      0.587100
     12 O           7.8770    2.2090    0.1400 o         1 CRP     -0.387100
     13 C1          8.2440    2.1110   -2.2840 cx        1 CRP     -0.220000
     14 C2          9.6370    1.4900   -2.4350 cx        1 CRP      0.116800
     15 C3          8.4630    0.9150   -3.1950 cx        1 CRP     -0.084700
     16 C4          8.3420    1.0460   -4.6730 c3        1 CRP     -0.092100
     17 C5          7.9110    3.4530   -2.8840 c3        1 CRP     -0.063400
     18 C6          7.7090    4.5390   -1.8580 c3        1 CRP     -0.111100
     19 CL1        10.8680    2.3690   -3.2390 cl        1 CRP     -0.035400
     20 CL2        10.2600    0.5460   -1.1290 cl        1 CRP     -0.035400
     21 H5'         1.8360   -1.3890   -1.9520 ha        1 CRP      0.172500
     22 H6'         4.2660   -0.9270   -2.1320 ha        1 CRP      0.142500
     23 H7'         6.2900    0.4760    0.8180 hx        1 CRP      0.122700
     24 H8'1        6.3850   -1.4360   -1.6530 hc        1 CRP      0.078367
     25 H8'2        6.4680   -1.9130    0.0910 hc        1 CRP      0.078367
     26 H8'3        7.7860   -0.8900   -0.6220 hc        1 CRP      0.078367
     27 HN          5.9960    1.0110   -2.0980 hn        1 CRP      0.457300
     28 H3          8.0930   -0.0740   -2.8360 hc        1 CRP      0.094700
     29 H41         7.2750    0.9260   -4.9830 hc        1 CRP      0.069700
     30 H42         8.7080    2.0370   -5.0390 hc        1 CRP      0.069700
     31 H43         8.9480    0.2450   -5.1690 hc        1 CRP      0.069700
     32 H51         6.9860    3.3360   -3.5120 hc        1 CRP      0.079200
     33 H52         8.7400    3.7610   -3.5800 hc        1 CRP      0.079200
     34 H61         6.7980    4.3480   -1.2400 hc        1 CRP      0.055367
     35 H62         7.5790    5.5230   -2.3730 hc        1 CRP      0.055367
     36 H63         8.5900    4.6150   -1.1740 hc        1 CRP      0.055367
     37 H2'         4.2850    0.5870    1.9380 ha        1 CRP      0.142500
     38 HN3         5.4500    2.0420   -0.9100 hn        1 CRP      0.457300
     39 H3'         1.8560    0.1090    2.1240 ha        1 CRP      0.172500
@<TRIPOS>BOND
     1    1    5 1   
     2    2    3 ar  
     3    2    7 ar  
     4    2    8 1   
     5    3    4 ar  
     6    3   37 1   
     7    4    5 ar  
     8    4   39 1   
     9    5    6 ar  
    10    6    7 ar  
    11    6   21 1   
    12    7   22 1   
    13    8    9 1   
    14    8   10 1   
    15    8   23 1   
    16    9   24 1   
    17    9   25 1   
    18    9   26 1   
    19   10   11 1   
    20   10   27 1   
    21   10   38 1   
    22   11   12 2   
    23   11   13 1   
    24   13   14 1   
    25   13   15 1   
    26   13   17 1   
    27   14   15 1   
    28   14   19 1   
    29   14   20 1   
    30   15   16 1   
    31   15   28 1   
    32   16   29 1   
    33   16   30 1   
    34   16   31 1   
    35   17   18 1   
    36   17   32 1   
    37   17   33 1   
    38   18   34 1   
    39   18   35 1   
    40   18   36 1   
@<TRIPOS>SUBSTRUCTURE
     1 CRP         1 TEMP              0 ****  ****    0 ROOT
