@<TRIPOS>MOLECULE
CRQ
   40    41     1     0     0
SMALL
bcc


@<TRIPOS>ATOM
      1 N           2.1580    1.4040   -1.4410 n2        1 CRQ     -0.733100
      2 CA1         1.3240    0.4390   -1.5470 ce        1 CRQ      0.444000
      3 CB1         1.4310   -0.6590   -2.5720 c3        1 CRQ     -0.124700
      4 CG1         2.5110   -0.4300   -3.6090 c3        1 CRQ     -0.137400
      5 C1          0.1520    0.2580   -0.6160 cc        1 CRQ      0.396600
      6 N2          0.3320    0.2010    0.7110 nd        1 CRQ     -0.651300
      7 N3         -1.1950    0.1210   -1.0270 n         1 CRQ     -0.370300
      8 C2         -1.9750    0.0220    0.1570 c         1 CRQ      0.660700
      9 O2         -3.2040   -0.0920    0.2260 o         1 CRQ     -0.601500
     10 CA2        -0.9570    0.0450    1.2940 cd        1 CRQ      0.025400
     11 CA3        -1.7600    0.3170   -2.3320 c3        1 CRQ     -0.044000
     12 CB2        -1.3270   -0.0860    2.5820 ce        1 CRQ     -0.048200
     13 CG2        -0.4820   -0.1100    3.7570 ca        1 CRQ     -0.079800
     14 CD1         0.7940    0.4690    3.7940 ca        1 CRQ     -0.071000
     15 CD2        -0.9800   -0.7310    4.9200 ca        1 CRQ     -0.071000
     16 CE1         1.5620    0.4220    4.9550 ca        1 CRQ     -0.195500
     17 CE2        -0.2260   -0.7890    6.0840 ca        1 CRQ     -0.195500
     18 CZ          1.0530   -0.2090    6.0960 ca        1 CRQ      0.119100
     19 OH          1.7580   -0.2930    7.2770 oh        1 CRQ     -0.506100
     20 OE1         2.9700   -2.2350   -5.1580 o         1 CRQ     -0.674100
     21 C          -1.0010    1.2830   -3.2880 c         1 CRQ      0.910600
     22 O          -0.5440    2.3610   -2.8350 o         1 CRQ     -0.824800
     23 CD3         2.2460   -1.2550   -4.8570 c         1 CRQ      0.648100
     24 NE1         1.2190   -0.8690   -5.6720 n         1 CRQ     -0.663000
     25 OXT        -0.9220    0.8970   -4.4910 o         1 CRQ     -0.824800
     26 HN1         1.9590    2.0910   -0.7450 hn        1 CRQ      0.405400
     27 HB11        0.4300   -0.7330   -3.0840 hc        1 CRQ      0.076200
     28 HB12        1.6180   -1.6250   -2.0310 hc        1 CRQ      0.076200
     29 HG11        3.5120   -0.7230   -3.2000 hc        1 CRQ      0.080200
     30 HG12        2.5580    0.6550   -3.8970 hc        1 CRQ      0.080200
     31 HA31       -1.8430   -0.6910   -2.8300 h1        1 CRQ      0.053200
     32 HA32       -2.7990    0.7300   -2.2000 h1        1 CRQ      0.053200
     33 HB1        -2.4120   -0.2110    2.7760 ha        1 CRQ      0.141000
     34 HD1         1.2030    0.9740    2.9040 ha        1 CRQ      0.150000
     35 HD2        -1.9840   -1.1830    4.9030 ha        1 CRQ      0.150000
     36 HE1         2.5630    0.8760    4.9730 ha        1 CRQ      0.136500
     37 HE2        -0.6100   -1.2780    6.9890 ha        1 CRQ      0.136500
     38 HH          2.6190    0.1250    7.1350 ho        1 CRQ      0.415000
     39 HE11        0.9880   -1.4250   -6.4550 hn        1 CRQ      0.330500
     40 HE12        0.5860   -0.1480   -5.3900 hn        1 CRQ      0.330500
@<TRIPOS>BOND
     1    1    2 2   
     2    1   26 1   
     3    2    3 1   
     4    2    5 1   
     5    3    4 1   
     6    3   27 1   
     7    3   28 1   
     8    4   23 1   
     9    4   29 1   
    10    4   30 1   
    11    5    6 2   
    12    5    7 1   
    13    6   10 1   
    14    7    8 1   
    15    7   11 1   
    16    8    9 2   
    17    8   10 1   
    18   10   12 2   
    19   11   21 1   
    20   11   31 1   
    21   11   32 1   
    22   12   13 1   
    23   12   33 1   
    24   13   14 ar  
    25   13   15 ar  
    26   14   16 ar  
    27   14   34 1   
    28   15   17 ar  
    29   15   35 1   
    30   16   18 ar  
    31   16   36 1   
    32   17   18 ar  
    33   17   37 1   
    34   18   19 1   
    35   19   38 1   
    36   20   23 2   
    37   21   22 1   
    38   21   25 1   
    39   23   24 1   
    40   24   39 1   
    41   24   40 1   
@<TRIPOS>SUBSTRUCTURE
     1 CRQ         1 TEMP              0 ****  ****    0 ROOT
