@<TRIPOS>MOLECULE
CRQ
   40    35     1     0     0
SMALL
bcc


@<TRIPOS>ATOM
      1 N          -1.5750    0.1260    2.8840 n1        1 CRQ     -0.224000
      2 CA1        -1.6340    0.8250    1.7790 c1        1 CRQ      0.066000
      3 CB1        -2.4590    2.1320    1.7360 c2        1 CRQ     -0.187000
      4 CG1        -3.2380    2.2920    3.0580 c3        1 CRQ     -0.189000
      5 C1         -0.8750    0.3440    0.5130 c2        1 CRQ      0.142000
      6 N2          0.2210    0.9750    0.1180 n1        1 CRQ     -0.199000
      7 N3         -0.9180   -1.0160    0.1390 n         1 CRQ     -0.259000
      8 C2          0.3990   -1.2280   -0.6160 c2        1 CRQ      0.317000
      9 O2          0.6240   -2.1050   -1.4220 o         1 CRQ     -0.324000
     10 CA2         1.0960    0.1890   -0.5670 c1        1 CRQ     -0.095000
     11 CA3        -2.1120   -1.8290    0.0170 c3        1 CRQ     -0.094000
     12 CB2         2.3120    0.5480   -1.0960 c1        1 CRQ     -0.053000
     13 CG2         3.1590   -0.4890   -1.8390 c1        1 CRQ     -0.080000
     14 CD1         3.1930   -0.4940   -3.2260 c2        1 CRQ     -0.046000
     15 CD2         3.9230   -1.4000   -1.1240 c1        1 CRQ     -0.088000
     16 CE1         3.9910   -1.4110   -3.8970 c1        1 CRQ     -0.215000
     17 CE2         4.7220   -2.3170   -1.7980 c1        1 CRQ     -0.171000
     18 CZ          4.7550   -2.3220   -3.1810 c1        1 CRQ      0.073000
     19 OH          5.5350   -3.2830   -3.8650 oh        1 CRQ     -0.262000
     20 OE1        -4.7900    3.7740    2.0030 o         1 CRQ     -0.451000
     21 C          -1.9280   -2.8380   -1.1220 c2        1 CRQ      0.304000
     22 O          -1.5820   -4.0280   -0.8610 o         1 CRQ     -0.569500
     23 CD3        -4.1080    3.5570    2.9900 c2        1 CRQ      0.305000
     24 NE1        -4.1920    4.4250    4.1150 n         1 CRQ     -0.409000
     25 OXT        -2.2310   -2.5170   -2.2990 o         1 CRQ     -0.569500
     26 HN1        -2.0220    0.4100    3.6290 DU        1 CRQ      0.145000
     27 HB11       -3.0900    2.0950    0.9890 ha        1 CRQ      0.133500
     28 HB12       -1.8570    2.8940    1.6170 ha        1 CRQ      0.133500
     29 HG11       -3.8130    1.5080    3.1970 hc        1 CRQ      0.117000
     30 HG12       -2.6060    2.3700    3.8030 hc        1 CRQ      0.117000
     31 HA31       -2.2690   -2.3090    0.8580 h1        1 CRQ      0.104000
     32 HA32       -2.8790   -1.2540   -0.1770 h1        1 CRQ      0.104000
     33 HB1         2.6380    1.4650   -0.9980 ha        1 CRQ      0.138000
     34 HD1         2.6600    0.1410   -3.7250 ha        1 CRQ      0.169000
     35 HD2         3.8990   -1.3970   -0.1460 ha        1 CRQ      0.131000
     36 HE1         4.0320   -1.3990   -4.8720 ha        1 CRQ      0.133000
     37 HE2         5.2570   -2.9560   -1.2980 ha        1 CRQ      0.140000
     38 HH          6.2060   -2.8820   -4.2710 ho        1 CRQ      0.214000
     39 HE11       -4.6830    5.1930    4.0630 hn        1 CRQ      0.248500
     40 HE12       -3.7620    4.2090    4.8920 hn        1 CRQ      0.248500
@<TRIPOS>BOND
     1    1    2 1   
     2    2    5 1   
     3    3    4 1   
     4    3   27 1   
     5    3   28 1   
     6    4   23 1   
     7    4   29 1   
     8    4   30 1   
     9    5    6 1   
    10    5    7 1   
    11    7    8 1   
    12    7   11 1   
    13    8    9 1   
    14    8   10 1   
    15   10   12 1   
    16   11   21 1   
    17   11   31 1   
    18   11   32 1   
    19   12   33 1   
    20   13   14 1   
    21   13   15 1   
    22   14   16 1   
    23   14   34 1   
    24   15   35 1   
    25   16   36 1   
    26   17   18 1   
    27   17   37 1   
    28   18   19 1   
    29   19   38 1   
    30   20   23 1   
    31   21   22 1   
    32   21   25 1   
    33   23   24 1   
    34   24   39 1   
    35   24   40 1   
@<TRIPOS>SUBSTRUCTURE
     1 CRQ         1 TEMP              0 ****  ****    0 ROOT
