@<TRIPOS>MOLECULE
CRR
   42    46     1     0     0
SMALL
bcc


@<TRIPOS>ATOM
      1 C5         -0.3980   -0.1750    0.1350 ca        1 CRR     -0.066300
      2 C4          0.7970   -0.8710    0.2860 ca        1 CRR     -0.059000
      3 C3          1.3020   -1.0810    1.5680 ca        1 CRR     -0.180000
      4 C2          0.6260   -0.6130    2.7010 ca        1 CRR     -0.142500
      5 C1         -0.5770    0.0790    2.5930 ca        1 CRR     -0.174000
      6 C20        -1.0920    0.3040    1.3130 ca        1 CRR     -0.075700
      7 N3         -2.3000    0.9090    0.9090 na        1 CRR     -0.189900
      8 C19        -2.2850    0.9410   -0.5080 cc        1 CRR     -0.152100
      9 C6         -1.1850    0.2550   -1.0180 cd        1 CRR      0.034600
     10 C7         -0.8760    0.1000   -2.4030 cd        1 CRR     -0.141800
     11 C8         -0.9740    1.1210   -3.3760 cc        1 CRR     -0.114900
     12 C36        -1.4600    2.5530   -3.3270 c         1 CRR      0.931200
     13 O39        -2.3520    2.8860   -2.4930 o         1 CRR     -0.841550
     14 O40        -0.9730    3.3690   -4.1650 o         1 CRR     -0.841550
     15 N1         -0.5090    0.5920   -4.5800 na        1 CRR     -0.139100
     16 C9         -0.1370   -0.7330   -4.4240 cc        1 CRR     -0.114900
     17 C35         0.3760   -1.5280   -5.6140 c         1 CRR      0.931200
     18 O37        -0.4620   -2.1350   -6.3350 o         1 CRR     -0.841550
     19 O38         1.6200   -1.5080   -5.8470 o         1 CRR     -0.841550
     20 C10        -0.3620   -1.0870   -3.0730 cd        1 CRR     -0.141800
     21 C11        -0.2330   -2.3810   -2.4870 cd        1 CRR      0.034600
     22 C12         0.8410   -3.3590   -2.6680 ca        1 CRR     -0.066300
     23 C13         2.0130   -3.3780   -3.4170 ca        1 CRR     -0.059000
     24 C14         2.8360   -4.5010   -3.3470 ca        1 CRR     -0.180000
     25 C15         2.5040   -5.6020   -2.5490 ca        1 CRR     -0.142500
     26 C16         1.3370   -5.6230   -1.7920 ca        1 CRR     -0.174000
     27 C17         0.5020   -4.5020   -1.8480 ca        1 CRR     -0.075700
     28 N2         -0.6780   -4.2150   -1.1290 na        1 CRR     -0.189900
     29 C18        -1.1430   -2.9610   -1.6080 cc        1 CRR     -0.152100
     30 H4          1.3190   -1.2550   -0.6050 ha        1 CRR      0.184000
     31 H3          2.2460   -1.6280    1.6930 ha        1 CRR      0.110000
     32 H2          1.0540   -0.7940    3.6970 ha        1 CRR      0.094000
     33 H1         -1.1010    0.4400    3.4860 ha        1 CRR      0.102500
     34 HN3        -2.6400    1.6950    1.4080 hn        1 CRR      0.247700
     35 H19        -3.0510    1.4870   -1.0740 h4        1 CRR      0.192500
     36 HN1        -0.4180    1.1240   -5.4070 hn        1 CRR      0.303700
     37 H13         2.2520   -2.5260   -4.0870 ha        1 CRR      0.184000
     38 H14         3.7580   -4.5270   -3.9440 ha        1 CRR      0.110000
     39 H15         3.1740   -6.4730   -2.5250 ha        1 CRR      0.094000
     40 H16         1.0800   -6.4900   -1.1730 ha        1 CRR      0.102500
     41 HN2        -1.3300   -4.9400   -0.9630 hn        1 CRR      0.247700
     42 H18        -2.0680   -2.5370   -1.2160 h4        1 CRR      0.192500
@<TRIPOS>BOND
     1    1    2 ar  
     2    1    6 ar  
     3    1    9 1   
     4    2    3 ar  
     5    2   30 1   
     6    3    4 ar  
     7    3   31 1   
     8    4    5 ar  
     9    4   32 1   
    10    5    6 ar  
    11    5   33 1   
    12    6    7 1   
    13    7    8 1   
    14    7   34 1   
    15    8    9 2   
    16    8   35 1   
    17    9   10 1   
    18   10   11 2   
    19   10   20 1   
    20   11   12 1   
    21   11   15 1   
    22   12   13 1   
    23   12   14 1   
    24   15   16 1   
    25   15   36 1   
    26   16   17 1   
    27   16   20 2   
    28   17   18 1   
    29   17   19 1   
    30   20   21 1   
    31   21   22 1   
    32   21   29 2   
    33   22   23 ar  
    34   22   27 ar  
    35   23   24 ar  
    36   23   37 1   
    37   24   25 ar  
    38   24   38 1   
    39   25   26 ar  
    40   25   39 1   
    41   26   27 ar  
    42   26   40 1   
    43   27   28 1   
    44   28   29 1   
    45   28   41 1   
    46   29   42 1   
@<TRIPOS>SUBSTRUCTURE
     1 CRR         1 TEMP              0 ****  ****    0 ROOT
