@<TRIPOS>MOLECULE
CRR
   42    46     1     0     0
SMALL
bcc


@<TRIPOS>ATOM
      1 C5          2.0780   -1.2490    0.3640 ca        1 CRR     -0.066300
      2 C4          1.4910   -2.0170   -0.6360 ca        1 CRR     -0.059000
      3 C3          2.0150   -3.2760   -0.9200 ca        1 CRR     -0.180000
      4 C2          3.1130   -3.7820   -0.2140 ca        1 CRR     -0.142500
      5 C1          3.7230   -3.0490    0.7990 ca        1 CRR     -0.174000
      6 C20         3.2130   -1.7810    1.0910 ca        1 CRR     -0.075700
      7 N3          3.5820   -0.8560    2.0900 na        1 CRR     -0.189900
      8 C19         2.7860    0.2990    1.8880 cc        1 CRR     -0.152100
      9 C6          1.8330    0.0900    0.8950 cd        1 CRR      0.034600
     10 C7          0.8770    1.0530    0.4490 cd        1 CRR     -0.141800
     11 C8          1.1500    2.4190    0.2130 cc        1 CRR     -0.114900
     12 C36         2.3840    3.2750    0.4010 c         1 CRR      0.931200
     13 O39         3.2200    2.9830    1.3060 o         1 CRR     -0.841550
     14 O40         2.5150    4.2910   -0.3440 o         1 CRR     -0.841550
     15 N1         -0.0190    2.9960   -0.2840 na        1 CRR     -0.139100
     16 C9         -1.0370    2.0590   -0.3570 cc        1 CRR     -0.114900
     17 C35        -2.4170    2.4670   -0.8460 c         1 CRR      0.931200
     18 O37        -3.2480    2.8990   -0.0020 o         1 CRR     -0.841550
     19 O38        -2.6510    2.3920   -2.0870 o         1 CRR     -0.841550
     20 C10        -0.5200    0.8270    0.1050 cd        1 CRR     -0.141800
     21 C11        -1.2410   -0.3860    0.3170 cd        1 CRR      0.034600
     22 C12        -2.2390   -1.0160   -0.5510 ca        1 CRR     -0.066300
     23 C13        -2.7970   -0.6810   -1.7800 ca        1 CRR     -0.059000
     24 C14        -3.7420   -1.5370   -2.3430 ca        1 CRR     -0.180000
     25 C15        -4.1420   -2.7120   -1.6960 ca        1 CRR     -0.142500
     26 C16        -3.6120   -3.0760   -0.4620 ca        1 CRR     -0.174000
     27 C17        -2.6580   -2.2300    0.1140 ca        1 CRR     -0.075700
     28 N2         -1.9000   -2.3900    1.2930 na        1 CRR     -0.189900
     29 C18        -1.1180   -1.2120    1.4300 cc        1 CRR     -0.152100
     30 H4          0.6150   -1.6250   -1.1780 ha        1 CRR      0.184000
     31 H3          1.5560   -3.8850   -1.7100 ha        1 CRR      0.110000
     32 H2          3.5030   -4.7790   -0.4660 ha        1 CRR      0.094000
     33 H1          4.5810   -3.4540    1.3490 ha        1 CRR      0.102500
     34 HN3         4.5390   -0.7510    2.3240 hn        1 CRR      0.247700
     35 H19         2.9730    1.2250    2.4490 h4        1 CRR      0.192500
     36 HN1        -0.0750    3.9340   -0.5860 hn        1 CRR      0.303700
     37 H13        -2.5160    0.2750   -2.2710 ha        1 CRR      0.184000
     38 H14        -4.1950   -1.2740   -3.3090 ha        1 CRR      0.110000
     39 H15        -4.8960   -3.3580   -2.1670 ha        1 CRR      0.094000
     40 H16        -3.9330   -3.9950    0.0420 ha        1 CRR      0.102500
     41 HN2        -2.3310   -2.7790    2.0950 hn        1 CRR      0.247700
     42 H18        -0.4610   -1.0910    2.2920 h4        1 CRR      0.192500
@<TRIPOS>BOND
     1    1    2 ar  
     2    1    6 ar  
     3    1    9 1   
     4    2    3 ar  
     5    2   30 1   
     6    3    4 ar  
     7    3   31 1   
     8    4    5 ar  
     9    4   32 1   
    10    5    6 ar  
    11    5   33 1   
    12    6    7 1   
    13    7    8 1   
    14    7   34 1   
    15    8    9 2   
    16    8   35 1   
    17    9   10 1   
    18   10   11 2   
    19   10   20 1   
    20   11   12 1   
    21   11   15 1   
    22   12   13 1   
    23   12   14 1   
    24   15   16 1   
    25   15   36 1   
    26   16   17 1   
    27   16   20 2   
    28   17   18 1   
    29   17   19 1   
    30   20   21 1   
    31   21   22 1   
    32   21   29 2   
    33   22   23 ar  
    34   22   27 ar  
    35   23   24 ar  
    36   23   37 1   
    37   24   25 ar  
    38   24   38 1   
    39   25   26 ar  
    40   25   39 1   
    41   26   27 ar  
    42   26   40 1   
    43   27   28 1   
    44   28   29 1   
    45   28   41 1   
    46   29   42 1   
@<TRIPOS>SUBSTRUCTURE
     1 CRR         1 TEMP              0 ****  ****    0 ROOT
