@<TRIPOS>MOLECULE
CRR
   42    30     1     0     0
SMALL
bcc


@<TRIPOS>ATOM
      1 C5          1.1280    0.0690    2.3320 c1        1 CRR     -0.038500
      2 C4          2.5300    0.1650    2.3140 c1        1 CRR     -0.139750
      3 C3          3.2550   -0.0480    3.4780 c1        1 CRR     -0.139750
      4 C2          2.5960   -0.3570    4.6600 c1        1 CRR     -0.139750
      5 C1          1.2120   -0.4520    4.6790 c1        1 CRR     -0.139750
      6 C20         0.4770   -0.2360    3.5000 c1        1 CRR     -0.038500
      7 N3         -0.8830   -0.2400    3.2430 n1        1 CRR     -0.216000
      8 C19        -1.0660    0.0610    1.9220 c1        1 CRR     -0.101000
      9 C6          0.1770    0.2540    1.3520 c1        1 CRR     -0.015000
     10 C7          0.1380    1.1240    0.2750 c2        1 CRR     -0.118000
     11 C8          0.1890    2.4990    0.3440 c1        1 CRR     -0.086000
     12 C36         0.1610    3.3280    1.6100 c1        1 CRR      0.382000
     13 O39         1.2400    3.6710    2.1610 o         1 CRR     -0.583000
     14 O40        -0.9400    3.6680    2.1160 o         1 CRR     -0.583000
     15 N1          0.2080    2.9850   -0.9310 n2        1 CRR     -0.126000
     16 C9          0.1690    1.9240   -1.7880 c1        1 CRR     -0.086000
     17 C35         0.2440    1.9990   -3.2970 c1        1 CRR      0.382000
     18 O37        -0.7770    2.3160   -3.9630 o         1 CRR     -0.583000
     19 O38         1.3330    1.7710   -3.8850 o         1 CRR     -0.583000
     20 C10         0.1260    0.7710   -1.0370 c2        1 CRR     -0.118000
     21 C11        -0.0030   -0.5190   -1.5310 c2        1 CRR     -0.015000
     22 C12        -1.1040   -1.0930   -2.1300 c1        1 CRR     -0.046000
     23 C13        -2.4430   -0.6780   -2.2350 c1        1 CRR     -0.139750
     24 C14        -3.3640   -1.4670   -2.9090 c1        1 CRR     -0.139750
     25 C15        -2.9640   -2.6680   -3.4780 c1        1 CRR     -0.139750
     26 C16        -1.6420   -3.0800   -3.3740 c1        1 CRR     -0.139750
     27 C17        -0.7090   -2.2800   -2.6920 c1        1 CRR     -0.031000
     28 N2          0.6420   -2.4420   -2.4420 n1        1 CRR     -0.216000
     29 C18         1.0740   -1.3590   -1.7280 c1        1 CRR     -0.101000
     30 H4          2.9930    0.3890    1.4850 ha        1 CRR      0.115750
     31 H3          4.2290    0.0190    3.4650 ha        1 CRR      0.115750
     32 H2          3.1060   -0.5070    5.4790 ha        1 CRR      0.115750
     33 H1          0.7490   -0.6690    5.5100 ha        1 CRR      0.115750
     34 HN3        -1.5420   -0.4130    3.8490 DU        1 CRR      0.221400
     35 H19        -1.9250    0.1510    1.4680 DU        1 CRR      0.221400
     36 HN1         0.2400    3.8640   -1.1680 DU        1 CRR      0.221400
     37 H13        -2.7250    0.1670   -1.8350 ha        1 CRR      0.115750
     38 H14        -4.2940   -1.1780   -2.9820 ha        1 CRR      0.115750
     39 H15        -3.6120   -3.2240   -3.9520 ha        1 CRR      0.115750
     40 H16        -1.3650   -3.9330   -3.7590 ha        1 CRR      0.115750
     41 HN2         1.1550   -3.1490   -2.7070 DU        1 CRR      0.221400
     42 H18         1.9870   -1.2030   -1.4190 DU        1 CRR      0.221400
@<TRIPOS>BOND
     1    1    6 1   
     2    2    3 1   
     3    2   30 1   
     4    3   31 1   
     5    4    5 1   
     6    4   32 1   
     7    5   33 1   
     8    7    8 1   
     9    8    9 1   
    10    9   10 1   
    11   10   11 1   
    12   10   20 1   
    13   11   15 1   
    14   12   13 1   
    15   12   14 1   
    16   15   16 1   
    17   16   20 1   
    18   17   18 1   
    19   17   19 1   
    20   20   21 1   
    21   21   22 1   
    22   21   29 1   
    23   22   27 1   
    24   23   24 1   
    25   23   37 1   
    26   24   38 1   
    27   25   26 1   
    28   25   39 1   
    29   26   40 1   
    30   28   29 1   
@<TRIPOS>SUBSTRUCTURE
     1 CRR         1 TEMP              0 ****  ****    0 ROOT
