@<TRIPOS>MOLECULE
CRS
   16    16     1     0     0
SMALL
bcc


@<TRIPOS>ATOM
      1 C1         -0.2110   -0.1230   -1.2070 ca        1 CRS      0.126100
      2 C2         -0.9440   -0.1310   -0.0130 ca        1 CRS     -0.215000
      3 C3         -0.2700   -0.0470    1.2090 ca        1 CRS     -0.038300
      4 C4          1.1270    0.0410    1.2230 ca        1 CRS     -0.166000
      5 C5          1.8460    0.0480    0.0280 ca        1 CRS     -0.094000
      6 C6          1.1910   -0.0330   -1.1960 ca        1 CRS     -0.161000
      7 C7         -1.0340   -0.0380    2.4780 c3        1 CRS     -0.056800
      8 O1         -0.8110   -0.2020   -2.4440 oh        1 CRS     -0.499100
      9 H2         -2.0410   -0.2030   -0.0370 ha        1 CRS      0.133000
     10 H4          1.6590    0.1050    2.1830 ha        1 CRS      0.133000
     11 H5          2.9440    0.1180    0.0520 ha        1 CRS      0.133000
     12 H6          1.7430   -0.0290   -2.1460 ha        1 CRS      0.149000
     13 H71        -1.3000    1.0140    2.7540 hc        1 CRS      0.046033
     14 H72        -1.9810   -0.6240    2.3810 hc        1 CRS      0.046033
     15 H73        -0.4310   -0.4760    3.3110 hc        1 CRS      0.046033
     16 HO1        -1.7680   -0.2600   -2.3080 ho        1 CRS      0.418000
@<TRIPOS>BOND
     1    1    2 ar  
     2    1    6 ar  
     3    1    8 1   
     4    2    3 ar  
     5    2    9 1   
     6    3    4 ar  
     7    3    7 1   
     8    4    5 ar  
     9    4   10 1   
    10    5    6 ar  
    11    5   11 1   
    12    6   12 1   
    13    7   13 1   
    14    7   14 1   
    15    7   15 1   
    16    8   16 1   
@<TRIPOS>SUBSTRUCTURE
     1 CRS         1 TEMP              0 ****  ****    0 ROOT
