@<TRIPOS>MOLECULE
CRS
   16    16     1     0     0
SMALL
bcc


@<TRIPOS>ATOM
      1 C1         -0.0620   -0.1480    0.0560 ca        1 CRS      0.126100
      2 C2          1.3380   -0.1710    0.0150 ca        1 CRS     -0.215000
      3 C3          2.0620   -0.0480    1.2060 ca        1 CRS     -0.038300
      4 C4          1.3800    0.0930    2.4190 ca        1 CRS     -0.166000
      5 C5         -0.0150    0.1150    2.4460 ca        1 CRS     -0.094000
      6 C6         -0.7510   -0.0050    1.2720 ca        1 CRS     -0.161000
      7 C7          3.5430   -0.0550    1.1750 c3        1 CRS     -0.056800
      8 O1         -0.8370   -0.2640   -1.0770 oh        1 CRS     -0.499100
      9 H2          1.8630   -0.2850   -0.9430 ha        1 CRS      0.133000
     10 H4          1.9470    0.1880    3.3560 ha        1 CRS      0.133000
     11 H5         -0.5410    0.2260    3.4060 ha        1 CRS      0.133000
     12 H6         -1.8490    0.0090    1.2770 ha        1 CRS      0.149000
     13 H71         3.9610   -0.4480    2.1340 hc        1 CRS      0.046033
     14 H72         3.9250   -0.6880    0.3370 hc        1 CRS      0.046033
     15 H73         3.9240    0.9880    1.0280 hc        1 CRS      0.046033
     16 HO1        -0.2430   -0.3560   -1.8360 ho        1 CRS      0.418000
@<TRIPOS>BOND
     1    1    2 ar  
     2    1    6 ar  
     3    1    8 1   
     4    2    3 ar  
     5    2    9 1   
     6    3    4 ar  
     7    3    7 1   
     8    4    5 ar  
     9    4   10 1   
    10    5    6 ar  
    11    5   11 1   
    12    6   12 1   
    13    7   13 1   
    14    7   14 1   
    15    7   15 1   
    16    8   16 1   
@<TRIPOS>SUBSTRUCTURE
     1 CRS         1 TEMP              0 ****  ****    0 ROOT
