@<TRIPOS>MOLECULE
CRS
   16    16     1     0     0
SMALL
bcc


@<TRIPOS>ATOM
      1 C1         -0.0680   -0.1640    0.0650 ca        1 CRS      0.126100
      2 C2          1.3320   -0.1760    0.0150 ca        1 CRS     -0.215000
      3 C3          2.0630   -0.0410    1.2000 ca        1 CRS     -0.038300
      4 C4          1.3880    0.1030    2.4170 ca        1 CRS     -0.166000
      5 C5         -0.0060    0.1140    2.4530 ca        1 CRS     -0.094000
      6 C6         -0.7500   -0.0190    1.2850 ca        1 CRS     -0.161000
      7 C7          3.5440   -0.0360    1.1590 c3        1 CRS     -0.056800
      8 O1         -0.8490   -0.2920   -1.0620 oh        1 CRS     -0.499100
      9 H2          1.8510   -0.2910   -0.9460 ha        1 CRS      0.133000
     10 H4          1.9610    0.2070    3.3490 ha        1 CRS      0.133000
     11 H5         -0.5270    0.2270    3.4160 ha        1 CRS      0.133000
     12 H6         -1.8480   -0.0130    1.2970 ha        1 CRS      0.149000
     13 H71         3.9720   -0.4230    2.1170 hc        1 CRS      0.046033
     14 H72         3.9250   -0.6690    0.3210 hc        1 CRS      0.046033
     15 H73         3.9160    1.0090    1.0060 hc        1 CRS      0.046033
     16 HO1        -0.2600   -0.3840   -1.8240 ho        1 CRS      0.418000
@<TRIPOS>BOND
     1    1    2 ar  
     2    1    6 ar  
     3    1    8 1   
     4    2    3 ar  
     5    2    9 1   
     6    3    4 ar  
     7    3    7 1   
     8    4    5 ar  
     9    4   10 1   
    10    5    6 ar  
    11    5   11 1   
    12    6   12 1   
    13    7   13 1   
    14    7   14 1   
    15    7   15 1   
    16    8   16 1   
@<TRIPOS>SUBSTRUCTURE
     1 CRS         1 TEMP              0 ****  ****    0 ROOT
