@<TRIPOS>MOLECULE
CRT
  104   103     1     0     0
SMALL
bcc


@<TRIPOS>ATOM
      1 C1M        -4.4420   -0.9630   15.4220 c3        1 CRT      0.117700
      2 O1         -4.4330   -0.2150   14.2230 os        1 CRT     -0.423600
      3 C1         -4.9650   -0.8910   13.0710 c3        1 CRT      0.152800
      4 C2         -4.3270   -2.2570   12.8730 c3        1 CRT     -0.118600
      5 C3         -6.4790   -1.0250   13.1970 c3        1 CRT     -0.118600
      6 C4         -4.6380    0.0390   11.8910 c3        1 CRT     -0.042200
      7 C5         -3.1820    0.2070   11.6800 c2        1 CRT     -0.142200
      8 C6         -2.6200    0.2630   10.4640 ce        1 CRT     -0.153000
      9 C7         -1.1960    0.4540   10.2160 ce        1 CRT     -0.056200
     10 C8         -0.3640    0.8790   11.3670 c3        1 CRT     -0.063900
     11 C9         -0.7110    0.2340    8.9730 cf        1 CRT     -0.142000
     12 C10         0.6680    0.3500    8.5660 cf        1 CRT     -0.119000
     13 C11         1.0570    0.1760    7.2880 ce        1 CRT     -0.131000
     14 C12         2.4290    0.2790    6.8150 ce        1 CRT     -0.063200
     15 C13         3.4920    0.3890    7.8440 c3        1 CRT     -0.062900
     16 C14         2.6640    0.2750    5.4820 cf        1 CRT     -0.132500
     17 C15         3.9510    0.3920    4.8420 cf        1 CRT     -0.123000
     18 C16         4.0970    0.3100    3.5050 ce        1 CRT     -0.126000
     19 C17         5.3650    0.4180    2.8000 ce        1 CRT     -0.066200
     20 C18         6.5490    0.8330    3.5910 c3        1 CRT     -0.063400
     21 C19         5.4040    0.1420    1.4750 cf        1 CRT     -0.131000
     22 C20         6.5840    0.1610    0.6460 cf        1 CRT     -0.123000
     23 C21         6.5900    0.1670   -0.7020 ce        1 CRT     -0.123000
     24 C22         5.4200    0.2180   -1.5420 ce        1 CRT     -0.131000
     25 C23         5.3830   -0.0660   -2.8650 cf        1 CRT     -0.066200
     26 C24         6.5590   -0.5240   -3.6430 c3        1 CRT     -0.063400
     27 C25         4.1250    0.0780   -3.5830 cf        1 CRT     -0.126000
     28 C26         3.9830   -0.0340   -4.9180 ce        1 CRT     -0.123000
     29 C27         2.7070    0.1310   -5.5690 ce        1 CRT     -0.132500
     30 C28         2.4630    0.0080   -6.8950 cf        1 CRT     -0.063200
     31 C29         3.4950   -0.3400   -7.9010 c3        1 CRT     -0.062900
     32 C30         1.1100    0.2310   -7.3840 cf        1 CRT     -0.131000
     33 C31         0.7650    0.3080   -8.6840 ce        1 CRT     -0.119000
     34 C32        -0.5970    0.5320   -9.1050 ce        1 CRT     -0.142000
     35 C33        -1.0220    0.6850  -10.3800 cf        1 CRT     -0.056200
     36 C34        -0.1240    0.6660  -11.5600 c3        1 CRT     -0.063900
     37 C35        -2.4440    0.8750  -10.6340 cf        1 CRT     -0.153000
     38 C36        -3.0210    0.7930  -11.8410 c2        1 CRT     -0.142200
     39 C37        -4.4680    1.0220  -12.0630 c3        1 CRT     -0.042200
     40 C38        -5.0730    0.0520  -13.0930 c3        1 CRT      0.152800
     41 C39        -4.8530   -1.3910  -12.6670 c3        1 CRT     -0.118600
     42 C40        -6.5620    0.3420  -13.2370 c3        1 CRT     -0.118600
     43 O2         -4.3890    0.3560  -14.3200 os        1 CRT     -0.423600
     44 C2M        -4.6370   -0.5360  -15.3890 c3        1 CRT      0.117700
     45 H1M1       -3.7120   -1.8080   15.3670 h1        1 CRT      0.031700
     46 H1M2       -4.1230   -0.2280   16.2040 h1        1 CRT      0.031700
     47 H1M3       -5.4620   -1.3550   15.6530 h1        1 CRT      0.031700
     48 H21A       -3.2150   -2.1680   12.9120 hc        1 CRT      0.044200
     49 H22A       -4.6620   -2.9670   13.6670 hc        1 CRT      0.044200
     50 H23        -4.6230   -2.6690   11.8790 hc        1 CRT      0.044200
     51 H31A       -6.9270   -0.0400   13.4700 hc        1 CRT      0.044200
     52 H32A       -6.9110   -1.3660   12.2260 hc        1 CRT      0.044200
     53 H33        -6.7460   -1.7690   13.9850 hc        1 CRT      0.044200
     54 H41        -5.1380   -0.3710   10.9750 hc        1 CRT      0.058200
     55 H42        -5.0840    1.0490   12.1080 hc        1 CRT      0.058200
     56 H5         -2.5890    0.3020   12.6060 ha        1 CRT      0.140000
     57 H6         -3.2450    0.1510    9.5600 ha        1 CRT      0.120000
     58 H81        -0.1860    0.0090   12.0500 hc        1 CRT      0.045367
     59 H82         0.6260    1.2830   11.0460 hc        1 CRT      0.045367
     60 H83        -0.8870    1.6790   11.9500 hc        1 CRT      0.045367
     61 H9         -1.4130   -0.0710    8.1740 ha        1 CRT      0.121000
     62 H10         1.4090    0.5860    9.3500 ha        1 CRT      0.126000
     63 H11         0.3050   -0.0550    6.5120 ha        1 CRT      0.122000
     64 H131        3.3410   -0.3850    8.6390 hc        1 CRT      0.045033
     65 H132        4.5130    0.2430    7.4170 hc        1 CRT      0.045033
     66 H133        3.4530    1.3990    8.3250 hc        1 CRT      0.045033
     67 H14         1.8040    0.1780    4.7920 ha        1 CRT      0.121000
     68 H15         4.8280    0.5580    5.4910 ha        1 CRT      0.127000
     69 H16         3.2120    0.1380    2.8660 ha        1 CRT      0.122500
     70 H181        6.3010    1.7260    4.2180 hc        1 CRT      0.045033
     71 H182        6.8630    0.0020    4.2710 hc        1 CRT      0.045033
     72 H183        7.4160    1.1040    2.9410 hc        1 CRT      0.045033
     73 H19         4.4660   -0.1410    0.9630 ha        1 CRT      0.125000
     74 H20         7.5550    0.1470    1.1730 ha        1 CRT      0.123000
     75 H21         7.5670    0.1540   -1.2190 ha        1 CRT      0.123000
     76 H22         4.4860    0.5350   -1.0410 ha        1 CRT      0.125000
     77 H241        6.2930   -1.4270   -4.2480 hc        1 CRT      0.045033
     78 H242        6.8920    0.2820   -4.3440 hc        1 CRT      0.045033
     79 H243        7.4190   -0.7970   -2.9860 hc        1 CRT      0.045033
     80 H25         3.2440    0.3030   -2.9540 ha        1 CRT      0.122500
     81 H26         4.8570   -0.2470   -5.5560 ha        1 CRT      0.127000
     82 H27         1.8670    0.3870   -4.8970 ha        1 CRT      0.121000
     83 H291        3.7260    0.5540   -8.5350 hc        1 CRT      0.045033
     84 H292        4.4450   -0.6910   -7.4320 hc        1 CRT      0.045033
     85 H293        3.1220   -1.1570   -8.5700 hc        1 CRT      0.045033
     86 H30         0.3380    0.3490   -6.6030 ha        1 CRT      0.122000
     87 H31         1.5270    0.1970   -9.4740 ha        1 CRT      0.126000
     88 H32        -1.3420    0.5720   -8.2880 ha        1 CRT      0.121000
     89 H341       -0.4050    1.4810  -12.2740 hc        1 CRT      0.045367
     90 H342        0.9460    0.8120  -11.2790 hc        1 CRT      0.045367
     91 H343       -0.2180   -0.3140  -12.0940 hc        1 CRT      0.045367
     92 H35        -3.0580    1.0910   -9.7410 ha        1 CRT      0.120000
     93 H36        -2.4450    0.5680  -12.7550 ha        1 CRT      0.140000
     94 H371       -5.0480    0.9220  -11.1080 hc        1 CRT      0.058200
     95 H372       -4.6070    2.0700  -12.4460 hc        1 CRT      0.058200
     96 H391       -3.7630   -1.6340  -12.6890 hc        1 CRT      0.044200
     97 H392       -5.2360   -1.5390  -11.6300 hc        1 CRT      0.044200
     98 H393       -5.3930   -2.0900  -13.3490 hc        1 CRT      0.044200
     99 H401       -6.7110    1.3590  -13.6720 hc        1 CRT      0.044200
    100 H402       -7.0470   -0.4070  -13.9060 hc        1 CRT      0.044200
    101 H403       -7.0560    0.2970  -12.2380 hc        1 CRT      0.044200
    102 H2M1       -4.1340   -0.0560  -16.2670 h1        1 CRT      0.031700
    103 H2M2       -4.1820   -1.5360  -15.1830 h1        1 CRT      0.031700
    104 H2M3       -5.7320   -0.6470  -15.5840 h1        1 CRT      0.031700
@<TRIPOS>BOND
     1    1    2 1   
     2    1   45 1   
     3    1   46 1   
     4    1   47 1   
     5    2    3 1   
     6    3    4 1   
     7    3    5 1   
     8    3    6 1   
     9    4   48 1   
    10    4   49 1   
    11    4   50 1   
    12    5   51 1   
    13    5   52 1   
    14    5   53 1   
    15    6    7 1   
    16    6   54 1   
    17    6   55 1   
    18    7    8 2   
    19    7   56 1   
    20    8    9 1   
    21    8   57 1   
    22    9   10 1   
    23    9   11 2   
    24   10   58 1   
    25   10   59 1   
    26   10   60 1   
    27   11   12 1   
    28   11   61 1   
    29   12   13 2   
    30   12   62 1   
    31   13   14 1   
    32   13   63 1   
    33   14   15 1   
    34   14   16 2   
    35   15   64 1   
    36   15   65 1   
    37   15   66 1   
    38   16   17 1   
    39   16   67 1   
    40   17   18 2   
    41   17   68 1   
    42   18   19 1   
    43   18   69 1   
    44   19   20 1   
    45   19   21 2   
    46   20   70 1   
    47   20   71 1   
    48   20   72 1   
    49   21   22 1   
    50   21   73 1   
    51   22   23 2   
    52   22   74 1   
    53   23   24 1   
    54   23   75 1   
    55   24   25 2   
    56   24   76 1   
    57   25   26 1   
    58   25   27 1   
    59   26   77 1   
    60   26   78 1   
    61   26   79 1   
    62   27   28 2   
    63   27   80 1   
    64   28   29 1   
    65   28   81 1   
    66   29   30 2   
    67   29   82 1   
    68   30   31 1   
    69   30   32 1   
    70   31   83 1   
    71   31   84 1   
    72   31   85 1   
    73   32   33 2   
    74   32   86 1   
    75   33   34 1   
    76   33   87 1   
    77   34   35 2   
    78   34   88 1   
    79   35   36 1   
    80   35   37 1   
    81   36   89 1   
    82   36   90 1   
    83   36   91 1   
    84   37   38 2   
    85   37   92 1   
    86   38   39 1   
    87   38   93 1   
    88   39   40 1   
    89   39   94 1   
    90   39   95 1   
    91   40   41 1   
    92   40   42 1   
    93   40   43 1   
    94   41   96 1   
    95   41   97 1   
    96   41   98 1   
    97   42   99 1   
    98   42  100 1   
    99   42  101 1   
   100   43   44 1   
   101   44  102 1   
   102   44  103 1   
   103   44  104 1   
@<TRIPOS>SUBSTRUCTURE
     1 CRT         1 TEMP              0 ****  ****    0 ROOT
