@<TRIPOS>MOLECULE
CRT
  104   119     1     0     0
SMALL
bcc


@<TRIPOS>ATOM
      1 C1M         0.0000    0.0000    0.0000 c3        1 CRT      0.017000
      2 O1          1.4290    0.0000    0.0000 os        1 CRT     -0.232000
      3 C1          1.8430    0.0000    1.3670 c3        1 CRT      0.077000
      4 C2          1.3130    1.2570    2.0600 c3        1 CRT     -0.157500
      5 C3          1.2860   -1.2410    2.0680 c3        1 CRT     -0.157500
      6 C4          3.3700   -0.0150    1.4380 DU        1 CRT     -0.004000
      7 C5          3.9170    1.2070    0.7490 c2        1 CRT     -0.402000
      8 C6          4.6640    2.0820    1.4300 c2        1 CRT     -0.062000
      9 C7          5.1790    3.2310    0.7810 c3        1 CRT     -0.037000
     10 C8          4.8850    3.4690   -0.6780 c3        1 CRT     -0.125000
     11 C9          5.9380    4.1210    1.4740 c3        1 CRT     -0.183000
     12 C10         6.3500    5.3180    0.8660 c3        1 CRT     -0.330000
     13 C11         7.1980    6.1620    1.5230 c2        1 CRT     -0.207000
     14 C12         7.6080    7.3560    0.9160 c3        1 CRT     -0.099000
     15 C13         7.1120    7.7090   -0.4620 c3        1 CRT     -0.145000
     16 C14         8.4650    8.2080    1.5800 c3        1 CRT      0.008000
     17 C15         8.8330    9.4240    0.9940 c3        1 CRT     -0.557000
     18 C16         9.7690   10.2290    1.6100 c2        1 CRT      0.013000
     19 C17        10.1370   11.4450    1.0260 c3        1 CRT     -0.189000
     20 C18         9.5120   11.8760   -0.2750 c3        1 CRT     -0.135000
     21 C19        11.0730   12.2510    1.6420 c2        1 CRT     -0.258000
     22 C20        11.4810   13.4400    1.0320 c3        1 CRT      0.025000
     23 C21        12.4970   14.1880    1.5900 c2        1 CRT     -0.183000
     24 C22        13.1180   13.7580    2.7650 c2        1 CRT     -0.023000
     25 C23        14.1340   14.5060    3.3240 c3        1 CRT      0.036000
     26 C24        14.5740   15.7880    2.6650 c3        1 CRT     -0.171000
     27 C25        14.7540   14.0760    4.5000 c2        1 CRT     -0.340000
     28 C26        15.8350   14.7690    5.0030 c2        1 CRT     -0.368000
     29 C27        16.3750   14.4170    6.2450 c3        1 CRT      0.045000
     30 C28        17.4540   15.1100    6.7480 c3        1 CRT     -0.009000
     31 C29        18.0540   16.2470    5.9610 c3        1 CRT     -0.126000
     32 C30        17.9960   14.7570    7.9910 c2        1 CRT     -0.311000
     33 C31        19.0080   15.4990    8.5300 c2        1 CRT     -0.317000
     34 C32        19.4930   15.1970    9.8140 c3        1 CRT      0.009000
     35 C33        20.5000   15.9350   10.3510 c3        1 CRT     -0.058000
     36 C34        21.0980   17.0760    9.5690 c3        1 CRT     -0.100000
     37 C35        20.9900   15.6320   11.6460 c2        1 CRT     -0.064000
     38 C36        22.0400   16.2970   12.1360 c2        1 CRT     -0.457000
     39 C37        22.4780   16.0680   13.5610 DU        1 CRT      0.001000
     40 C38        23.9170   15.5530   13.5750 c3        1 CRT      0.033000
     41 C39        24.8360   16.5860   12.9190 c3        1 CRT     -0.151500
     42 C40        24.3630   15.3210   15.0200 c3        1 CRT     -0.151500
     43 O2         23.9900   14.3220   12.8510 os        1 CRT     -0.260000
     44 C2M        25.3620   13.9250   12.8490 c3        1 CRT      0.030000
     45 H1M1       -0.3610    0.9770    0.2980 h1        1 CRT      0.034333
     46 H1M2       -0.3610   -0.7470    0.6970 h1        1 CRT      0.034333
     47 H1M3       -0.3610   -0.2300   -0.9950 h1        1 CRT      0.034333
     48 H21A        1.9250    1.4770    2.9260 hc        1 CRT      0.055000
     49 H22A        1.3490    2.0920    1.3700 hc        1 CRT      0.055000
     50 H23         0.2890    1.0920    2.3740 hc        1 CRT      0.055000
     51 H31A        1.9940   -1.5830    2.8140 hc        1 CRT      0.055000
     52 H32A        0.3470   -0.9940    2.5480 hc        1 CRT      0.055000
     53 H33         1.1240   -2.0250    1.3390 hc        1 CRT      0.055000
     54 H41         3.6840   -0.0160    2.4750 ha        1 CRT      0.059500
     55 H42         3.7460   -0.9050    0.9480 ha        1 CRT      0.059500
     56 H5          4.4960    0.3190    0.9700 DU        1 CRT      0.168000
     57 H6          5.5260    2.0790    0.7740 DU        1 CRT      0.162000
     58 H81         5.8020    3.7270   -1.1940 hc        1 CRT      0.069667
     59 H82         4.4670    2.5690   -1.1140 hc        1 CRT      0.069667
     60 H83         4.1750    4.2810   -0.7760 hc        1 CRT      0.069667
     61 H9          6.8060    4.1640    0.8280 DU        1 CRT      0.243500
     62 H10         5.5880    5.2520    1.6340 DU        1 CRT      0.243500
     63 H11         6.5900    7.0570    1.4600 DU        1 CRT      0.217000
     64 H131        6.1100    8.1150   -0.3930 hc        1 CRT      0.070000
     65 H132        7.7710    8.4470   -0.9050 hc        1 CRT      0.070000
     66 H133        7.0990    6.8200   -1.0800 hc        1 CRT      0.070000
     67 H14         7.8380    9.0890    1.5110 DU        1 CRT      0.237000
     68 H15         8.1520    9.3300    1.8310 DU        1 CRT      0.237000
     69 H16        10.4530   10.3240    0.7750 DU        1 CRT      0.249000
     70 H181       10.2670   11.8880   -1.0520 hc        1 CRT      0.059000
     71 H182        8.7270   11.1800   -0.5470 hc        1 CRT      0.059000
     72 H183        9.0930   12.8680   -0.1640 hc        1 CRT      0.059000
     73 H19        11.7450   12.3270    0.7960 DU        1 CRT      0.156000
     74 H20        11.0000   13.7740    0.1200 hc        1 CRT      0.074000
     75 H21        12.8140   15.1100    1.1170 ha        1 CRT      0.117000
     76 H22        12.8010   12.8360    3.2390 ha        1 CRT      0.170000
     77 H241       14.9160   15.5780    1.6590 hc        1 CRT      0.072667
     78 H242       15.3820   16.2290    3.2360 hc        1 CRT      0.072667
     79 H243       13.7410   16.4790    2.6260 hc        1 CRT      0.072667
     80 H25        14.1460   14.9620    4.3650 DU        1 CRT      0.222000
     81 H26        15.3880   14.9170    5.9790 DU        1 CRT      0.211000
     82 H27        15.9450   13.6000    6.8110 hc        1 CRT      0.104000
     83 H291       18.1000   15.9760    4.9130 hc        1 CRT      0.071000
     84 H292       17.4380   17.1310    6.0790 hc        1 CRT      0.071000
     85 H293       19.0530   16.4510    6.3260 hc        1 CRT      0.071000
     86 H30        18.4630   14.4820    7.0530 DU        1 CRT      0.221000
     87 H31        19.7260   14.7080    8.7110 DU        1 CRT      0.195000
     88 H32        19.0640   14.3770   10.3760 hc        1 CRT      0.104000
     89 H341       20.3100   17.6160    9.0580 hc        1 CRT      0.068000
     90 H342       21.6140   17.7470   10.2460 hc        1 CRT      0.068000
     91 H343       21.8000   16.6870    8.8420 hc        1 CRT      0.068000
     92 H35        21.4380   15.2100   10.7540 DU        1 CRT      0.159000
     93 H36        22.6770   15.4640   12.4100 DU        1 CRT      0.198000
     94 H371       22.4220   17.0010   14.1100 ha        1 CRT      0.070500
     95 H372       21.8280   15.3370   14.0250 ha        1 CRT      0.070500
     96 H391       25.8200   16.5320   13.3690 hc        1 CRT      0.058500
     97 H392       24.4270   17.5780   13.0640 hc        1 CRT      0.058500
     98 H393       24.9130   16.3790   11.8580 hc        1 CRT      0.058500
     99 H401       23.9070   16.0640   15.6630 hc        1 CRT      0.058500
    100 H402       25.4410   15.4010   15.0830 hc        1 CRT      0.058500
    101 H403       24.0550   14.3320   15.3380 hc        1 CRT      0.058500
    102 H2M1       25.9550   14.6780   12.3440 h1        1 CRT      0.038667
    103 H2M2       25.4630   12.9790   12.3320 h1        1 CRT      0.038667
    104 H2M3       25.7080   13.8180   13.8700 h1        1 CRT      0.038667
@<TRIPOS>BOND
     1    1    2 1   
     2    1   45 1   
     3    1   46 1   
     4    1   47 1   
     5    2    3 1   
     6    3    4 1   
     7    3    5 1   
     8    3    6 1   
     9    4   48 1   
    10    4   49 1   
    11    4   50 1   
    12    5   51 1   
    13    5   52 1   
    14    5   53 1   
    15    6    7 1   
    16    6   54 1   
    17    6   55 1   
    18    6   56 1   
    19    7    8 1   
    20    7   56 1   
    21    8    9 1   
    22    8   57 1   
    23    9   10 1   
    24    9   11 1   
    25    9   57 1   
    26   10   58 1   
    27   10   59 1   
    28   10   60 1   
    29   11   12 1   
    30   11   61 1   
    31   11   62 1   
    32   12   13 1   
    33   12   61 1   
    34   12   62 1   
    35   13   14 1   
    36   13   63 1   
    37   14   15 1   
    38   14   16 1   
    39   14   63 1   
    40   15   64 1   
    41   15   65 1   
    42   15   66 1   
    43   16   17 1   
    44   16   67 1   
    45   16   68 1   
    46   17   18 1   
    47   17   67 1   
    48   17   68 1   
    49   18   19 1   
    50   18   69 1   
    51   19   20 1   
    52   19   21 1   
    53   19   69 1   
    54   20   70 1   
    55   20   71 1   
    56   20   72 1   
    57   21   22 1   
    58   21   73 1   
    59   22   23 1   
    60   22   73 1   
    61   22   74 1   
    62   23   24 1   
    63   23   75 1   
    64   24   25 1   
    65   24   76 1   
    66   25   26 1   
    67   25   27 1   
    68   25   80 1   
    69   26   77 1   
    70   26   78 1   
    71   26   79 1   
    72   27   28 1   
    73   27   80 1   
    74   28   29 1   
    75   28   81 1   
    76   29   30 1   
    77   29   81 1   
    78   29   82 1   
    79   30   31 1   
    80   30   32 1   
    81   30   86 1   
    82   31   83 1   
    83   31   84 1   
    84   31   85 1   
    85   32   33 1   
    86   32   86 1   
    87   33   34 1   
    88   33   87 1   
    89   34   35 1   
    90   34   87 1   
    91   34   88 1   
    92   35   36 1   
    93   35   37 1   
    94   35   92 1   
    95   36   89 1   
    96   36   90 1   
    97   36   91 1   
    98   37   38 1   
    99   37   92 1   
   100   38   39 1   
   101   38   93 1   
   102   39   40 1   
   103   39   93 1   
   104   39   94 1   
   105   39   95 1   
   106   40   41 1   
   107   40   42 1   
   108   40   43 1   
   109   41   96 1   
   110   41   97 1   
   111   41   98 1   
   112   42   99 1   
   113   42  100 1   
   114   42  101 1   
   115   43   44 1   
   116   44  102 1   
   117   44  103 1   
   118   44  104 1   
   119   67   68 1   
@<TRIPOS>SUBSTRUCTURE
     1 CRT         1 TEMP              0 ****  ****    0 ROOT
