@<TRIPOS>MOLECULE
CRT
  104    90     1     0     0
SMALL
bcc


@<TRIPOS>ATOM
      1 C1M        -2.5660   11.9090    9.3400 c3        1 CRT     -0.072000
      2 O1         -2.4190   10.6720    8.6630 os        1 CRT     -0.279000
      3 C1         -1.1830   10.0340    8.9010 c3        1 CRT      0.081000
      4 C2         -1.0060    9.8210   10.3860 c3        1 CRT     -0.236000
      5 C3         -0.0550   10.9040    8.3760 c3        1 CRT     -0.236000
      6 C4         -1.1600    8.6810    8.1850 c3        1 CRT     -0.126000
      7 C5         -1.8840    8.8000    6.8540 c2        1 CRT     -0.137000
      8 C6         -1.9680    7.7130    6.0160 c1        1 CRT     -0.156000
      9 C7         -1.3310    6.3800    6.4250 c1        1 CRT     -0.065667
     10 C8          0.1080    6.3410    6.8920 c3        1 CRT     -0.181333
     11 C9         -2.0650    5.2220    6.3660 c1        1 CRT     -0.139333
     12 C10        -3.5160    5.2630    5.8940 c1        1 CRT     -0.124667
     13 C11        -4.1210    4.1190    5.4290 c1        1 CRT     -0.124667
     14 C12        -3.3410    2.8040    5.3850 c1        1 CRT     -0.065667
     15 C13        -2.8450    2.1730    6.6710 c3        1 CRT     -0.181333
     16 C14        -3.0890    2.1950    4.1790 c1        1 CRT     -0.139333
     17 C15        -3.5870    2.8290    2.8860 c1        1 CRT     -0.124667
     18 C16        -3.8660    2.0340    1.7850 c1        1 CRT     -0.124667
     19 C17        -3.6740    0.5130    1.8670 c1        1 CRT     -0.065667
     20 C18        -4.4970   -0.3060    2.8490 c3        1 CRT     -0.181333
     21 C19        -2.7550   -0.1110    1.0490 c1        1 CRT     -0.139333
     22 C20        -1.9250    0.7150    0.0600 c1        1 CRT     -0.124667
     23 C21        -1.5490    0.1700   -1.1480 c1        1 CRT     -0.124667
     24 C22        -1.9580   -1.2590   -1.5040 c1        1 CRT     -0.139667
     25 C23        -2.1850   -1.6010   -2.8160 c1        1 CRT     -0.063667
     26 C24        -2.0300   -0.5650   -3.9060 c2        1 CRT     -0.184667
     27 C25        -2.5950   -3.0310   -3.1740 c2        1 CRT     -0.135333
     28 C26        -1.7420   -3.8330   -3.9180 c1        1 CRT     -0.125667
     29 C27        -0.3890   -3.2890   -4.3810 c1        1 CRT     -0.139667
     30 C28         0.0910   -3.6060   -5.6390 c1        1 CRT     -0.063667
     31 C29        -0.7250   -4.4920   -6.5600 c2        1 CRT     -0.184667
     32 C30         1.4370   -3.0650   -6.1000 c2        1 CRT     -0.135333
     33 C31         2.4220   -3.9340   -6.5210 c1        1 CRT     -0.125667
     34 C32         2.1620   -5.4460   -6.5260 c1        1 CRT     -0.139667
     35 C33         2.6630   -6.2290   -7.5430 c1        1 CRT     -0.063667
     36 C34         3.4700   -5.5980   -8.6570 c2        1 CRT     -0.184667
     37 C35         2.4000   -7.7430   -7.5470 c2        1 CRT     -0.135333
     38 C36         3.4520   -8.6250   -7.4360 c1        1 CRT     -0.125667
     39 C37         4.8760   -8.1010   -7.3090 c2        1 CRT     -0.126000
     40 C38         5.8600   -9.2750   -7.3720 c3        1 CRT      0.081000
     41 C39         7.2600   -8.7480   -7.6340 c3        1 CRT     -0.236000
     42 C40         5.8400  -10.0210   -6.0540 c3        1 CRT     -0.236000
     43 O2          5.4850  -10.1460   -8.4090 os        1 CRT     -0.280000
     44 C2M         6.4180  -11.1830   -8.6530 c3        1 CRT     -0.072000
     45 H1M1       -3.1490   12.5030    8.8140 h1        1 CRT      0.070667
     46 H1M2       -1.6870   12.3280    9.4520 h1        1 CRT      0.070667
     47 H1M3       -2.9690   11.7530   10.2210 h1        1 CRT      0.070667
     48 H21A       -0.3100    9.1470   10.5390 hc        1 CRT      0.082667
     49 H22A       -0.7410   10.6660   10.8080 hc        1 CRT      0.082667
     50 H23        -1.8510    9.5120   10.7750 hc        1 CRT      0.082667
     51 H31A        0.7560   10.3700    8.2970 hc        1 CRT      0.082667
     52 H32A       -0.2990   11.2580    7.4990 hc        1 CRT      0.082667
     53 H33         0.1010   11.6460    8.9970 hc        1 CRT      0.082667
     54 H41        -0.2300    8.4090    8.0290 hc        1 CRT      0.100500
     55 H42        -1.6090    8.0080    8.7420 hc        1 CRT      0.100500
     56 H5         -2.2860    9.6440    6.5960 ha        1 CRT      0.137000
     57 H6         -2.4300    7.7910    5.1650 ha        1 CRT      0.128000
     58 H81         0.1330    6.2220    7.8660 hc        1 CRT      0.083889
     59 H82         0.5530    7.1860    6.6540 hc        1 CRT      0.083889
     60 H83         0.5720    5.5940    6.4600 hc        1 CRT      0.083889
     61 H9         -1.6600    4.3730    6.6260 ha        1 CRT      0.128333
     62 H10        -4.0150    6.1020    5.9210 ha        1 CRT      0.126167
     63 H11        -5.0490    4.1460    5.1280 ha        1 CRT      0.126167
     64 H131       -3.1250    2.7190    7.4310 hc        1 CRT      0.083889
     65 H132       -1.8680    2.1160    6.6520 hc        1 CRT      0.083889
     66 H133       -3.2240    1.2720    6.7590 hc        1 CRT      0.083889
     67 H14        -2.5930    1.3570    4.1510 ha        1 CRT      0.128333
     68 H15        -3.7100    3.7970    2.8320 ha        1 CRT      0.126167
     69 H16        -4.1840    2.4400    0.9590 ha        1 CRT      0.126167
     70 H181       -4.9090   -1.0620    2.3790 hc        1 CRT      0.083889
     71 H182       -5.2000    0.2590    3.2390 hc        1 CRT      0.083889
     72 H183       -3.9160   -0.6430    3.5610 hc        1 CRT      0.083889
     73 H19        -2.6330   -1.0720    1.1000 ha        1 CRT      0.128333
     74 H20        -1.6620    1.6300    0.2870 ha        1 CRT      0.126167
     75 H21        -1.0190    0.6990   -1.7790 ha        1 CRT      0.126167
     76 H22        -2.0580   -1.9260   -0.8020 ha        1 CRT      0.128333
     77 H241       -2.3270   -0.9400   -4.7580 ha        1 CRT      0.084556
     78 H242       -2.5750    0.2230   -3.6880 ha        1 CRT      0.084556
     79 H243       -1.0860   -0.3010   -3.9750 ha        1 CRT      0.084556
     80 H25        -3.4570   -3.3780   -2.8800 ha        1 CRT      0.124667
     81 H26        -2.0040   -4.7400   -4.1450 ha        1 CRT      0.126667
     82 H27         0.1390   -2.7160   -3.7860 ha        1 CRT      0.128333
     83 H291       -0.3210   -4.4940   -7.4590 ha        1 CRT      0.084556
     84 H292       -1.6450   -4.1490   -6.6150 ha        1 CRT      0.084556
     85 H293       -0.7390   -5.4020   -6.2080 ha        1 CRT      0.084556
     86 H30         1.6030   -2.1040   -6.0970 ha        1 CRT      0.124667
     87 H31         3.2860   -3.5860   -6.8160 ha        1 CRT      0.126667
     88 H32         1.6410   -5.8540   -5.8090 ha        1 CRT      0.128333
     89 H341        3.6810   -6.2770   -9.3340 ha        1 CRT      0.084556
     90 H342        4.3030   -5.2320   -8.2910 ha        1 CRT      0.084556
     91 H343        2.9480   -4.8740   -9.0710 ha        1 CRT      0.084556
     92 H35         1.4880   -8.0790   -7.6280 ha        1 CRT      0.124667
     93 H36         3.2840   -9.5880   -7.4390 ha        1 CRT      0.126667
     94 H371        4.9770   -7.6370   -6.4580 ha        1 CRT      0.099500
     95 H372        5.0610   -7.4820   -8.0420 ha        1 CRT      0.099500
     96 H391        7.4530   -8.0140   -7.0170 hc        1 CRT      0.083333
     97 H392        7.9130   -9.4700   -7.4990 hc        1 CRT      0.083333
     98 H393        7.3190   -8.4240   -8.5560 hc        1 CRT      0.083333
     99 H401        6.6900  -10.4970   -5.9350 hc        1 CRT      0.083333
    100 H402        5.1020  -10.6670   -6.0550 hc        1 CRT      0.083333
    101 H403        5.7160   -9.3830   -5.3180 hc        1 CRT      0.083333
    102 H2M1        7.0760  -10.8820   -9.3160 h1        1 CRT      0.070667
    103 H2M2        5.9470  -11.9730   -8.9950 h1        1 CRT      0.070667
    104 H2M3        6.8770  -11.4120   -7.8170 h1        1 CRT      0.070667
@<TRIPOS>BOND
     1    1    2 1   
     2    1   45 1   
     3    1   46 1   
     4    1   47 1   
     5    2    3 1   
     6    3    4 1   
     7    3    5 1   
     8    3    6 1   
     9    4   48 1   
    10    4   49 1   
    11    4   50 1   
    12    5   51 1   
    13    5   52 1   
    14    5   53 1   
    15    6    7 1   
    16    6   54 1   
    17    6   55 1   
    18    7    8 1   
    19    7   56 1   
    20    8   57 1   
    21    9   10 1   
    22    9   11 1   
    23   10   58 1   
    24   10   59 1   
    25   10   60 1   
    26   11   61 1   
    27   12   13 1   
    28   12   62 1   
    29   13   63 1   
    30   14   15 1   
    31   14   16 1   
    32   15   64 1   
    33   15   65 1   
    34   15   66 1   
    35   16   67 1   
    36   17   18 1   
    37   17   68 1   
    38   18   69 1   
    39   19   20 1   
    40   19   21 1   
    41   20   70 1   
    42   20   71 1   
    43   20   72 1   
    44   21   73 1   
    45   22   23 1   
    46   22   74 1   
    47   23   75 1   
    48   24   25 1   
    49   24   76 1   
    50   25   27 1   
    51   26   77 1   
    52   26   78 1   
    53   26   79 1   
    54   27   28 1   
    55   27   80 1   
    56   28   81 1   
    57   29   30 1   
    58   29   82 1   
    59   30   32 1   
    60   31   83 1   
    61   31   84 1   
    62   31   85 1   
    63   32   33 1   
    64   32   86 1   
    65   33   87 1   
    66   34   35 1   
    67   34   88 1   
    68   35   37 1   
    69   36   89 1   
    70   36   90 1   
    71   36   91 1   
    72   37   38 1   
    73   37   92 1   
    74   38   93 1   
    75   39   40 1   
    76   39   94 1   
    77   39   95 1   
    78   40   41 1   
    79   40   42 1   
    80   40   43 1   
    81   41   96 1   
    82   41   97 1   
    83   41   98 1   
    84   42   99 1   
    85   42  100 1   
    86   42  101 1   
    87   43   44 1   
    88   44  102 1   
    89   44  103 1   
    90   44  104 1   
@<TRIPOS>SUBSTRUCTURE
     1 CRT         1 TEMP              0 ****  ****    0 ROOT
