@<TRIPOS>MOLECULE
CRU
   38    39     1     0     0
SMALL
bcc


@<TRIPOS>ATOM
      1 OE1         4.7980    1.4460   -3.0580 o         1 CRU     -0.863800
      2 CD3         5.2800    1.9260   -1.9890 c         1 CRU      0.903600
      3 OE2         6.2090    2.7870   -1.9780 o         1 CRU     -0.863800
      4 CG1         4.7440    1.4300   -0.6360 c3        1 CRU     -0.180400
      5 CB1         3.2460    1.2550   -0.6700 c3        1 CRU     -0.107700
      6 CA1         2.6400    0.6520    0.5740 ce        1 CRU      0.412000
      7 N           3.2650    0.4070    1.6590 n2        1 CRU     -0.764100
      8 C1          1.1630    0.3920    0.3770 cc        1 CRU      0.403600
      9 N2          0.2670    1.3500    0.1280 nd        1 CRU     -0.642300
     10 CA2        -1.0050    0.7060   -0.0250 cd        1 CRU      0.057400
     11 C2         -0.7750   -0.7950    0.1590 c         1 CRU      0.671700
     12 O2         -1.5830   -1.7260    0.0610 o         1 CRU     -0.613500
     13 N3          0.6230   -0.9250    0.3780 n         1 CRU     -0.373300
     14 CA3         1.2310   -2.0860    0.9680 c3        1 CRU     -0.044000
     15 C           1.2080   -2.1930    2.5210 c         1 CRU      0.903600
     16 O           1.2080   -1.1380    3.2160 o         1 CRU     -0.832800
     17 CB2        -2.1460    1.3830   -0.2640 ce        1 CRU     -0.089200
     18 CG2        -3.4930    0.8760   -0.4410 ca        1 CRU     -0.057800
     19 CD1        -4.5630    1.6550    0.0380 ca        1 CRU     -0.078000
     20 CE1        -5.8820    1.2530   -0.1360 ca        1 CRU     -0.191000
     21 CZ         -6.1420    0.0520   -0.8110 ca        1 CRU      0.099100
     22 OH         -7.4700   -0.2990   -0.9700 oh        1 CRU     -0.517100
     23 CE2        -5.0940   -0.7350   -1.3030 ca        1 CRU     -0.191000
     24 CD2        -3.7780   -0.3200   -1.1150 ca        1 CRU     -0.078000
     25 OXT         1.2240   -3.3640    2.9880 o         1 CRU     -0.832800
     26 HG11        5.2420    0.4540   -0.4090 hc        1 CRU      0.033700
     27 HG12        5.0350    2.1560    0.1640 hc        1 CRU      0.033700
     28 HB11        2.7570    2.2530   -0.8350 hc        1 CRU      0.066200
     29 HB12        2.9810    0.6030   -1.5470 hc        1 CRU      0.066200
     30 HN1         2.7420   -0.0020    2.4130 hn        1 CRU      0.448400
     31 HA31        0.6960   -2.9850    0.5520 h1        1 CRU      0.059200
     32 HA32        2.3070   -2.1150    0.6420 h1        1 CRU      0.059200
     33 HB1        -2.0820    2.4890   -0.3270 ha        1 CRU      0.136000
     34 HD1        -4.3490    2.5950    0.5700 ha        1 CRU      0.150000
     35 HE1        -6.7160    1.8550    0.2470 ha        1 CRU      0.128500
     36 HH         -7.4880   -1.1800   -1.3680 ho        1 CRU      0.408000
     37 HE2        -5.3040   -1.6790   -1.8230 ha        1 CRU      0.128500
     38 HD2        -2.9500   -0.9480   -1.4850 ha        1 CRU      0.150000
@<TRIPOS>BOND
     1    1    2 1   
     2    2    3 1   
     3    2    4 1   
     4    4    5 1   
     5    4   26 1   
     6    4   27 1   
     7    5    6 1   
     8    5   28 1   
     9    5   29 1   
    10    6    7 2   
    11    6    8 1   
    12    7   30 1   
    13    8    9 2   
    14    8   13 1   
    15    9   10 1   
    16   10   11 1   
    17   10   17 2   
    18   11   12 2   
    19   11   13 1   
    20   13   14 1   
    21   14   15 1   
    22   14   31 1   
    23   14   32 1   
    24   15   16 1   
    25   15   25 1   
    26   17   18 1   
    27   17   33 1   
    28   18   19 ar  
    29   18   24 ar  
    30   19   20 ar  
    31   19   34 1   
    32   20   21 ar  
    33   20   35 1   
    34   21   22 1   
    35   21   23 ar  
    36   22   36 1   
    37   23   24 ar  
    38   23   37 1   
    39   24   38 1   
@<TRIPOS>SUBSTRUCTURE
     1 CRU         1 TEMP              0 ****  ****    0 ROOT
