@<TRIPOS>MOLECULE
CRU
   38    33     1     0     0
SMALL
bcc


@<TRIPOS>ATOM
      1 OE1         1.7820   -4.0830   -2.9940 o         1 CRU     -0.583000
      2 CD3         0.7720   -4.5150   -2.3090 c1        1 CRU      0.333000
      3 OE2        -0.0060   -5.3430   -2.8060 os        1 CRU     -0.593000
      4 CG1         0.5880   -4.0790   -0.8890 c3        1 CRU     -0.232000
      5 CB1        -0.0870   -2.7040   -0.8570 c3        1 CRU     -0.166000
      6 CA1        -0.0120   -2.1350    0.5510 c2        1 CRU      0.063000
      7 N          -0.5190   -2.8000    1.5540 n1        1 CRU     -0.258000
      8 C1          0.6530   -0.7900    0.7910 c2        1 CRU      0.153000
      9 N2          0.0090    0.3360    0.4860 n1        1 CRU     -0.215000
     10 CA2         0.3970    1.4020    1.2320 c1        1 CRU     -0.071000
     11 C2          1.5050    0.8280    2.1880 c2        1 CRU      0.320000
     12 O2          2.1360    1.4270    3.0300 o         1 CRU     -0.319000
     13 N3          1.5970   -0.6410    1.8340 n         1 CRU     -0.243000
     14 CA3         2.7460   -1.5070    2.0830 c3        1 CRU     -0.106000
     15 C           3.9370   -0.9970    1.3090 c2        1 CRU      0.326000
     16 O           3.8780   -0.8940    0.0520 o         1 CRU     -0.566500
     17 CB2        -0.0670    2.6860    1.1730 c1        1 CRU     -0.100000
     18 CG2        -1.1290    3.0560    0.1990 c1        1 CRU     -0.046000
     19 CD1        -0.7770    3.4700   -1.0900 c2        1 CRU     -0.052000
     20 CE1        -1.7760    3.8560   -2.0030 c1        1 CRU     -0.213000
     21 CZ         -3.1050    3.8250   -1.6260 c1        1 CRU      0.053000
     22 OH         -4.1190    4.2150   -2.5470 oh        1 CRU     -0.274000
     23 CE2        -3.4560    3.4090   -0.3320 c1        1 CRU     -0.176000
     24 CD2        -2.4560    3.0250    0.5770 c1        1 CRU     -0.107000
     25 OXT         4.9300   -0.6180    1.9030 o         1 CRU     -0.566500
     26 HG11        1.4140   -4.0280   -0.4730 hc        1 CRU      0.062000
     27 HG12        0.0440   -4.7090   -0.4340 hc        1 CRU      0.062000
     28 HB11       -1.0660   -2.7970   -1.1360 hc        1 CRU      0.129500
     29 HB12        0.3440   -2.1370   -1.4390 hc        1 CRU      0.129500
     30 HN1        -0.9390   -3.6440    1.4060 DU        1 CRU      0.147000
     31 HA31        2.9530   -1.5050    3.0200 h1        1 CRU      0.093500
     32 HA32        2.5390   -2.4040    1.8020 h1        1 CRU      0.093500
     33 HB1         0.3010    3.3610    1.7700 ha        1 CRU      0.135000
     34 HD1         0.1830    3.5620   -1.3360 ha        1 CRU      0.186000
     35 HE1        -1.5250    4.1790   -2.9020 ha        1 CRU      0.135000
     36 HH         -4.3000    3.5430   -3.0880 ho        1 CRU      0.210000
     37 HE2        -4.4470    3.2850   -0.0850 ha        1 CRU      0.128000
     38 HD2        -2.9210    2.8650    1.3890 ha        1 CRU      0.124000
@<TRIPOS>BOND
     1    1    2 1   
     2    2    4 1   
     3    4    5 1   
     4    4   26 1   
     5    4   27 1   
     6    5    6 1   
     7    5   28 1   
     8    5   29 1   
     9    6    7 1   
    10    6    8 1   
    11    8    9 1   
    12    8   13 1   
    13   10   11 1   
    14   10   17 1   
    15   11   12 1   
    16   11   13 1   
    17   13   14 1   
    18   14   15 1   
    19   14   31 1   
    20   14   32 1   
    21   15   16 1   
    22   15   25 1   
    23   17   33 1   
    24   18   19 1   
    25   18   24 1   
    26   19   20 1   
    27   19   34 1   
    28   20   35 1   
    29   21   22 1   
    30   21   23 1   
    31   22   36 1   
    32   23   37 1   
    33   24   38 1   
@<TRIPOS>SUBSTRUCTURE
     1 CRU         1 TEMP              0 ****  ****    0 ROOT
