@<TRIPOS>MOLECULE
CRV
   62    64     1     0     0
SMALL
bcc


@<TRIPOS>ATOM
      1 C1          0.8010    0.5110   -0.6700 c3        1 CRV      0.635900
      2 C2          1.9810   -0.4190   -0.1570 c3        1 CRV      0.185800
      3 N3          2.0730   -0.3990    1.3730 ny        1 CRV     -0.791000
      4 C4          1.8470   -1.8200   -0.5920 ca        1 CRV     -0.308300
      5 F5          1.1430    1.8440   -0.5170 f         1 CRV     -0.213300
      6 F6          0.5240    0.3650   -1.9880 f         1 CRV     -0.213300
      7 F7         -0.3700    0.3890    0.0230 f         1 CRV     -0.213300
      8 C8          1.9470    0.9120    2.0950 c3        1 CRV      0.111500
      9 C9          2.9740    1.9410    1.5690 c         1 CRV      0.539100
     10 C10         2.1260    0.7220    3.5960 c3        1 CRV     -0.327600
     11 S11         1.6160    2.1430    4.5300 s6        1 CRV      1.223000
     12 C12         1.1730    1.5800    6.0340 c3        1 CRV     -0.219300
     13 N13         2.5410    3.3820    1.5820 ny        1 CRV     -0.625800
     14 O14         4.0750    1.6570    1.1210 o         1 CRV     -0.404100
     15 C15         3.6260    4.3900    1.4300 cx        1 CRV     -0.038800
     16 N17         5.0030    5.6500   -0.2890 nz        1 CRV     -0.834600
     17 C18         3.5000    5.6640    2.2750 cx        1 CRV     -0.078900
     18 C19         4.5470    4.6630    2.6210 cx        1 CRV     -0.078900
     19 C20         2.9580   -2.4720   -1.1660 ca        1 CRV     -0.036000
     20 C21         2.8520   -3.7730   -1.6220 ca        1 CRV     -0.183500
     21 C22         1.6210   -4.4570   -1.5050 ca        1 CRV      0.249100
     22 C23         0.4990   -3.8120   -0.9190 ca        1 CRV     -0.183500
     23 C24         0.6210   -2.5130   -0.4770 ca        1 CRV     -0.036000
     24 O25         1.4250   -5.7260   -1.9200 oh        1 CRV     -0.429100
     25 C26         0.2560    0.4180    6.0360 ca        1 CRV     -0.171300
     26 C27        -1.1240    0.6120    5.8680 ca        1 CRV     -0.113500
     27 C28        -1.9970   -0.4700    5.9680 ca        1 CRV     -0.115500
     28 C29        -1.5040   -1.7460    6.2480 ca        1 CRV     -0.067000
     29 C30        -0.1310   -1.9420    6.4210 ca        1 CRV     -0.115500
     30 C31         0.7480   -0.8660    6.3210 ca        1 CRV     -0.113500
     31 O32         2.7700    2.9670    4.4650 o         1 CRV     -0.677800
     32 O33         0.6360    2.7210    3.6780 o         1 CRV     -0.677800
     33 C16         4.2100    4.4290    0.0190 c3        1 CRV      0.126800
     34 H2          2.9400    0.0420   -0.5450 hx        1 CRV      0.125700
     35 HN3         1.3190   -1.0150    1.7300 hn        1 CRV      0.481300
     36 H8          0.8870    1.2980    1.8920 hx        1 CRV      0.178700
     37 H101        1.5220   -0.1650    3.9530 h1        1 CRV      0.157700
     38 H102        3.1950    0.4790    3.8410 h1        1 CRV      0.157700
     39 H121        2.0730    1.3330    6.6790 h1        1 CRV      0.185200
     40 H122        0.6610    2.4170    6.6150 h1        1 CRV      0.185200
     41 HN13        1.8430    3.5080    0.8280 hn        1 CRV      0.506800
     42 H171        5.7470    5.7930    0.4080 hn        1 CRV      0.486800
     43 H172        5.4400    5.5430   -1.2190 hn        1 CRV      0.486800
     44 H181        3.7530    6.6460    1.8330 hc        1 CRV      0.137200
     45 H182        2.6290    5.7770    2.9600 hc        1 CRV      0.137200
     46 H191        5.6190    4.8550    2.4210 hc        1 CRV      0.137200
     47 H192        4.4260    4.0710    3.5610 hc        1 CRV      0.137200
     48 H20         3.9180   -1.9420   -1.2730 ha        1 CRV      0.144500
     49 H21         3.7190   -4.2750   -2.0840 ha        1 CRV      0.192000
     50 H23        -0.4550   -4.3640   -0.8470 ha        1 CRV      0.192000
     51 H24        -0.2640   -2.0060   -0.0550 ha        1 CRV      0.144500
     52 HO25        2.2350   -6.0760   -2.3360 ho        1 CRV      0.468000
     53 H27        -1.5280    1.6210    5.6840 ha        1 CRV      0.145000
     54 H28        -3.0830   -0.3110    5.8540 ha        1 CRV      0.173500
     55 H29        -2.2000   -2.5960    6.3580 ha        1 CRV      0.178000
     56 H30         0.2550   -2.9440    6.6730 ha        1 CRV      0.173500
     57 H31         1.8200   -1.0200    6.5170 ha        1 CRV      0.145000
     58 H161        4.9010    3.5370   -0.1060 hx        1 CRV      0.132200
     59 H162        3.3900    4.3690   -0.7600 hx        1 CRV      0.132200
     60 H32         2.9720   -0.8410    1.6200 hn        1 CRV      0.481300
     61 H132        2.0590    3.5880    2.4920 hn        1 CRV      0.506800
     62 H173        4.4040    6.4870   -0.3060 hn        1 CRV      0.486800
@<TRIPOS>BOND
     1    1    2 1   
     2    1    5 1   
     3    1    6 1   
     4    1    7 1   
     5    2    3 1   
     6    2    4 1   
     7    2   34 1   
     8    3    8 1   
     9    3   35 1   
    10    3   60 1   
    11    4   19 ar  
    12    4   23 ar  
    13    8    9 1   
    14    8   10 1   
    15    8   36 1   
    16    9   13 1   
    17    9   14 2   
    18   10   11 1   
    19   10   37 1   
    20   10   38 1   
    21   11   12 1   
    22   11   31 2   
    23   11   32 2   
    24   12   25 1   
    25   12   39 1   
    26   12   40 1   
    27   13   15 1   
    28   13   41 1   
    29   13   61 1   
    30   15   17 1   
    31   15   18 1   
    32   15   33 1   
    33   16   33 1   
    34   16   42 1   
    35   16   43 1   
    36   16   62 1   
    37   17   18 1   
    38   17   44 1   
    39   17   45 1   
    40   18   46 1   
    41   18   47 1   
    42   19   20 ar  
    43   19   48 1   
    44   20   21 ar  
    45   20   49 1   
    46   21   22 ar  
    47   21   24 1   
    48   22   23 ar  
    49   22   50 1   
    50   23   51 1   
    51   24   52 1   
    52   25   26 ar  
    53   25   30 ar  
    54   26   27 ar  
    55   26   53 1   
    56   27   28 ar  
    57   27   54 1   
    58   28   29 ar  
    59   28   55 1   
    60   29   30 ar  
    61   29   56 1   
    62   30   57 1   
    63   33   58 1   
    64   33   59 1   
@<TRIPOS>SUBSTRUCTURE
     1 CRV         1 TEMP              0 ****  ****    0 ROOT
