@<TRIPOS>MOLECULE
CRV
   62    64     1     0     0
SMALL
bcc


@<TRIPOS>ATOM
      1 C1          0.7520    0.4550   -0.6410 c3        1 CRV      0.635900
      2 C2          1.9590   -0.4470   -0.1410 c3        1 CRV      0.185800
      3 N3          2.0830   -0.4050    1.3860 n4        1 CRV     -0.791000
      4 C4          1.8430   -1.8560   -0.5540 ca        1 CRV     -0.308300
      5 F5          1.0730    1.7950   -0.5130 f         1 CRV     -0.213300
      6 F6          0.4500    0.2850   -1.9510 f         1 CRV     -0.213300
      7 F7         -0.4020    0.3200    0.0780 f         1 CRV     -0.213300
      8 C8          1.9480    0.9130    2.0940 c3        1 CRV      0.111500
      9 C9          2.9450    1.9540    1.5330 c         1 CRV      0.539100
     10 C10         2.1610    0.7470    3.5920 c3        1 CRV     -0.327600
     11 S11         1.6450    2.1710    4.5190 s6        1 CRV      1.223000
     12 C12         1.2440    1.6200    6.0390 c3        1 CRV     -0.219300
     13 N13         2.4860    3.3860    1.5360 n4        1 CRV     -0.625800
     14 O14         4.0410    1.6840    1.0650 o         1 CRV     -0.404100
     15 C15         3.5480    4.4120    1.3480 cx        1 CRV     -0.038800
     16 N17         4.8650    5.6740   -0.4160 n4        1 CRV     -0.834600
     17 C18         3.4170    5.6950    2.1790 cx        1 CRV     -0.078900
     18 C19         4.4890    4.7170    2.5150 cx        1 CRV     -0.078900
     19 C20         2.9520   -2.4950   -1.1440 ca        1 CRV     -0.036000
     20 C21         2.8620   -3.8040   -1.5800 ca        1 CRV     -0.183500
     21 C22         1.6470   -4.5090   -1.4280 ca        1 CRV      0.249100
     22 C23         0.5250   -3.8770   -0.8270 ca        1 CRV     -0.183500
     23 C24         0.6320   -2.5700   -0.4040 ca        1 CRV     -0.036000
     24 O25         1.4650   -5.7870   -1.8220 oh        1 CRV     -0.429100
     25 C26         0.3460    0.4430    6.0750 ca        1 CRV     -0.171300
     26 C27        -1.0400    0.6120    5.9340 ca        1 CRV     -0.113500
     27 C28        -1.8920   -0.4820    6.0650 ca        1 CRV     -0.115500
     28 C29        -1.3720   -1.7470    6.3510 ca        1 CRV     -0.067000
     29 C30         0.0070   -1.9170    6.4970 ca        1 CRV     -0.115500
     30 C31         0.8650   -0.8290    6.3650 ca        1 CRV     -0.113500
     31 O32         2.7820    3.0150    4.4190 o         1 CRV     -0.677800
     32 O33         0.6370    2.7190    3.6800 o         1 CRV     -0.677800
     33 C16         4.1030    4.4430   -0.0760 c3        1 CRV      0.126800
     34 H2          2.9020    0.0260   -0.5550 hx        1 CRV      0.125700
     35 HN3         1.3490   -1.0300    1.7670 hn        1 CRV      0.481300
     36 H8          0.8770    1.2780    1.9080 hx        1 CRV      0.178700
     37 H101        3.2400    0.5270    3.8180 h1        1 CRV      0.157700
     38 H102        1.5810   -0.1460    3.9740 h1        1 CRV      0.157700
     39 H121        2.1610    1.3960    6.6680 h1        1 CRV      0.185200
     40 H122        0.7300    2.4550    6.6210 h1        1 CRV      0.185200
     41 HN13        1.7700    3.4900    0.7950 hn        1 CRV      0.506800
     42 H171        5.2850    5.5630   -1.3540 hn        1 CRV      0.486800
     43 H172        4.2500    6.5000   -0.4310 hn        1 CRV      0.486800
     44 H181        2.5580    5.8010    2.8800 hc        1 CRV      0.137200
     45 H182        3.6420    6.6750    1.7190 hc        1 CRV      0.137200
     46 H191        4.3990    4.1360    3.4650 hc        1 CRV      0.137200
     47 H192        5.5530    4.9260    2.2900 hc        1 CRV      0.137200
     48 H20         3.9010   -1.9490   -1.2790 ha        1 CRV      0.144500
     49 H21         3.7280   -4.2960   -2.0550 ha        1 CRV      0.192000
     50 H23        -0.4170   -4.4450   -0.7270 ha        1 CRV      0.192000
     51 H24        -0.2530   -2.0730    0.0290 ha        1 CRV      0.144500
     52 HO25        2.2720   -6.1270   -2.2510 ho        1 CRV      0.468000
     53 H27        -1.4640    1.6120    5.7450 ha        1 CRV      0.145000
     54 H28        -2.9830   -0.3420    5.9720 ha        1 CRV      0.173500
     55 H29        -2.0520   -2.6060    6.4860 ha        1 CRV      0.178000
     56 H30         0.4150   -2.9100    6.7530 ha        1 CRV      0.173500
     57 H31         1.9440   -0.9630    6.5400 ha        1 CRV      0.145000
     58 H161        4.8070    3.5620   -0.2030 hx        1 CRV      0.132200
     59 H162        3.2680    4.3570   -0.8360 hx        1 CRV      0.132200
     60 H32         2.9960   -0.8270    1.6190 hn        1 CRV      0.481300
     61 H132        2.0190    3.5960    2.4530 hn        1 CRV      0.506800
     62 H173        5.6210    5.8400    0.2630 hn        1 CRV      0.486800
@<TRIPOS>BOND
     1    1    2 1   
     2    1    5 1   
     3    1    6 1   
     4    1    7 1   
     5    2    3 1   
     6    2    4 1   
     7    2   34 1   
     8    3    8 1   
     9    3   35 1   
    10    3   60 1   
    11    4   19 ar  
    12    4   23 ar  
    13    8    9 1   
    14    8   10 1   
    15    8   36 1   
    16    9   13 1   
    17    9   14 2   
    18   10   11 1   
    19   10   37 1   
    20   10   38 1   
    21   11   12 1   
    22   11   31 2   
    23   11   32 2   
    24   12   25 1   
    25   12   39 1   
    26   12   40 1   
    27   13   15 1   
    28   13   41 1   
    29   13   61 1   
    30   15   17 1   
    31   15   18 1   
    32   15   33 1   
    33   16   33 1   
    34   16   42 1   
    35   16   43 1   
    36   16   62 1   
    37   17   18 1   
    38   17   44 1   
    39   17   45 1   
    40   18   46 1   
    41   18   47 1   
    42   19   20 ar  
    43   19   48 1   
    44   20   21 ar  
    45   20   49 1   
    46   21   22 ar  
    47   21   24 1   
    48   22   23 ar  
    49   22   50 1   
    50   23   51 1   
    51   24   52 1   
    52   25   26 ar  
    53   25   30 ar  
    54   26   27 ar  
    55   26   53 1   
    56   27   28 ar  
    57   27   54 1   
    58   28   29 ar  
    59   28   55 1   
    60   29   30 ar  
    61   29   56 1   
    62   30   57 1   
    63   33   58 1   
    64   33   59 1   
@<TRIPOS>SUBSTRUCTURE
     1 CRV         1 TEMP              0 ****  ****    0 ROOT
