@<TRIPOS>MOLECULE
CRV
   59    60     1     0     0
SMALL
bcc


@<TRIPOS>ATOM
      1 C1          0.2640    0.4920   -1.0960 c3        1 CRV      0.410000
      2 C2          1.6240    0.0690   -0.3980 c3        1 CRV     -0.064000
      3 N3          1.5490    0.2220    1.0790 n4        1 CRV     -0.067000
      4 C4          2.0030   -1.3400   -0.7880 c2        1 CRV     -0.119000
      5 F5          0.0210    1.8380   -0.9930 f         1 CRV     -0.148000
      6 F6          0.2620    0.2430   -2.4420 f         1 CRV     -0.148000
      7 F7         -0.8570   -0.1130   -0.6010 f         1 CRV     -0.148000
      8 C8          1.7100    1.6550    1.6500 c3        1 CRV      0.113000
      9 C9          3.0840    2.2590    1.2880 c2        1 CRV      0.303000
     10 C10         1.5320    1.5820    3.0790 c2        1 CRV     -1.425000
     11 S11         0.1500    1.3750    3.7710 s6        1 CRV      2.926000
     12 C12         0.5940    0.4840    5.1890 c3        1 CRV     -0.787000
     13 N13         3.2940    3.5310    1.7670 n         1 CRV     -0.301000
     14 O14         3.8900    1.6500    0.5500 o         1 CRV     -0.407000
     15 C15         4.5690    4.1830    1.7480 cx        1 CRV     -0.039000
     16 C18         4.7250    5.4730    2.5430 cx        1 CRV     -0.216000
     17 C19         5.4320    4.2350    3.0040 cx        1 CRV     -0.216000
     18 C20         3.0150   -1.5170   -1.6730 c2        1 CRV      0.025000
     19 C21         3.5380   -2.7390   -2.2060 c2        1 CRV     -0.244000
     20 C22         2.9420   -3.9510   -2.1270 c2        1 CRV      0.043000
     21 C23         0.6630   -3.2310    0.3990 c1        1 CRV     -0.155000
     22 C24         1.2810   -2.3650   -0.1560 c1        1 CRV     -0.172000
     23 O25         3.5810   -5.0170   -2.7020 oh        1 CRV     -0.245000
     24 C26        -0.5760   -0.2820    5.7850 c3        1 CRV     -0.130000
     25 C27        -1.4570    0.6070    6.5890 c2        1 CRV     -0.099000
     26 C28        -1.9300    0.2130    7.7920 c2        1 CRV     -0.205000
     27 C29        -1.5450   -1.0580    8.3470 c2        1 CRV     -0.007000
     28 C30        -0.6860   -1.8790    7.6780 c2        1 CRV     -0.250000
     29 C31        -0.1230   -1.5280    6.4220 c1        1 CRV     -0.081000
     30 O32        -0.5130    2.5380    4.2070 o         1 CRV     -0.998000
     31 O33        -0.6480    0.5220    2.9350 o         1 CRV     -0.998000
     32 C16         5.3560    4.0880    0.4330 c3        1 CRV     -0.045000
     33 H2          2.4060    0.7960   -0.7850 hx        1 CRV      0.187000
     34 HN3         2.2890   -0.3540    1.4950 hn        1 CRV      0.263000
     35 H8          0.6330   -0.1310    1.4240 hn        1 CRV      0.263000
     36 H101        0.9020    2.2410    1.1130 hx        1 CRV      0.133000
     37 H102        2.4500    1.6480    3.6740 h4        1 CRV      0.174000
     38 H121        1.0160    1.1670    5.9690 h1        1 CRV      0.151000
     39 H122        1.4040   -0.2600    4.9630 h1        1 CRV      0.151000
     40 HN13        2.6590    3.8490    2.4720 hn        1 CRV      0.248000
     41 H171        4.0280    3.5190   -0.9830 hn        1 CRV      0.146500
     42 H172        4.0800    5.1330   -0.7450 hn        1 CRV      0.146500
     43 H181        5.3060    6.2930    2.0840 hc        1 CRV      0.119250
     44 H182        3.8780    5.8570    3.1400 hc        1 CRV      0.119250
     45 H191        6.5260    4.1550    2.8800 hc        1 CRV      0.119250
     46 H192        5.0840    3.7370    3.9270 hc        1 CRV      0.119250
     47 H20         3.5370   -0.6120   -2.0510 ha        1 CRV      0.145000
     48 H21         4.5040   -2.6530   -2.7360 ha        1 CRV      0.158000
     49 H23         1.9720   -4.1440   -1.6410 h4        1 CRV      0.145000
     50 H24         0.1070   -3.9820    0.9040 ha        1 CRV      0.238000
     51 HO25        3.0200   -5.7970   -2.5850 ho        1 CRV      0.226000
     52 H27        -1.2160   -0.6830    4.9180 hc        1 CRV      0.191000
     53 H28        -1.7110    1.5880    6.1490 ha        1 CRV      0.164000
     54 H29        -2.6060    0.8510    8.3810 ha        1 CRV      0.137000
     55 H30        -1.9590   -1.3300    9.3320 ha        1 CRV      0.128000
     56 H31        -0.3780   -2.8440    8.1120 ha        1 CRV      0.142000
     57 H161        5.8300    3.0650    0.3930 h1        1 CRV      0.106500
     58 H162        6.1780    4.8590    0.4810 h1        1 CRV      0.106500
     59 N17         4.6280    4.2970   -0.7840 n3        1 CRV     -0.334000
@<TRIPOS>BOND
     1    1    2 1   
     2    1    5 1   
     3    1    6 1   
     4    1    7 1   
     5    2    3 1   
     6    2    4 1   
     7    2   33 1   
     8    3    8 1   
     9    3   34 1   
    10    3   35 1   
    11    4   18 1   
    12    4   22 1   
    13    8    9 1   
    14    8   10 1   
    15    8   36 1   
    16    9   13 1   
    17    9   14 1   
    18   10   11 1   
    19   10   37 1   
    20   11   12 1   
    21   11   30 1   
    22   11   31 1   
    23   12   24 1   
    24   12   38 1   
    25   12   39 1   
    26   13   15 1   
    27   13   40 1   
    28   15   16 1   
    29   15   17 1   
    30   15   32 1   
    31   16   17 1   
    32   16   43 1   
    33   16   44 1   
    34   17   45 1   
    35   17   46 1   
    36   18   19 1   
    37   18   47 1   
    38   19   20 1   
    39   19   48 1   
    40   20   23 1   
    41   20   49 1   
    42   21   22 1   
    43   21   50 1   
    44   23   51 1   
    45   24   25 1   
    46   24   29 1   
    47   24   52 1   
    48   25   26 1   
    49   25   53 1   
    50   26   27 1   
    51   26   54 1   
    52   27   28 1   
    53   27   55 1   
    54   28   29 1   
    55   28   56 1   
    56   32   57 1   
    57   32   58 1   
    58   32   59 1   
    59   41   59 1   
    60   42   59 1   
@<TRIPOS>SUBSTRUCTURE
     1 CRV         1 TEMP              0 ****  ****    0 ROOT
