@<TRIPOS>MOLECULE
CRV
   59    56     1     0     0
SMALL
bcc


@<TRIPOS>ATOM
      1 C1         -1.6530   -1.5860   -2.0390 c3        1 CRV      0.350000
      2 C2         -0.1660   -1.4120   -1.8350 c3        1 CRV      0.037000
      3 N3          0.1250   -1.3910   -0.4350 n3        1 CRV     -0.329000
      4 C4          0.5740   -2.5670   -2.4890 c2        1 CRV     -0.132000
      5 F5         -1.9080   -1.7670   -3.3470 f         1 CRV     -0.172667
      6 F6         -2.0780   -2.6560   -1.3480 f         1 CRV     -0.172667
      7 F7         -2.2960   -0.4890   -1.6060 f         1 CRV     -0.172667
      8 C8          0.1670   -0.0410    0.0230 c3        1 CRV      0.030000
      9 C9          1.4130    0.6390   -0.5160 c2        1 CRV      0.303000
     10 C10         0.1960   -0.0210    1.5430 c3        1 CRV     -0.875000
     11 S11        -1.4770    0.1810    2.1730 s4        1 CRV      2.015800
     12 C12        -1.4460    0.4260    3.9520 c2        1 CRV     -0.800000
     13 N13         1.4210    2.0710   -0.7300 n         1 CRV     -0.327000
     14 O14         2.4250   -0.0110   -0.7070 o         1 CRV     -0.348000
     15 C15         2.6350    2.7310   -1.1740 cx        1 CRV      0.001000
     16 N17         2.8400    1.8350   -3.4220 n3        1 CRV     -0.359000
     17 C18         3.3320    3.5970   -0.1370 cx        1 CRV     -0.199000
     18 C19         2.5610    4.2470   -1.2750 cx        1 CRV     -0.199000
     19 C20         0.9970   -2.3800   -3.8030 c1        1 CRV     -0.062000
     20 C21         1.6480   -3.4090   -4.4790 c1        1 CRV     -0.164000
     21 C22         1.8750   -4.6250   -3.8420 c1        1 CRV      0.095000
     22 C23         1.4530   -4.8120   -2.5290 c1        1 CRV     -0.214000
     23 C24         0.8020   -3.7820   -1.8520 c2        1 CRV     -0.065000
     24 O25         2.5930   -5.6470   -4.5060 oh        1 CRV     -0.249000
     25 C26        -2.8520    0.8010    4.4420 c2        1 CRV     -0.076000
     26 C27        -3.6920   -0.1820    4.9540 c2        1 CRV     -0.106000
     27 C28        -4.9200    0.1720    5.5060 c1        1 CRV     -0.129000
     28 C29        -5.3060    1.5070    5.5470 c1        1 CRV     -0.121000
     29 C30        -4.4660    2.4890    5.0350 c1        1 CRV     -0.121000
     30 C31        -3.2390    2.1370    4.4820 c1        1 CRV     -0.120000
     31 O32        -2.1590    1.2640    1.5080 o         1 CRV     -0.534900
     32 O33        -2.3090   -0.9360    1.8140 o         1 CRV     -0.534900
     33 C16         3.5550    2.0390   -2.1940 c3        1 CRV     -0.076000
     34 H2          0.1230   -0.5660   -2.2410 h1        1 CRV      0.154000
     35 HN3        -0.5270   -1.8480    0.0190 hn        1 CRV      0.222000
     36 H8         -0.6290    0.4380   -0.2950 h1        1 CRV      0.093000
     37 H101        0.7540    0.7260    1.8510 h1        1 CRV      0.177500
     38 H102        0.5710   -0.8690    1.8750 h1        1 CRV      0.177500
     39 H121       -0.8190    1.1500    4.1720 ha        1 CRV      0.159500
     40 H122       -1.1570   -0.4030    4.3920 ha        1 CRV      0.159500
     41 HN13        0.6660    2.5630   -0.5640 hn        1 CRV      0.237000
     42 H171        2.2940    2.5550   -3.5820 hn        1 CRV      0.148000
     43 H172        3.4390    1.7440   -4.1130 hn        1 CRV      0.148000
     44 H181        4.3130    3.6410   -0.2060 hc        1 CRV      0.118250
     45 H182        2.9020    3.6350    0.7460 hc        1 CRV      0.118250
     46 H191        1.6990    4.6490   -1.0300 hc        1 CRV      0.118250
     47 H192        3.1070    4.6540   -1.9810 hc        1 CRV      0.118250
     48 H20         0.8360   -1.5220   -4.2520 ha        1 CRV      0.145000
     49 H21         1.9460   -3.2770   -5.4070 ha        1 CRV      0.153000
     50 H23         1.6140   -5.6710   -2.0780 ha        1 CRV      0.139000
     51 H24         0.5040   -3.9140   -0.9280 ha        1 CRV      0.151000
     52 HO25        2.0230   -6.2590   -4.8110 ho        1 CRV      0.221000
     53 H27        -3.4200   -1.1220    4.9260 ha        1 CRV      0.134000
     54 H28        -5.5130   -0.5220    5.8680 ha        1 CRV      0.135000
     55 H29        -6.1710    1.7560    5.9360 ha        1 CRV      0.136500
     56 H30        -4.7390    3.4310    5.0630 ha        1 CRV      0.136500
     57 H31        -2.6470    2.8290    4.1220 ha        1 CRV      0.154000
     58 H161        3.8460    1.1730   -1.8370 h1        1 CRV      0.088500
     59 H162        4.3420    2.6060   -2.3630 h1        1 CRV      0.088500
@<TRIPOS>BOND
     1    1    2 1   
     2    1    5 1   
     3    1    6 1   
     4    1    7 1   
     5    2    3 1   
     6    2    4 1   
     7    2   34 1   
     8    3    8 1   
     9    3   35 1   
    10    4   19 1   
    11    4   23 1   
    12    8    9 1   
    13    8   10 1   
    14    8   36 1   
    15    9   13 1   
    16    9   14 1   
    17   10   11 1   
    18   10   37 1   
    19   10   38 1   
    20   11   31 1   
    21   11   32 1   
    22   12   25 1   
    23   12   39 1   
    24   12   40 1   
    25   13   15 1   
    26   13   41 1   
    27   15   17 1   
    28   15   18 1   
    29   15   33 1   
    30   16   33 1   
    31   16   42 1   
    32   16   43 1   
    33   17   18 1   
    34   17   44 1   
    35   17   45 1   
    36   18   46 1   
    37   18   47 1   
    38   19   48 1   
    39   20   21 1   
    40   20   49 1   
    41   21   24 1   
    42   22   23 1   
    43   22   50 1   
    44   23   51 1   
    45   24   52 1   
    46   25   26 1   
    47   25   30 1   
    48   26   27 1   
    49   26   53 1   
    50   27   54 1   
    51   28   29 1   
    52   28   55 1   
    53   29   56 1   
    54   30   57 1   
    55   33   58 1   
    56   33   59 1   
@<TRIPOS>SUBSTRUCTURE
     1 CRV         1 TEMP              0 ****  ****    0 ROOT
