@<TRIPOS>MOLECULE
CRV
   59    61     1     0     0
SMALL
bcc


@<TRIPOS>ATOM
      1 C1         -1.7040    1.3930   -2.0500 c3        1 CRV      0.618900
      2 C2         -1.9460    0.9040   -0.5550 c3        1 CRV      0.227800
      3 N3         -0.6980    0.4430    0.0290 n3        1 CRV     -0.828200
      4 C4         -2.5790    2.0110    0.2410 ca        1 CRV     -0.164300
      5 F5         -1.2710    0.3890   -2.8810 f         1 CRV     -0.236633
      6 F6         -2.8530    1.8420   -2.6520 f         1 CRV     -0.236633
      7 F7         -0.8000    2.4040   -2.2100 f         1 CRV     -0.236633
      8 C8         -0.3700   -0.9500   -0.2040 c3        1 CRV      0.142500
      9 C9         -1.3880   -1.9660    0.3810 c         1 CRV      0.621100
     10 C10         0.9980   -1.2840    0.3990 c3        1 CRV     -0.308600
     11 S11         2.1970   -0.0760    0.0940 s6        1 CRV      1.335000
     12 C12         3.5440   -1.0390    0.5840 c3        1 CRV     -0.257300
     13 N13        -1.3500   -3.2380   -0.1490 n         1 CRV     -0.514900
     14 O14        -2.1420   -1.6370    1.3180 o         1 CRV     -0.608100
     15 C15        -2.3110   -4.2550    0.1390 cx        1 CRV      0.033400
     16 C18        -1.9150   -5.4350    1.0250 cx        1 CRV     -0.119900
     17 C19        -2.9040   -4.4310    1.5260 cx        1 CRV     -0.119900
     18 C20        -3.8950    1.8640    0.6980 ca        1 CRV     -0.057000
     19 C21        -4.4980    2.8660    1.4490 ca        1 CRV     -0.191500
     20 C22        -3.7670    4.0280    1.7500 ca        1 CRV      0.143100
     21 C23        -2.4460    4.1830    1.3040 ca        1 CRV     -0.191500
     22 C24        -1.8590    3.1700    0.5510 ca        1 CRV     -0.057000
     23 O25        -4.4150    4.9830    2.4970 oh        1 CRV     -0.495100
     24 C26         4.8290   -0.2980    0.5780 ca        1 CRV     -0.079300
     25 C27         5.8340   -0.6300   -0.3380 ca        1 CRV     -0.113500
     26 C28         7.0500    0.0520   -0.3210 ca        1 CRV     -0.126500
     27 C29         7.2720    1.0650    0.6120 ca        1 CRV     -0.120000
     28 C30         6.2730    1.3990    1.5260 ca        1 CRV     -0.126500
     29 C31         5.0560    0.7210    1.5130 ca        1 CRV     -0.113500
     30 O32         2.2740    0.1790   -1.2730 o         1 CRV     -0.632300
     31 O33         2.0310    0.9700    1.0070 o         1 CRV     -0.632300
     32 C16        -3.2520   -4.5880   -1.0260 c3        1 CRV      0.170800
     33 H2         -2.6900    0.0540   -0.6620 h1        1 CRV      0.074700
     34 HN3        -0.6590    0.6750    1.0080 hn        1 CRV      0.412800
     35 H8         -0.3200   -1.0840   -1.3290 h1        1 CRV      0.104700
     36 H101        0.8730   -1.4290    1.5060 h1        1 CRV      0.116200
     37 H102        1.3020   -2.2820   -0.0100 h1        1 CRV      0.116200
     38 H121        3.3870   -1.4440    1.6210 h1        1 CRV      0.111200
     39 H122        3.6440   -1.9410   -0.0790 h1        1 CRV      0.111200
     40 HN13       -0.8380   -3.3790   -0.9920 hn        1 CRV      0.326500
     41 H171       -2.0450   -5.8960   -2.0020 hn        1 CRV      0.355800
     42 H172       -3.1740   -5.1970   -2.9540 hn        1 CRV      0.355800
     43 H181       -2.2630   -6.4400    0.7290 hc        1 CRV      0.081700
     44 H182       -0.9070   -5.4630    1.4750 hc        1 CRV      0.081700
     45 H191       -2.6060   -3.7270    2.3270 hc        1 CRV      0.081700
     46 H192       -3.9720   -4.7060    1.5980 hc        1 CRV      0.081700
     47 H20        -4.4600    0.9480    0.4660 ha        1 CRV      0.151500
     48 H21        -5.5310    2.7640    1.8110 ha        1 CRV      0.147000
     49 H23        -1.8800    5.0930    1.5450 ha        1 CRV      0.147000
     50 H24        -0.8230    3.2850    0.1890 ha        1 CRV      0.151500
     51 HO25       -3.8050    5.7240    2.6280 ho        1 CRV      0.422000
     52 H27         5.6640   -1.4260   -1.0780 ha        1 CRV      0.143000
     53 H28         7.8330   -0.2100   -1.0460 ha        1 CRV      0.136000
     54 H29         8.2320    1.6020    0.6240 ha        1 CRV      0.134000
     55 H30         6.4420    2.2020    2.2600 ha        1 CRV      0.136000
     56 H31         4.2600    0.9980    2.2240 ha        1 CRV      0.143000
     57 H161       -3.8230   -3.6570   -1.3080 h1        1 CRV      0.039200
     58 H162       -4.0060   -5.3400   -0.6460 h1        1 CRV      0.039200
     59 N17        -2.5420   -5.0490   -2.1940 n3        1 CRV     -0.926800
@<TRIPOS>BOND
     1    1    2 1   
     2    1    5 1   
     3    1    6 1   
     4    1    7 1   
     5    2    3 1   
     6    2    4 1   
     7    2   33 1   
     8    3    8 1   
     9    3   34 1   
    10    4   18 ar  
    11    4   22 ar  
    12    8    9 1   
    13    8   10 1   
    14    8   35 1   
    15    9   13 1   
    16    9   14 2   
    17   10   11 1   
    18   10   36 1   
    19   10   37 1   
    20   11   12 1   
    21   11   30 2   
    22   11   31 2   
    23   12   24 1   
    24   12   38 1   
    25   12   39 1   
    26   13   15 1   
    27   13   40 1   
    28   15   16 1   
    29   15   17 1   
    30   15   32 1   
    31   16   17 1   
    32   16   43 1   
    33   16   44 1   
    34   17   45 1   
    35   17   46 1   
    36   18   19 ar  
    37   18   47 1   
    38   19   20 ar  
    39   19   48 1   
    40   20   21 ar  
    41   20   23 1   
    42   21   22 ar  
    43   21   49 1   
    44   22   50 1   
    45   23   51 1   
    46   24   25 ar  
    47   24   29 ar  
    48   25   26 ar  
    49   25   52 1   
    50   26   27 ar  
    51   26   53 1   
    52   27   28 ar  
    53   27   54 1   
    54   28   29 ar  
    55   28   55 1   
    56   29   56 1   
    57   32   57 1   
    58   32   58 1   
    59   32   59 1   
    60   41   59 1   
    61   42   59 1   
@<TRIPOS>SUBSTRUCTURE
     1 CRV         1 TEMP              0 ****  ****    0 ROOT
