@<TRIPOS>MOLECULE
CRW
   24    24     1     0     0
SMALL
bcc


@<TRIPOS>ATOM
      1 N1          5.7600    2.1870   -1.3050 n3        1 CRW     -0.911800
      2 CA1         4.8460    1.9680   -2.4020 c3        1 CRW      0.166200
      3 CB1         5.3350    0.8980   -3.3810 c3        1 CRW     -0.088100
      4 C1          3.4370    1.5640   -1.9520 cc        1 CRW      0.460900
      5 N2          3.1840    0.4660   -1.2340 nd        1 CRW     -0.659300
      6 N3          2.2800    2.3170   -2.3080 n         1 CRW     -0.374300
      7 C2          1.1790    1.6900   -1.6610 c         1 CRW      0.662700
      8 O2         -0.0050    2.0400   -1.7030 o         1 CRW     -0.608500
      9 CA2         1.7740    0.4500   -0.9950 cd        1 CRW      0.028400
     10 CA3         2.2900    3.7010   -2.6950 c3        1 CRW     -0.051000
     11 C3          3.1450    4.6870   -1.8440 c         1 CRW      0.905600
     12 O3          3.7540    4.2680   -0.8210 o         1 CRW     -0.829300
     13 CB2         1.0580   -0.4570   -0.3240 c2        1 CRW     -0.172000
     14 OXT         3.1670    5.8740   -2.2660 o         1 CRW     -0.829300
     15 HN11        5.7470    1.4150   -0.6680 hn        1 CRW      0.376300
     16 HN12        5.4990    3.0300   -0.8170 hn        1 CRW      0.376300
     17 HA1         4.7620    2.9550   -2.9550 h1        1 CRW      0.092700
     18 HB11        4.5910    0.7860   -4.2060 hc        1 CRW      0.035367
     19 HB12        6.3150    1.2060   -3.8180 hc        1 CRW      0.035367
     20 HB13        5.4620   -0.0870   -2.8750 hc        1 CRW      0.035367
     21 HA31        1.2270    4.0700   -2.6680 h1        1 CRW      0.054200
     22 HA32        2.6590    3.7570   -3.7570 h1        1 CRW      0.054200
     23 HB21        1.5070   -1.3460    0.1350 ha        1 CRW      0.120500
     24 HB22       -0.0270   -0.3350   -0.2080 ha        1 CRW      0.120500
@<TRIPOS>BOND
     1    1    2 1   
     2    1   15 1   
     3    1   16 1   
     4    2    3 1   
     5    2    4 1   
     6    2   17 1   
     7    3   18 1   
     8    3   19 1   
     9    3   20 1   
    10    4    5 2   
    11    4    6 1   
    12    5    9 1   
    13    6    7 1   
    14    6   10 1   
    15    7    8 2   
    16    7    9 1   
    17    9   13 2   
    18   10   11 1   
    19   10   21 1   
    20   10   22 1   
    21   11   12 1   
    22   11   14 1   
    23   13   23 1   
    24   13   24 1   
@<TRIPOS>SUBSTRUCTURE
     1 CRW         1 TEMP              0 ****  ****    0 ROOT
