@<TRIPOS>MOLECULE
CRW
   24    22     1     0     0
SMALL
bcc


@<TRIPOS>ATOM
      1 N1         -1.9950    1.1820    1.1960 n3        1 CRW     -0.929800
      2 CA1        -0.5720    1.1820    1.1960 c3        1 CRW      0.223700
      3 CB1        -0.0680    1.1820    2.6210 c3        1 CRW     -0.073100
      4 C1         -0.0680   -0.0520    0.4830 c2        1 CRW      0.091400
      5 N2         -0.5760   -1.2310    0.7710 n1        1 CRW     -0.223000
      6 N3          0.4380    0.0490   -0.8230 n         1 CRW     -0.384000
      7 C2          0.1820   -1.3250   -1.4160 c         1 CRW      0.575300
      8 O2          0.1090   -1.5890   -2.5990 o         1 CRW     -0.576100
      9 CA2        -0.5120   -2.1170   -0.2450 cg        1 CRW     -0.065200
     10 CA3         1.4070    0.9870   -1.2740 c3        1 CRW     -0.047000
     11 C3          1.9810    0.5230   -2.5940 c         1 CRW      0.895600
     12 O3          2.9930   -0.2260   -2.6120 o         1 CRW     -0.819800
     13 CB2        -0.9450   -3.3930   -0.2560 c1        1 CRW     -0.110500
     14 OXT         1.4480    0.8870   -3.6750 o         1 CRW     -0.819800
     15 HN11       -2.2990    1.4680    0.3850 hn        1 CRW      0.374800
     16 HN12       -2.2990    1.7410    1.8490 hn        1 CRW      0.374800
     17 HA1        -0.2470    1.9790    0.7360 h1        1 CRW      0.124700
     18 HB11       -0.6200    0.5850    3.1610 hc        1 CRW      0.035367
     19 HB12        0.8580    0.8750    2.6380 hc        1 CRW      0.035367
     20 HB13       -0.1180    2.0870    2.9830 hc        1 CRW      0.035367
     21 HA31        0.9850    1.8590   -1.3910 h1        1 CRW      0.048700
     22 HA32        2.1230    1.0580   -0.6140 h1        1 CRW      0.048700
     23 HB21       -0.8410   -3.9370   -1.0600 DU        1 CRW      0.122000
     24 HB22       -1.3630   -3.7740    0.5400 ha        1 CRW      0.062500
@<TRIPOS>BOND
     1    1    2 1   
     2    1   15 1   
     3    1   16 1   
     4    2    3 1   
     5    2    4 1   
     6    2   17 1   
     7    3   18 1   
     8    3   19 1   
     9    3   20 1   
    10    4    5 2   
    11    4    6 1   
    12    6    7 1   
    13    6   10 1   
    14    7    8 2   
    15    7    9 1   
    16    9   13 3   
    17   10   11 1   
    18   10   21 1   
    19   10   22 1   
    20   11   12 1   
    21   11   14 1   
    22   13   24 1   
@<TRIPOS>SUBSTRUCTURE
     1 CRW         1 TEMP              0 ****  ****    0 ROOT
