@<TRIPOS>MOLECULE
CRX
   27    26     1     0     0
SMALL
bcc


@<TRIPOS>ATOM
      1 N1         -1.5400    0.8600    1.5040 n3        1 CRX     -0.357000
      2 CA1        -0.1200    0.9200    1.2810 c3        1 CRX     -0.034000
      3 CB1         0.6120    0.9500    2.6340 c3        1 CRX     -0.205000
      4 C1          0.3060   -0.2670    0.5170 c3        1 CRX      0.262000
      5 N2         -0.6870   -1.2740    0.5930 n3        1 CRX     -0.271000
      6 N3          0.4600    0.0810   -0.9120 n         1 CRX     -0.315000
      7 C2         -0.6880   -0.2580   -1.5190 c2        1 CRX      0.330000
      8 O2         -1.0100    0.0390   -2.6390 o         1 CRX     -0.339000
      9 CA2        -1.3080   -1.3370   -0.6800 c2        1 CRX     -0.052000
     10 CA3         1.4990    0.8950   -1.4710 c3        1 CRX     -0.115000
     11 C3          1.7320    0.5030   -2.9030 c2        1 CRX      0.325000
     12 O3          2.3230   -0.5720   -3.1710 o         1 CRX     -0.565500
     13 CB2        -2.2650   -2.1970   -1.0600 c1        1 CRX     -0.245000
     14 O1          1.5240   -0.7560    1.0270 oh        1 CRX     -0.352000
     15 OXT         1.4130    1.2920   -3.8310 o         1 CRX     -0.565500
     16 HN11       -1.7060    0.7880    2.4060 hn        1 CRX      0.147000
     17 HN12       -1.9300    1.6170    1.1840 hn        1 CRX      0.147000
     18 HA1         0.1000    1.7390    0.7700 h1        1 CRX      0.077000
     19 HB11        1.5760    1.1030    2.4840 hc        1 CRX      0.078667
     20 HB12        0.2440    1.6840    3.1930 hc        1 CRX      0.078667
     21 HB13        0.4830    0.0790    3.1010 hc        1 CRX      0.078667
     22 HN2        -0.8640   -1.8170    1.3180 hn        1 CRX      0.188000
     23 HA31        2.3110    0.7690   -0.9680 h1        1 CRX      0.091500
     24 HA32        1.2350    1.8310   -1.4310 h1        1 CRX      0.091500
     25 HB21       -2.6310   -2.1550   -1.9720 DU        1 CRX      0.131000
     26 HB22       -2.5980   -2.8640   -0.4310 ha        1 CRX      0.108000
     27 HO1         1.5290   -1.6530    0.9800 ho        1 CRX      0.283000
@<TRIPOS>BOND
     1    1    2 1   
     2    1   16 1   
     3    1   17 1   
     4    2    3 1   
     5    2    4 1   
     6    2   18 1   
     7    3   19 1   
     8    3   20 1   
     9    3   21 1   
    10    4    5 1   
    11    4    6 1   
    12    4   14 1   
    13    5    9 1   
    14    5   22 1   
    15    6    7 1   
    16    6   10 1   
    17    7    8 1   
    18    7    9 1   
    19    9   13 1   
    20   10   11 1   
    21   10   23 1   
    22   10   24 1   
    23   11   12 1   
    24   11   15 1   
    25   13   26 1   
    26   14   27 1   
@<TRIPOS>SUBSTRUCTURE
     1 CRX         1 TEMP              0 ****  ****    0 ROOT
