@<TRIPOS>MOLECULE
CRX
   27    27     1     0     0
SMALL
bcc


@<TRIPOS>ATOM
      1 N1          3.0280   -1.9080    4.0560 n3        1 CRX     -0.909800
      2 CA1         3.8780   -0.7490    3.9150 c3        1 CRX      0.210500
      3 CB1         5.2500   -1.1000    3.3480 c3        1 CRX     -0.084100
      4 C1          3.2460    0.4280    3.0420 c3        1 CRX      0.470400
      5 N2          3.0040   -0.0570    1.6310 nh        1 CRX     -0.729000
      6 N3          1.9130    0.8230    3.6080 n         1 CRX     -0.447800
      7 C2          0.9410    0.6840    2.5950 c         1 CRX      0.687700
      8 O2         -0.2790    0.8520    2.7160 o         1 CRX     -0.606500
      9 CA2         1.6280    0.1560    1.3450 ce        1 CRX     -0.009200
     10 CA3         1.8390    1.9120    4.5520 c3        1 CRX     -0.057000
     11 C3          1.9510    3.3650    4.0120 c         1 CRX      0.900600
     12 O3          2.4130    3.5570    2.8460 o         1 CRX     -0.831300
     13 CB2         0.9830   -0.0880    0.1980 c2        1 CRX     -0.228000
     14 O1          4.2370    1.4410    3.0570 oh        1 CRX     -0.649800
     15 OXT         1.5890    4.2780    4.7970 o         1 CRX     -0.831300
     16 HN11        2.8640   -2.3360    3.1660 hn        1 CRX      0.354300
     17 HN12        2.1480   -1.6520    4.4600 hn        1 CRX      0.354300
     18 HA1         4.0230   -0.3030    4.9440 h1        1 CRX      0.066700
     19 HB11        5.1690   -1.5710    2.3400 hc        1 CRX      0.038367
     20 HB12        5.8590   -0.1680    3.2610 hc        1 CRX      0.038367
     21 HB13        5.7740   -1.8120    4.0310 hc        1 CRX      0.038367
     22 HN2         3.6190    0.3980    0.9850 hn        1 CRX      0.389800
     23 HA31        2.6690    1.7650    5.2970 h1        1 CRX      0.057700
     24 HA32        0.8480    1.8190    5.0760 h1        1 CRX      0.057700
     25 HB21        1.4850   -0.4330   -0.7120 ha        1 CRX      0.120500
     26 HB22       -0.1020    0.0620    0.1350 ha        1 CRX      0.120500
     27 HO1         3.8480    2.3050    2.8070 ho        1 CRX      0.476000
@<TRIPOS>BOND
     1    1    2 1   
     2    1   16 1   
     3    1   17 1   
     4    2    3 1   
     5    2    4 1   
     6    2   18 1   
     7    3   19 1   
     8    3   20 1   
     9    3   21 1   
    10    4    5 1   
    11    4    6 1   
    12    4   14 1   
    13    5    9 1   
    14    5   22 1   
    15    6    7 1   
    16    6   10 1   
    17    7    8 2   
    18    7    9 1   
    19    9   13 2   
    20   10   11 1   
    21   10   23 1   
    22   10   24 1   
    23   11   12 1   
    24   11   15 1   
    25   13   25 1   
    26   13   26 1   
    27   14   27 1   
@<TRIPOS>SUBSTRUCTURE
     1 CRX         1 TEMP              0 ****  ****    0 ROOT
