@<TRIPOS>MOLECULE
CRY
   14    13     1     0     0
SMALL
bcc


@<TRIPOS>ATOM
      1 O1         -2.2050   -0.1400   -1.0150 oh        1 CRY     -0.605800
      2 O2         -0.7640    1.0090    1.0770 oh        1 CRY     -0.600800
      3 O3          1.6920   -0.1380    1.7410 oh        1 CRY     -0.605800
      4 C1         -0.7950   -0.1400   -1.0150 c3        1 CRY      0.109400
      5 C2         -0.2910   -0.1400    0.4110 c3        1 CRY      0.108100
      6 C3          1.2220   -0.1350    0.4110 c3        1 CRY      0.109400
      7 HO1        -2.5010   -0.2870   -1.8390 ho        1 CRY      0.404500
      8 HO2        -0.4690    1.7350    0.6600 ho        1 CRY      0.422000
      9 HO3         2.5680   -0.2820    1.7450 ho        1 CRY      0.404500
     10 H11        -0.4700   -0.9370   -1.4750 h1        1 CRY      0.052200
     11 H12        -0.4700    0.6570   -1.4750 h1        1 CRY      0.052200
     12 H21        -0.6140   -0.9380    0.8710 h1        1 CRY      0.045700
     13 H31         1.5500   -0.9300   -0.0510 h1        1 CRY      0.052200
     14 H32         1.5450    0.6640   -0.0460 h1        1 CRY      0.052200
@<TRIPOS>BOND
     1    1    4 1   
     2    1    7 1   
     3    2    5 1   
     4    2    8 1   
     5    3    6 1   
     6    3    9 1   
     7    4    5 1   
     8    4   10 1   
     9    4   11 1   
    10    5    6 1   
    11    5   12 1   
    12    6   13 1   
    13    6   14 1   
@<TRIPOS>SUBSTRUCTURE
     1 CRY         1 TEMP              0 ****  ****    0 ROOT
