@<TRIPOS>MOLECULE
CRY
   14    13     1     0     0
SMALL
bcc


@<TRIPOS>ATOM
      1 O1          1.3720   -0.5190    1.8920 oh        1 CRY     -0.605800
      2 O2         -1.1540    1.1650   -0.0520 oh        1 CRY     -0.600800
      3 O3         -0.0340   -0.3660   -2.1540 oh        1 CRY     -0.605800
      4 C1          0.6190    0.5680    1.3980 c3        1 CRY      0.109400
      5 C2         -0.1650    0.1680    0.1430 c3        1 CRY      0.108100
      6 C3          0.7670    0.0710   -1.0670 c3        1 CRY      0.109400
      7 HO1         0.7480   -1.1920    2.1900 ho        1 CRY      0.405000
      8 HO2        -1.5600    0.9830   -0.9100 ho        1 CRY      0.422000
      9 HO3         0.5460   -0.4310   -2.9200 ho        1 CRY      0.405000
     10 H11        -0.0940    0.9510    2.1750 h1        1 CRY      0.052200
     11 H12         1.3760    1.3610    1.1600 h1        1 CRY      0.052200
     12 H21        -0.6680   -0.8280    0.2990 h1        1 CRY      0.045700
     13 H31         1.2120    1.0750   -1.2990 h1        1 CRY      0.052200
     14 H32         1.5850   -0.6660   -0.8550 h1        1 CRY      0.052200
@<TRIPOS>BOND
     1    1    4 1   
     2    1    7 1   
     3    2    5 1   
     4    2    8 1   
     5    3    6 1   
     6    3    9 1   
     7    4    5 1   
     8    4   10 1   
     9    4   11 1   
    10    5    6 1   
    11    5   12 1   
    12    6   13 1   
    13    6   14 1   
@<TRIPOS>SUBSTRUCTURE
     1 CRY         1 TEMP              0 ****  ****    0 ROOT
