@<TRIPOS>MOLECULE
CRY
   14    13     1     0     0
SMALL
bcc


@<TRIPOS>ATOM
      1 O1          0.0260   -0.0520    0.3210 oh        1 CRY     -0.603800
      2 O2          1.7800   -1.0080    2.2640 oh        1 CRY     -0.612800
      3 O3          4.2440    0.3230    2.5470 oh        1 CRY     -0.603800
      4 C1          1.4230   -0.0140    0.0760 c3        1 CRY      0.115900
      5 C2          2.0910    0.1100    1.4460 c3        1 CRY      0.100100
      6 C3          3.6150    0.1240    1.3000 c3        1 CRY      0.115900
      7 HO1        -0.4030   -0.2030   -0.5290 ho        1 CRY      0.414000
      8 HO2         0.8170   -1.0650    2.3010 ho        1 CRY      0.425000
      9 HO3         3.9160   -0.3660    3.1420 ho        1 CRY      0.414000
     10 H11         1.7520   -0.9570   -0.4350 h1        1 CRY      0.043450
     11 H12         1.6800    0.8710   -0.5630 h1        1 CRY      0.043450
     12 H21         1.7400    1.0500    1.9570 h1        1 CRY      0.061700
     13 H31         3.9340    0.9930    0.6660 h1        1 CRY      0.043450
     14 H32         3.9630   -0.8390    0.8390 h1        1 CRY      0.043450
@<TRIPOS>BOND
     1    1    4 1   
     2    1    7 1   
     3    2    5 1   
     4    2    8 1   
     5    3    6 1   
     6    3    9 1   
     7    4    5 1   
     8    4   10 1   
     9    4   11 1   
    10    5    6 1   
    11    5   12 1   
    12    6   13 1   
    13    6   14 1   
@<TRIPOS>SUBSTRUCTURE
     1 CRY         1 TEMP              0 ****  ****    0 ROOT
