@<TRIPOS>MOLECULE
CRY
   14    13     1     0     0
SMALL
bcc


@<TRIPOS>ATOM
      1 O1          0.1850   -0.3730    0.0080 oh        1 CRY     -0.598800
      2 O2          1.4800   -0.7420    2.1740 oh        1 CRY     -0.615800
      3 O3          4.1810   -0.0240    2.5550 oh        1 CRY     -0.598800
      4 C1          1.4260    0.3030   -0.0120 c3        1 CRY      0.118400
      5 C2          2.0810    0.2690    1.3740 c3        1 CRY      0.059100
      6 C3          3.5670   -0.0900    1.2870 c3        1 CRY      0.118400
      7 HO1         0.3700   -1.3050    0.1880 ho        1 CRY      0.413500
      8 HO2         0.5630   -0.4740    2.3190 ho        1 CRY      0.420000
      9 HO3         3.6880   -0.6160    3.1390 ho        1 CRY      0.413500
     10 H11         2.1030   -0.1480   -0.7850 h1        1 CRY      0.053200
     11 H12         1.1740    1.3550   -0.3080 h1        1 CRY      0.053200
     12 H21         1.9660    1.2650    1.8850 h1        1 CRY      0.056700
     13 H31         4.1070    0.6640    0.6570 h1        1 CRY      0.053200
     14 H32         3.6870   -1.1170    0.8500 h1        1 CRY      0.053200
@<TRIPOS>BOND
     1    1    4 1   
     2    1    7 1   
     3    2    5 1   
     4    2    8 1   
     5    3    6 1   
     6    3    9 1   
     7    4    5 1   
     8    4   10 1   
     9    4   11 1   
    10    5    6 1   
    11    5   12 1   
    12    6   13 1   
    13    6   14 1   
@<TRIPOS>SUBSTRUCTURE
     1 CRY         1 TEMP              0 ****  ****    0 ROOT
