@<TRIPOS>MOLECULE
CRZ
   33    35     1     0     0
SMALL
bcc


@<TRIPOS>ATOM
      1 O19         0.2120    0.1090    0.2630 o         1 CRZ     -0.844800
      2 C1          1.2310    0.7090   -0.1820 c         1 CRZ      0.911600
      3 O18         1.5880    1.8680    0.1740 o         1 CRZ     -0.844800
      4 C2          2.0730   -0.0150   -1.2520 c3        1 CRZ     -0.201400
      5 C3          3.5480    0.0960   -0.9530 c3        1 CRZ     -0.088400
      6 C4          4.3560   -0.1870   -2.2190 c3        1 CRZ      0.038300
      7 N5          5.7880   -0.1460   -2.0790 na        1 CRZ     -0.065300
      8 C6          6.5470    1.0070   -1.8180 ca        1 CRZ      0.010800
      9 C17         6.1450    2.3470   -1.7280 ca        1 CRZ     -0.149500
     10 C7          7.9390    0.6460   -1.6510 cp        1 CRZ     -0.090500
     11 C14         8.8870    1.6340   -1.4160 ca        1 CRZ     -0.082500
     12 C15         8.4730    2.9610   -1.3390 ca        1 CRZ     -0.179000
     13 C16         7.1230    3.3060   -1.4900 ca        1 CRZ     -0.108000
     14 C8          8.0070   -0.7960   -1.7780 cp        1 CRZ     -0.090500
     15 C9          6.6500   -1.2500   -2.0200 ca        1 CRZ      0.010800
     16 C10         6.3850   -2.6180   -2.1800 ca        1 CRZ     -0.149500
     17 C13         9.0450   -1.7150   -1.7130 ca        1 CRZ     -0.082500
     18 C12         8.7620   -3.0680   -1.8790 ca        1 CRZ     -0.179000
     19 C11         7.4520   -3.5060   -2.1060 ca        1 CRZ     -0.108000
     20 H21         1.8380    0.4620   -2.2370 hc        1 CRZ      0.022200
     21 H22         1.7630   -1.0880   -1.3060 hc        1 CRZ      0.022200
     22 H31         3.7650    1.1320   -0.5750 hc        1 CRZ      0.060200
     23 H32         3.8290   -0.6240   -0.1420 hc        1 CRZ      0.060200
     24 H41         4.0780    0.5790   -3.0010 h1        1 CRZ      0.048200
     25 H42         4.0810   -1.2060   -2.6130 h1        1 CRZ      0.048200
     26 H17         5.0840    2.6240   -1.8210 ha        1 CRZ      0.150500
     27 H14         9.9450    1.3660   -1.2890 ha        1 CRZ      0.123000
     28 H15         9.2120    3.7510   -1.1510 ha        1 CRZ      0.118000
     29 H16         6.8260    4.3620   -1.4090 ha        1 CRZ      0.123500
     30 H10         5.3620   -2.9800   -2.3500 ha        1 CRZ      0.150500
     31 H13        10.0740   -1.3740   -1.5310 ha        1 CRZ      0.123000
     32 H12         9.5750   -3.8050   -1.8270 ha        1 CRZ      0.118000
     33 H11         7.2590   -4.5830   -2.2260 ha        1 CRZ      0.123500
@<TRIPOS>BOND
     1    1    2 1   
     2    2    3 1   
     3    2    4 1   
     4    4    5 1   
     5    4   20 1   
     6    4   21 1   
     7    5    6 1   
     8    5   22 1   
     9    5   23 1   
    10    6    7 1   
    11    6   24 1   
    12    6   25 1   
    13    7    8 1   
    14    7   15 1   
    15    8    9 ar  
    16    8   10 ar  
    17    9   13 ar  
    18    9   26 1   
    19   10   11 ar  
    20   10   14 1   
    21   11   12 ar  
    22   11   27 1   
    23   12   13 ar  
    24   12   28 1   
    25   13   29 1   
    26   14   15 ar  
    27   14   17 ar  
    28   15   16 ar  
    29   16   19 ar  
    30   16   30 1   
    31   17   18 ar  
    32   17   31 1   
    33   18   19 ar  
    34   18   32 1   
    35   19   33 1   
@<TRIPOS>SUBSTRUCTURE
     1 CRZ         1 TEMP              0 ****  ****    0 ROOT
