@<TRIPOS>MOLECULE
CRZ
   33    35     1     0     0
SMALL
bcc


@<TRIPOS>ATOM
      1 O19        -0.0850    0.4070    5.6400 o         1 CRZ     -0.844800
      2 C1         -0.6870    0.1870    4.5530 c         1 CRZ      0.911600
      3 O18        -1.8530    0.5970    4.2870 o         1 CRZ     -0.844800
      4 C2          0.0420   -0.6660    3.4940 c3        1 CRZ     -0.201400
      5 C3         -0.0840   -0.0540    2.1190 c3        1 CRZ     -0.088400
      6 C4          0.2060   -1.1100    1.0540 c3        1 CRZ      0.038300
      7 N5          0.1520   -0.6630   -0.3130 na        1 CRZ     -0.065300
      8 C6         -1.0090   -0.2560   -0.9910 ca        1 CRZ      0.010800
      9 C17        -2.3470   -0.2720   -0.5710 ca        1 CRZ     -0.149500
     10 C7         -0.6610    0.2140   -2.3150 cp        1 CRZ     -0.090500
     11 C14        -1.6590    0.6380   -3.1830 ca        1 CRZ     -0.082500
     12 C15        -2.9830    0.6070   -2.7550 ca        1 CRZ     -0.179000
     13 C16        -3.3160    0.1620   -1.4680 ca        1 CRZ     -0.108000
     14 C8          0.7810    0.1210   -2.4170 cp        1 CRZ     -0.090500
     15 C9          1.2490   -0.4050   -1.1480 ca        1 CRZ      0.010800
     16 C10         2.6200   -0.6030   -0.9310 ca        1 CRZ     -0.149500
     17 C13         1.6910    0.4210   -3.4210 ca        1 CRZ     -0.082500
     18 C12         3.0480    0.2130   -3.1880 ca        1 CRZ     -0.179000
     19 C11         3.4990   -0.2880   -1.9610 ca        1 CRZ     -0.108000
     20 H21        -0.4230   -1.6840    3.5110 hc        1 CRZ      0.022200
     21 H22         1.1180   -0.7720    3.7780 hc        1 CRZ      0.022200
     22 H31         0.6250    0.8070    2.0180 hc        1 CRZ      0.060200
     23 H32        -1.1260    0.3490    1.9960 hc        1 CRZ      0.060200
     24 H41        -0.5490   -1.9440    1.1600 h1        1 CRZ      0.048200
     25 H42         1.2320   -1.5420    1.2310 h1        1 CRZ      0.048200
     26 H17        -2.6150   -0.5970    0.4460 ha        1 CRZ      0.150500
     27 H14        -1.4010    0.9950   -4.1900 ha        1 CRZ      0.123000
     28 H15        -3.7820    0.9420   -3.4320 ha        1 CRZ      0.118000
     29 H16        -4.3710    0.1650   -1.1550 ha        1 CRZ      0.123500
     30 H10         2.9920   -0.9870    0.0280 ha        1 CRZ      0.150500
     31 H13         1.3400    0.8190   -4.3830 ha        1 CRZ      0.123000
     32 H12         3.7780    0.4500   -3.9750 ha        1 CRZ      0.118000
     33 H11         4.5790   -0.4350   -1.8050 ha        1 CRZ      0.123500
@<TRIPOS>BOND
     1    1    2 1   
     2    2    3 1   
     3    2    4 1   
     4    4    5 1   
     5    4   20 1   
     6    4   21 1   
     7    5    6 1   
     8    5   22 1   
     9    5   23 1   
    10    6    7 1   
    11    6   24 1   
    12    6   25 1   
    13    7    8 1   
    14    7   15 1   
    15    8    9 ar  
    16    8   10 ar  
    17    9   13 ar  
    18    9   26 1   
    19   10   11 ar  
    20   10   14 1   
    21   11   12 ar  
    22   11   27 1   
    23   12   13 ar  
    24   12   28 1   
    25   13   29 1   
    26   14   15 ar  
    27   14   17 ar  
    28   15   16 ar  
    29   16   19 ar  
    30   16   30 1   
    31   17   18 ar  
    32   17   31 1   
    33   18   19 ar  
    34   18   32 1   
    35   19   33 1   
@<TRIPOS>SUBSTRUCTURE
     1 CRZ         1 TEMP              0 ****  ****    0 ROOT
