@<TRIPOS>MOLECULE
CRZ
   33    35     1     0     0
SMALL
bcc


@<TRIPOS>ATOM
      1 O19         0.2180   -0.0850    0.2840 o         1 CRZ     -0.844800
      2 C1          1.2310   -0.6880   -0.1690 c         1 CRZ      0.911600
      3 O18         1.5820   -1.8530    0.1750 o         1 CRZ     -0.844800
      4 C2          2.0740    0.0390   -1.2370 c3        1 CRZ     -0.201400
      5 C3          3.5500   -0.0850   -0.9450 c3        1 CRZ     -0.088400
      6 C4          4.3550    0.2030   -2.2120 c3        1 CRZ      0.038300
      7 N5          5.7870    0.1510   -2.0780 na        1 CRZ     -0.065300
      8 C6          6.6570    1.2480   -2.0130 ca        1 CRZ      0.010800
      9 C17         6.4010    2.6190   -2.1620 ca        1 CRZ     -0.149500
     10 C7          8.0110    0.7820   -1.7810 cp        1 CRZ     -0.090500
     11 C14         9.0560    1.6940   -1.7120 ca        1 CRZ     -0.082500
     12 C15         8.7820    3.0500   -1.8670 ca        1 CRZ     -0.179000
     13 C16         7.4740    3.4990   -2.0860 ca        1 CRZ     -0.108000
     14 C8          7.9340   -0.6590   -1.6640 cp        1 CRZ     -0.090500
     15 C9          6.5390   -1.0100   -1.8280 ca        1 CRZ      0.010800
     16 C10         6.1270   -2.3480   -1.7470 ca        1 CRZ     -0.149500
     17 C13         8.8760   -1.6560   -1.4400 ca        1 CRZ     -0.082500
     18 C12         8.4530   -2.9810   -1.3720 ca        1 CRZ     -0.179000
     19 C11         7.0990   -3.3150   -1.5200 ca        1 CRZ     -0.108000
     20 H21         1.7720    1.1150   -1.2810 hc        1 CRZ      0.022200
     21 H22         1.8320   -0.4280   -2.2250 hc        1 CRZ      0.022200
     22 H31         3.8390    0.6260   -0.1290 hc        1 CRZ      0.060200
     23 H32         3.7610   -1.1260   -0.5760 hc        1 CRZ      0.060200
     24 H41         4.0850    1.2270   -2.5960 h1        1 CRZ      0.048200
     25 H42         4.0680   -0.5550   -2.9990 h1        1 CRZ      0.048200
     26 H17         5.3800    2.9890   -2.3250 ha        1 CRZ      0.150500
     27 H14        10.0830    1.3440   -1.5370 ha        1 CRZ      0.123000
     28 H15         9.6010    3.7810   -1.8120 ha        1 CRZ      0.118000
     29 H16         7.2880    4.5780   -2.1960 ha        1 CRZ      0.123500
     30 H10         5.0640   -2.6160   -1.8380 ha        1 CRZ      0.150500
     31 H13         9.9360   -1.3970   -1.3160 ha        1 CRZ      0.123000
     32 H12         9.1870   -3.7780   -1.1930 ha        1 CRZ      0.118000
     33 H11         6.7950   -4.3700   -1.4460 ha        1 CRZ      0.123500
@<TRIPOS>BOND
     1    1    2 1   
     2    2    3 1   
     3    2    4 1   
     4    4    5 1   
     5    4   20 1   
     6    4   21 1   
     7    5    6 1   
     8    5   22 1   
     9    5   23 1   
    10    6    7 1   
    11    6   24 1   
    12    6   25 1   
    13    7    8 1   
    14    7   15 1   
    15    8    9 ar  
    16    8   10 ar  
    17    9   13 ar  
    18    9   26 1   
    19   10   11 ar  
    20   10   14 1   
    21   11   12 ar  
    22   11   27 1   
    23   12   13 ar  
    24   12   28 1   
    25   13   29 1   
    26   14   15 ar  
    27   14   17 ar  
    28   15   16 ar  
    29   16   19 ar  
    30   16   30 1   
    31   17   18 ar  
    32   17   31 1   
    33   18   19 ar  
    34   18   32 1   
    35   19   33 1   
@<TRIPOS>SUBSTRUCTURE
     1 CRZ         1 TEMP              0 ****  ****    0 ROOT
