@<TRIPOS>MOLECULE
CS0
   20    19     1     0     0
SMALL
bcc


@<TRIPOS>ATOM
      1 N           2.0370    1.1800   -0.0870 n3        1 CS0     -0.886800
      2 CA          0.7540    0.4840   -0.1010 c3        1 CS0      0.018500
      3 C           0.8340   -0.9510    0.5200 c         1 CS0      0.886600
      4 O           1.9170   -1.5870    0.4040 o         1 CS0     -0.844300
      5 CB          0.1810    0.3740   -1.5140 c3        1 CS0      0.039700
      6 SG         -1.5230    0.8620   -1.6800 ss        1 CS0     -0.389200
      7 C1         -2.4080   -0.2550   -0.6320 c3        1 CS0     -0.050300
      8 C2         -2.8570    0.4040    0.6580 c3        1 CS0      0.159400
      9 O2         -2.9890   -0.5340    1.7070 oh        1 CS0     -0.643800
     10 HN          2.3450    1.2260    0.8680 hn        1 CS0      0.333300
     11 HNA         2.7060    0.6080   -0.5760 hn        1 CS0      0.333300
     12 HA          0.0410    1.0890    0.5300 h1        1 CS0      0.057700
     13 OXT        -0.1900   -1.3960    1.1170 o         1 CS0     -0.844300
     14 HB          0.7010    1.0590   -2.2300 h1        1 CS0      0.064700
     15 HBA         0.2980   -0.6750   -1.8780 h1        1 CS0      0.064700
     16 H1         -3.2880   -0.6170   -1.2120 h1        1 CS0      0.090700
     17 H1A        -1.7530   -1.1340   -0.3820 h1        1 CS0      0.090700
     18 H2         -2.1270    1.2060    0.9560 h1        1 CS0      0.031200
     19 H2A        -3.8770    0.8590    0.5480 h1        1 CS0      0.031200
     20 HO2        -2.1230   -0.9650    1.8140 ho        1 CS0      0.454000
@<TRIPOS>BOND
     1    1    2 1   
     2    1   10 1   
     3    1   11 1   
     4    2    3 1   
     5    2    5 1   
     6    2   12 1   
     7    3    4 1   
     8    3   13 1   
     9    5    6 1   
    10    5   14 1   
    11    5   15 1   
    12    6    7 1   
    13    7    8 1   
    14    7   16 1   
    15    7   17 1   
    16    8    9 1   
    17    8   18 1   
    18    8   19 1   
    19    9   20 1   
@<TRIPOS>SUBSTRUCTURE
     1 CS0         1 TEMP              0 ****  ****    0 ROOT
