@<TRIPOS>MOLECULE
CS0
   20    19     1     0     0
SMALL
bcc


@<TRIPOS>ATOM
      1 N          -3.0040   -1.1950    0.9560 n3        1 CS0     -0.886800
      2 CA         -1.5810   -1.1920    0.9800 c3        1 CS0      0.018500
      3 C          -1.1010   -1.1700    2.4130 c         1 CS0      0.886600
      4 O          -1.5670   -0.3240    3.2200 o         1 CS0     -0.844300
      5 CB         -1.0690    0.0330    0.2580 c3        1 CS0      0.039700
      6 SG          0.6410   -0.1960   -0.1540 ss        1 CS0     -0.389200
      7 C1          1.1740    1.1200   -1.2150 c3        1 CS0     -0.050300
      8 C2          2.6610    0.9940   -1.4670 c3        1 CS0      0.159400
      9 O2          3.0760    2.0100   -2.3530 oh        1 CS0     -0.643800
     10 HN         -3.3170   -1.8330    1.5330 hn        1 CS0      0.333300
     11 HNA        -3.2950   -1.3810    0.1080 hn        1 CS0      0.333300
     12 HA         -1.2460   -1.9960    0.5360 h1        1 CS0      0.057700
     13 OXT        -0.2360   -1.9990    2.7990 o         1 CS0     -0.844300
     14 HB         -1.5860    0.1700   -0.5610 h1        1 CS0      0.064700
     15 HBA        -1.1620    0.8160    0.8370 h1        1 CS0      0.064700
     16 H1          0.6940    1.0680   -2.0660 h1        1 CS0      0.090700
     17 H1A         0.9880    1.9800   -0.7880 h1        1 CS0      0.090700
     18 H2          2.8520    0.1180   -1.8610 h1        1 CS0      0.031200
     19 H2A         3.1440    1.0830   -0.6190 h1        1 CS0      0.031200
     20 HO2         3.9340    1.8960   -2.5540 ho        1 CS0      0.454000
@<TRIPOS>BOND
     1    1    2 1   
     2    1   10 1   
     3    1   11 1   
     4    2    3 1   
     5    2    5 1   
     6    2   12 1   
     7    3    4 1   
     8    3   13 1   
     9    5    6 1   
    10    5   14 1   
    11    5   15 1   
    12    6    7 1   
    13    7    8 1   
    14    7   16 1   
    15    7   17 1   
    16    8    9 1   
    17    8   18 1   
    18    8   19 1   
    19    9   20 1   
@<TRIPOS>SUBSTRUCTURE
     1 CS0         1 TEMP              0 ****  ****    0 ROOT
