@<TRIPOS>MOLECULE
CS1
   26    26     1     0     0
SMALL
bcc


@<TRIPOS>ATOM
      1 O           3.8620   -1.3830    1.7500 o         1 CS1     -0.829300
      2 C           3.6260   -0.5570    0.8250 c         1 CS1      0.893600
      3 CA          2.1820   -0.5890    0.1900 c3        1 CS1      0.007500
      4 N           1.1990   -1.2500    1.0440 n3        1 CS1     -0.905800
      5 CB          1.7870    0.8210   -0.2040 c3        1 CS1      0.029700
      6 SG          0.8590    1.0830   -1.6900 ss        1 CS1     -0.257100
      7 SD         -0.8020   -0.1920   -1.8930 ss        1 CS1     -0.127900
      8 CE         -2.0240    0.3640   -0.8540 ca        1 CS1     -0.106100
      9 C5         -2.7210    1.5440   -1.1300 ca        1 CS1     -0.036000
     10 C4         -3.7430    1.9910   -0.3020 ca        1 CS1     -0.213000
     11 C3         -4.0760    1.2510    0.8360 ca        1 CS1     -0.071000
     12 C2         -3.4090    0.0760    1.1380 ca        1 CS1     -0.220000
     13 C1         -2.3750   -0.4070    0.2890 ca        1 CS1      0.213600
     14 N1         -1.7890   -1.6410    0.5270 nh        1 CS1     -0.806200
     15 OXT         4.4540    0.2700    0.3610 o         1 CS1     -0.829300
     16 HA          2.2780   -1.2140   -0.7460 h1        1 CS1      0.063700
     17 H           1.6140   -2.1190    1.3420 hn        1 CS1      0.336800
     18 H2          1.0810   -0.6970    1.8750 hn        1 CS1      0.336800
     19 HB2         1.2840    1.3540    0.6360 h1        1 CS1      0.092700
     20 HB3         2.7360    1.3780   -0.4690 h1        1 CS1      0.092700
     21 H5         -2.4370    2.1300   -2.0200 ha        1 CS1      0.138000
     22 H4         -4.2790    2.9200   -0.5330 ha        1 CS1      0.122000
     23 H3         -4.8750    1.6090    1.5030 ha        1 CS1      0.116000
     24 HC2        -3.6800   -0.4900    2.0400 ha        1 CS1      0.125000
     25 HN11       -0.9630   -1.8180   -0.0170 hn        1 CS1      0.416800
     26 HN12       -1.6880   -1.8740    1.4900 hn        1 CS1      0.416800
@<TRIPOS>BOND
     1    1    2 1   
     2    2    3 1   
     3    2   15 1   
     4    3    4 1   
     5    3    5 1   
     6    3   16 1   
     7    4   17 1   
     8    4   18 1   
     9    5    6 1   
    10    5   19 1   
    11    5   20 1   
    12    6    7 1   
    13    7    8 1   
    14    8    9 ar  
    15    8   13 ar  
    16    9   10 ar  
    17    9   21 1   
    18   10   11 ar  
    19   10   22 1   
    20   11   12 ar  
    21   11   23 1   
    22   12   13 ar  
    23   12   24 1   
    24   13   14 1   
    25   14   25 1   
    26   14   26 1   
@<TRIPOS>SUBSTRUCTURE
     1 CS1         1 TEMP              0 ****  ****    0 ROOT
