@<TRIPOS>MOLECULE
CS2
   24    23     1     0     0
SMALL
bcc


@<TRIPOS>ATOM
      1 C2         -0.2930   -0.8570   -1.9960 c3        1 CS2     -0.015900
      2 C3          0.1960   -0.8660   -0.5660 c3        1 CS2      0.119100
      3 O1A         0.0700   -3.1530   -2.6060 o         1 CS2     -0.829300
      4 C1          0.4030   -1.9510   -2.7740 c         1 CS2      0.892600
      5 O1B         1.3160   -1.6590   -3.5900 o         1 CS2     -0.829300
      6 O2         -1.6830   -1.0770   -2.0180 oh        1 CS2     -0.632800
      7 O3          1.5340   -1.3050   -0.5300 oh        1 CS2     -0.666800
      8 C4          0.1090    0.5310    0.0060 c3        1 CS2      0.146100
      9 O4          1.3030    1.2250   -0.2680 oh        1 CS2     -0.619800
     10 C5         -0.0960    0.4510    1.5010 c3        1 CS2      0.114100
     11 O5         -1.3450   -0.1400    1.7720 oh        1 CS2     -0.593800
     12 C6         -0.0590    1.8430    2.0900 c3        1 CS2      0.091400
     13 O6         -0.3680    1.7810    3.4640 oh        1 CS2     -0.621800
     14 H2         -0.0940    0.0100   -2.4030 h1        1 CS2      0.052700
     15 H3         -0.3590   -1.4710   -0.0350 h1        1 CS2      0.058700
     16 HO2        -2.0150   -0.7990   -2.7940 ho        1 CS2      0.427000
     17 HO3         1.5870   -2.0560   -0.0580 ho        1 CS2      0.463000
     18 H4         -0.6430    1.0030   -0.4020 h1        1 CS2      0.097700
     19 HO4         1.1170    1.9690   -0.7190 ho        1 CS2      0.419000
     20 H5          0.6130   -0.0900    1.8990 h1        1 CS2      0.058700
     21 HO5        -1.3140   -0.5500    2.5600 ho        1 CS2      0.401000
     22 H61         0.8370    2.2230    1.9730 h1        1 CS2      0.038700
     23 H62        -0.7150    2.4090    1.6320 h1        1 CS2      0.038700
     24 HO6        -0.1010    2.5300    3.8620 ho        1 CS2      0.391000
@<TRIPOS>BOND
     1    1    2 1   
     2    1    4 1   
     3    1    6 1   
     4    1   14 1   
     5    2    7 1   
     6    2    8 1   
     7    2   15 1   
     8    3    4 1   
     9    4    5 1   
    10    6   16 1   
    11    7   17 1   
    12    8    9 1   
    13    8   10 1   
    14    8   18 1   
    15    9   19 1   
    16   10   11 1   
    17   10   12 1   
    18   10   20 1   
    19   11   21 1   
    20   12   13 1   
    21   12   22 1   
    22   12   23 1   
    23   13   24 1   
@<TRIPOS>SUBSTRUCTURE
     1 CS2         1 TEMP              0 ****  ****    0 ROOT
