@<TRIPOS>MOLECULE
CS2
   24    23     1     0     0
SMALL
bcc


@<TRIPOS>ATOM
      1 C2          1.5500   -0.6320   -0.1640 c3        1 CS2     -0.020900
      2 C3          0.3560    0.3350   -0.1180 c3        1 CS2      0.121100
      3 O1A         3.2340    1.0360   -0.6310 o         1 CS2     -0.826300
      4 C1          2.8810    0.1020    0.1420 c         1 CS2      0.894600
      5 O1B         3.5290   -0.2950    1.1500 o         1 CS2     -0.826300
      6 O2          1.3080   -1.6820    0.7570 oh        1 CS2     -0.645800
      7 O3          0.4610    1.3830   -1.0670 oh        1 CS2     -0.658800
      8 C4         -0.9540   -0.4150   -0.4380 c3        1 CS2      0.108100
      9 O4         -1.2210   -0.4780   -1.8250 oh        1 CS2     -0.613800
     10 C5         -2.1480    0.2270    0.2960 c3        1 CS2      0.111100
     11 O5         -1.9430    0.2630    1.6980 oh        1 CS2     -0.595800
     12 C6         -3.4310   -0.5520   -0.0240 c3        1 CS2      0.098400
     13 O6         -4.5140    0.3640    0.0320 oh        1 CS2     -0.598800
     14 H2          1.6060   -1.1000   -1.1840 h1        1 CS2      0.053700
     15 H3          0.2820    0.7880    0.9100 h1        1 CS2      0.055700
     16 HO2         1.9870   -1.6150    1.4500 ho        1 CS2      0.431000
     17 HO3         1.4070    1.5760   -1.1950 ho        1 CS2      0.466000
     18 H4         -0.8520   -1.4910   -0.1120 h1        1 CS2      0.081700
     19 HO4        -0.9510    0.3640   -2.2170 ho        1 CS2      0.424000
     20 H5         -2.2660    1.3040   -0.0080 h1        1 CS2      0.095700
     21 HO5        -1.4710   -0.5430    1.9430 ho        1 CS2      0.401000
     22 H61        -3.3610   -0.9980   -1.0520 h1        1 CS2      0.030700
     23 H62        -3.5860   -1.3680    0.7310 h1        1 CS2      0.030700
     24 HO6        -5.3000   -0.1330   -0.2180 ho        1 CS2      0.383000
@<TRIPOS>BOND
     1    1    2 1   
     2    1    4 1   
     3    1    6 1   
     4    1   14 1   
     5    2    7 1   
     6    2    8 1   
     7    2   15 1   
     8    3    4 1   
     9    4    5 1   
    10    6   16 1   
    11    7   17 1   
    12    8    9 1   
    13    8   10 1   
    14    8   18 1   
    15    9   19 1   
    16   10   11 1   
    17   10   12 1   
    18   10   20 1   
    19   11   21 1   
    20   12   13 1   
    21   12   22 1   
    22   12   23 1   
    23   13   24 1   
@<TRIPOS>SUBSTRUCTURE
     1 CS2         1 TEMP              0 ****  ****    0 ROOT
