@<TRIPOS>MOLECULE
CS2
   24    23     1     0     0
SMALL
bcc


@<TRIPOS>ATOM
      1 C2          1.3860    0.2570    0.0670 c3        1 CS2     -0.032900
      2 C3          2.0210    0.2790    1.4680 c3        1 CS2      0.125100
      3 O1A         3.4840   -0.2770   -0.9920 o         1 CS2     -0.825800
      4 C1          2.2670   -0.5940   -0.8870 c         1 CS2      0.896600
      5 O1B         1.6970   -1.5480   -1.4840 o         1 CS2     -0.825800
      6 O2          0.0600   -0.2270    0.1510 oh        1 CS2     -0.648800
      7 O3          3.1530    1.1320    1.4760 oh        1 CS2     -0.641800
      8 C4          1.0280    0.7410    2.5440 c3        1 CS2      0.125100
      9 O4          0.3420    1.9410    2.2180 oh        1 CS2     -0.624800
     10 C5          1.6990    0.9730    3.9050 c3        1 CS2      0.118100
     11 O5          0.7180    1.0800    4.9270 oh        1 CS2     -0.621800
     12 C6          2.5970    2.2140    3.9260 c3        1 CS2      0.106400
     13 O6          2.5390    2.8810    5.1750 oh        1 CS2     -0.621800
     14 H2          1.3280    1.3080   -0.3300 h1        1 CS2      0.047700
     15 H3          2.3530   -0.7650    1.7370 h1        1 CS2      0.036700
     16 HO2         0.0230   -1.0460   -0.3730 ho        1 CS2      0.435000
     17 HO3         3.6670    0.9140    0.6780 ho        1 CS2      0.452000
     18 H4          0.2610   -0.0820    2.6570 h1        1 CS2      0.052700
     19 HO4        -0.0240    1.8140    1.3320 ho        1 CS2      0.427000
     20 H5          2.2880    0.0540    4.1790 h1        1 CS2      0.068700
     21 HO5         0.1700    1.8430    4.6990 ho        1 CS2      0.416000
     22 H61         2.2540    2.9680    3.1680 h1        1 CS2      0.069200
     23 H62         3.6570    1.9210    3.7010 h1        1 CS2      0.069200
     24 HO6         2.4500    2.2070    5.8610 ho        1 CS2      0.398000
@<TRIPOS>BOND
     1    1    2 1   
     2    1    4 1   
     3    1    6 1   
     4    1   14 1   
     5    2    7 1   
     6    2    8 1   
     7    2   15 1   
     8    3    4 1   
     9    4    5 1   
    10    6   16 1   
    11    7   17 1   
    12    8    9 1   
    13    8   10 1   
    14    8   18 1   
    15    9   19 1   
    16   10   11 1   
    17   10   12 1   
    18   10   20 1   
    19   11   21 1   
    20   12   13 1   
    21   12   22 1   
    22   12   23 1   
    23   13   24 1   
@<TRIPOS>SUBSTRUCTURE
     1 CS2         1 TEMP              0 ****  ****    0 ROOT
