@<TRIPOS>MOLECULE
CS3
   28    28     1     0     0
SMALL
bcc


@<TRIPOS>ATOM
      1 OXT         2.2660    3.1490    0.1150 o         1 CS3     -0.847800
      2 C           1.5460    2.1680    0.4640 c         1 CS3      0.875600
      3 CA          2.2610    0.8870    0.9840 c3        1 CS3      0.039500
      4 N           1.3740   -0.1730    1.4350 n3        1 CS3     -0.897800
      5 CB          3.2950    0.4340   -0.0450 c3        1 CS3      0.023700
      6 SG          2.7070   -0.6240   -1.3530 ss        1 CS3     -0.376200
      7 C1H         2.4380    0.4090   -2.7670 c3        1 CS3      0.022700
      8 C1I         1.5610    1.6010   -2.5050 c3        1 CS3     -0.214400
      9 C1L         0.9940    2.2180   -3.7470 c         1 CS3      0.627700
     10 O1C         1.1940    1.7600   -4.8840 o         1 CS3     -0.593100
     11 C1M         0.1790    3.4100   -3.5200 cc        1 CS3     -0.208700
     12 C1G        -0.0910    3.9670   -2.2790 cd        1 CS3     -0.070000
     13 S1K        -0.5630    4.2980   -4.7560 ss        1 CS3     -0.001800
     14 C1F        -1.2350    5.4020   -3.7080 cc        1 CS3     -0.176100
     15 C1E        -0.9160    5.1280   -2.3950 cd        1 CS3     -0.170000
     16 O           0.2810    2.1870    0.3930 o         1 CS3     -0.847800
     17 HA          2.8430    1.2180    1.8980 h1        1 CS3      0.051700
     18 H           1.1310   -0.7540    0.6500 hn        1 CS3      0.344800
     19 H2          0.5220    0.2570    1.7560 hn        1 CS3      0.344800
     20 HB2         4.0750   -0.1890    0.4580 h1        1 CS3      0.070200
     21 HB3         3.7730    1.3490   -0.4740 h1        1 CS3      0.070200
     22 H1H1        1.9630   -0.2730   -3.5170 h1        1 CS3      0.063200
     23 H1H2        3.4190    0.7450   -3.1820 h1        1 CS3      0.063200
     24 H1I1        2.1430    2.3950   -1.9470 hc        1 CS3      0.127200
     25 H1I2        0.7050    1.3230   -1.8230 hc        1 CS3      0.127200
     26 H1G         0.2720    3.5790   -1.3040 ha        1 CS3      0.246000
     27 H1F        -1.8500    6.2330   -4.0460 h4        1 CS3      0.153000
     28 H1E        -1.2390    5.7080   -1.5280 ha        1 CS3      0.153000
@<TRIPOS>BOND
     1    1    2 1   
     2    2    3 1   
     3    2   16 1   
     4    3    4 1   
     5    3    5 1   
     6    3   17 1   
     7    4   18 1   
     8    4   19 1   
     9    5    6 1   
    10    5   20 1   
    11    5   21 1   
    12    6    7 1   
    13    7    8 1   
    14    7   22 1   
    15    7   23 1   
    16    8    9 1   
    17    8   24 1   
    18    8   25 1   
    19    9   10 2   
    20    9   11 1   
    21   11   12 2   
    22   11   13 1   
    23   12   15 1   
    24   12   26 1   
    25   13   14 1   
    26   14   15 2   
    27   14   27 1   
    28   15   28 1   
@<TRIPOS>SUBSTRUCTURE
     1 CS3         1 TEMP              0 ****  ****    0 ROOT
