@<TRIPOS>MOLECULE
CS4
   31    31     1     0     0
SMALL
bcc


@<TRIPOS>ATOM
      1 OXT         1.5950    2.5850    1.6200 o         1 CS4     -0.848800
      2 C           1.2300    1.4880    1.1040 c         1 CS4      0.872600
      3 CA          2.2560    0.3190    1.0620 c3        1 CS4      0.037500
      4 N           1.7920   -0.8850    0.3920 n3        1 CS4     -0.896800
      5 CB          3.5790    0.8500    0.5210 c3        1 CS4      0.025700
      6 SG          3.6540    1.1820   -1.2250 ss        1 CS4     -0.374200
      7 C1J         2.7180    2.6730   -1.4560 c3        1 CS4      0.002700
      8 C1K         1.4130    2.3880   -2.1570 c3        1 CS4     -0.190400
      9 C1N         0.7940    3.6300   -2.7340 c         1 CS4      0.590700
     10 O1C         0.6640    3.7610   -3.9610 o         1 CS4     -0.571100
     11 C1Q         0.3330    4.6960   -1.8130 ca        1 CS4     -0.174600
     12 C1I         0.1270    5.9790   -2.3440 ca        1 CS4     -0.079000
     13 C1H         0.0890    4.4600   -0.4570 ca        1 CS4     -0.051000
     14 C1G        -0.3450    5.5030    0.3650 ca        1 CS4     -0.125000
     15 C1O        -0.5420    6.7820   -0.1600 ca        1 CS4      0.034400
     16 CL1D       -1.0690    8.0330    0.8670 cl        1 CS4     -0.101400
     17 C1P        -0.3060    7.0200   -1.5230 ca        1 CS4     -0.015600
     18 CL1E       -0.5390    8.5660   -2.2000 cl        1 CS4     -0.107400
     19 O           0.0790    1.3200    0.6000 o         1 CS4     -0.848800
     20 HA          2.4350    0.0290    2.1420 h1        1 CS4      0.055700
     21 H           1.9550   -0.7910   -0.5970 hn        1 CS4      0.344300
     22 H2          0.7950   -0.9430    0.5220 hn        1 CS4      0.344300
     23 HB2         4.3930    0.0980    0.6690 h1        1 CS4      0.072200
     24 HB3         3.8220    1.7820    1.0890 h1        1 CS4      0.072200
     25 H1J1        3.3590    3.3470   -2.0740 h1        1 CS4      0.085200
     26 H1J2        2.5230    3.1590   -0.4630 h1        1 CS4      0.085200
     27 H1K1        0.6890    1.9160   -1.4280 hc        1 CS4      0.100200
     28 H1K2        1.5830    1.6550   -2.9920 hc        1 CS4      0.100200
     29 H1I         0.3060    6.1510   -3.4180 ha        1 CS4      0.158000
     30 H1H         0.2360    3.4540    0.0030 ha        1 CS4      0.237000
     31 H1G        -0.5180    5.3020    1.4350 ha        1 CS4      0.168000
@<TRIPOS>BOND
     1    1    2 1   
     2    2    3 1   
     3    2   19 1   
     4    3    4 1   
     5    3    5 1   
     6    3   20 1   
     7    4   21 1   
     8    4   22 1   
     9    5    6 1   
    10    5   23 1   
    11    5   24 1   
    12    6    7 1   
    13    7    8 1   
    14    7   25 1   
    15    7   26 1   
    16    8    9 1   
    17    8   27 1   
    18    8   28 1   
    19    9   10 2   
    20    9   11 1   
    21   11   12 ar  
    22   11   13 ar  
    23   12   17 ar  
    24   12   29 1   
    25   13   14 ar  
    26   13   30 1   
    27   14   15 ar  
    28   14   31 1   
    29   15   16 1   
    30   15   17 ar  
    31   17   18 1   
@<TRIPOS>SUBSTRUCTURE
     1 CS4         1 TEMP              0 ****  ****    0 ROOT
