@<TRIPOS>MOLECULE
CS4
   31    29     1     0     0
SMALL
bcc


@<TRIPOS>ATOM
      1 OXT        -0.5940   -2.2050    5.4030 o         1 CS4     -0.578500
      2 C           0.3930   -2.1090    4.6280 c2        1 CS4      0.307000
      3 CA          0.5780   -3.1110    3.5110 c3        1 CS4     -0.125000
      4 N           0.1680   -4.3980    3.9570 n3        1 CS4     -0.312000
      5 CB         -0.2600   -2.7000    2.3220 c3        1 CS4     -0.230000
      6 SG          0.6670   -1.5800    1.3060 ss        1 CS4     -0.004000
      7 C1J        -0.3320   -1.0610   -0.0640 c3        1 CS4     -0.246000
      8 C1K         0.3870    0.0280   -0.8280 c3        1 CS4     -0.246000
      9 C1N        -0.5150    0.5560   -1.9220 c2        1 CS4      0.283000
     10 O1C        -1.4090   -0.1390   -2.3610 o         1 CS4     -0.324000
     11 C1Q        -0.3180    1.9590   -2.4530 c2        1 CS4     -0.144000
     12 C1I         0.5430    2.1820   -3.5170 c2        1 CS4     -0.081000
     13 C1H        -1.0560    3.0080   -1.9270 c1        1 CS4     -0.071000
     14 C1G        -0.9330    4.2800   -2.4650 c1        1 CS4     -0.131000
     15 C1O        -0.0730    4.5030   -3.5280 c1        1 CS4     -0.047000
     16 CL1D        0.1010    6.1080   -4.1870 cl        1 CS4     -0.017000
     17 C1P         0.6650    3.4540   -4.0540 c2        1 CS4     -0.087000
     18 CL1E        1.7280    3.7290   -5.4090 cl        1 CS4     -0.022000
     19 O           1.2390   -1.1920    4.7960 o         1 CS4     -0.578500
     20 HA          1.5200   -3.1400    3.2520 h1        1 CS4      0.097000
     21 H           0.4150   -5.0280    3.3390 hn        1 CS4      0.129000
     22 H2          0.5680   -4.5850    4.7600 hn        1 CS4      0.129000
     23 HB2        -1.0750   -2.2590    2.6340 h1        1 CS4      0.115000
     24 HB3        -0.4970   -3.4930    1.8010 h1        1 CS4      0.115000
     25 H1J1       -0.4930   -1.8230   -0.6560 h1        1 CS4      0.104500
     26 H1J2       -1.1860   -0.7180    0.2660 h1        1 CS4      0.104500
     27 H1K1        0.6200    0.7560   -0.2180 hc        1 CS4      0.158000
     28 H1K2        1.2030   -0.3370   -1.2260 hc        1 CS4      0.158000
     29 H1I         1.0630    1.4440   -3.8870 ha        1 CS4      0.158000
     30 H1H        -1.6620    2.8510   -1.1790 ha        1 CS4      0.229000
     31 H1G        -1.4530    5.0180   -2.0950 ha        1 CS4      0.161000
@<TRIPOS>BOND
     1    1    2 1   
     2    2    3 1   
     3    2   19 1   
     4    3    4 1   
     5    3    5 1   
     6    3   20 1   
     7    4   21 1   
     8    4   22 1   
     9    5    6 1   
    10    5   23 1   
    11    5   24 1   
    12    6    7 1   
    13    7    8 1   
    14    7   25 1   
    15    7   26 1   
    16    8    9 1   
    17    8   27 1   
    18    8   28 1   
    19    9   10 1   
    20    9   11 1   
    21   11   12 1   
    22   11   13 1   
    23   12   17 1   
    24   12   29 1   
    25   13   30 1   
    26   14   15 1   
    27   14   31 1   
    28   15   17 1   
    29   17   18 1   
@<TRIPOS>SUBSTRUCTURE
     1 CS4         1 TEMP              0 ****  ****    0 ROOT
