@<TRIPOS>MOLECULE
CS5
   86    88     1     0     0
SMALL
bcc


@<TRIPOS>ATOM
      1 C1         -0.1090    0.0340   -0.0380 ca        1 CS5     -0.038000
      2 C2          1.1090   -0.6410   -0.2250 ca        1 CS5     -0.032300
      3 C3          2.1390   -0.4780    0.7070 ca        1 CS5     -0.057000
      4 C4          1.9570    0.3510    1.8250 ca        1 CS5     -0.191600
      5 C5          0.7450    1.0360    2.0010 ca        1 CS5      0.008000
      6 C6         -0.2890    0.8760    1.0630 ca        1 CS5     -0.173600
      7 C7         -1.5520    1.5950    1.3500 c         1 CS5      0.551700
      8 N1         -2.4550    1.9310    0.1930 n4        1 CS5     -0.585200
      9 O1         -1.8990    1.9550    2.4690 o         1 CS5     -0.397100
     10 C8         -2.9540    3.3470    0.3160 c3        1 CS5      0.109800
     11 C9         -3.7320    3.8250   -0.9040 c3        1 CS5     -0.100400
     12 C10        -4.0310    5.2980   -0.7510 c3        1 CS5     -0.105600
     13 C11        -3.5760    0.9290    0.0830 c3        1 CS5      0.109800
     14 C12        -4.6160    0.9860    1.1950 c3        1 CS5     -0.100400
     15 C13        -5.5330   -0.2070    1.0770 c3        1 CS5     -0.105600
     16 C14         2.9980    0.5820    2.8370 c         1 CS5      0.576700
     17 N2          4.0590   -0.4850    2.9860 n4        1 CS5     -0.682800
     18 O2          3.0950    1.5430    3.5890 o         1 CS5     -0.429100
     19 C15         4.7210   -0.5290    4.3440 c3        1 CS5      0.141500
     20 C16         5.8410    0.5510    4.4510 c3        1 CS5      0.102100
     21 C17         5.2620   -1.9410    4.6270 c3        1 CS5     -0.061100
     22 O3          6.6760    0.4020    3.3160 oh        1 CS5     -0.604800
     23 C18         6.6690    0.3210    5.7320 c3        1 CS5      0.072800
     24 N3          7.6800    1.3780    5.9830 n4        1 CS5     -0.774000
     25 C19         8.4800    1.1080    7.2460 c3        1 CS5      0.191100
     26 C20         9.4180    2.2330    7.4950 ca        1 CS5     -0.178300
     27 C21         4.2550   -3.0100    4.3730 ca        1 CS5     -0.112300
     28 C22         3.3520   -3.3670    5.3740 ca        1 CS5     -0.209500
     29 C23         2.4520   -4.4320    5.1540 ca        1 CS5      0.191400
     30 C24         2.4500   -5.1280    3.9330 ca        1 CS5     -0.176000
     31 C25         3.3630   -4.7470    2.9340 ca        1 CS5      0.191400
     32 C26         4.2660   -3.6870    3.1500 ca        1 CS5     -0.209500
     33 C27        10.7870    2.0720    7.2630 ca        1 CS5     -0.126000
     34 C28        11.6650    3.1150    7.5690 ca        1 CS5     -0.074000
     35 C29        11.1890    4.3170    8.0840 ca        1 CS5     -0.140000
     36 C30         9.8090    4.4790    8.3040 ca        1 CS5      0.156100
     37 C31         8.9170    3.4320    8.0140 ca        1 CS5     -0.164000
     38 O4          9.2190    5.6190    8.7850 os        1 CS5     -0.320900
     39 C32        10.0960    6.6580    9.2330 c3        1 CS5      0.104700
     40 C33         1.2910   -1.5120   -1.4090 c3        1 CS5     -0.089800
     41 F2          1.5860   -4.7780    6.1260 f         1 CS5     -0.094900
     42 F1          3.3740   -5.3940    1.7510 f         1 CS5     -0.094900
     43 H1         -0.9130   -0.1400   -0.7750 ha        1 CS5      0.166000
     44 H3          3.0910   -1.0040    0.5230 ha        1 CS5      0.154000
     45 H5          0.5970    1.6960    2.8790 ha        1 CS5      0.195000
     46 H81        -2.0480    4.0020    0.4690 hx        1 CS5      0.106200
     47 H82        -3.5980    3.4060    1.2410 hx        1 CS5      0.106200
     48 H91        -3.1420    3.6580   -1.8430 hc        1 CS5      0.071450
     49 H92        -4.6970    3.2570   -0.9950 hc        1 CS5      0.071450
     50 H101       -3.0900    5.8970   -0.7040 hc        1 CS5      0.067533
     51 H102       -4.6280    5.4930    0.1730 hc        1 CS5      0.067533
     52 H103       -4.6270    5.6480   -1.6320 hc        1 CS5      0.067533
     53 H111       -3.1000   -0.0930    0.0590 hx        1 CS5      0.106200
     54 H112       -4.0830    1.1190   -0.9090 hx        1 CS5      0.106200
     55 H121       -5.2200    1.9290    1.1080 hc        1 CS5      0.071450
     56 H122       -4.1220    0.9890    2.2030 hc        1 CS5      0.071450
     57 H131       -4.9720   -1.1630    1.2130 hc        1 CS5      0.067533
     58 H132       -6.3220   -0.1480    1.8690 hc        1 CS5      0.067533
     59 H133       -6.0410   -0.2280    0.0820 hc        1 CS5      0.067533
     60 HN2         4.7940   -0.3290    2.2780 hn        1 CS5      0.482800
     61 H15         3.9230   -0.2740    5.1060 hx        1 CS5      0.125700
     62 H16         5.3530    1.5690    4.4740 h1        1 CS5      0.092700
     63 H171        6.1860   -2.1200    4.0110 hc        1 CS5      0.100200
     64 H172        5.5560   -1.9770    5.7130 hc        1 CS5      0.100200
     65 HO3         6.9760    1.2780    3.0320 ho        1 CS5      0.447000
     66 H181        7.2310   -0.6570    5.6420 hx        1 CS5      0.126700
     67 H182        5.9760    0.2720    6.6210 hx        1 CS5      0.126700
     68 HN3         8.3320    1.4310    5.1910 hn        1 CS5      0.455300
     69 H191        7.7420    1.0010    8.0920 hx        1 CS5      0.112200
     70 H192        9.0290    0.1340    7.1000 hx        1 CS5      0.112200
     71 H22         3.3490   -2.8610    6.3510 ha        1 CS5      0.159000
     72 H24         1.7620   -5.9770    3.7710 ha        1 CS5      0.205000
     73 H26         5.0230   -3.4690    2.3810 ha        1 CS5      0.159000
     74 H27        11.1850    1.1240    6.8700 ha        1 CS5      0.146000
     75 H28        12.7480    2.9820    7.4050 ha        1 CS5      0.173000
     76 H29        11.8940    5.1290    8.3260 ha        1 CS5      0.177000
     77 H31         7.8490    3.5650    8.2370 ha        1 CS5      0.144000
     78 H321       10.6800    7.0670    8.3730 h1        1 CS5      0.067700
     79 H322       10.7720    6.2820   10.0380 h1        1 CS5      0.067700
     80 H323        9.3870    7.4270    9.6350 h1        1 CS5      0.067700
     81 H331        1.3950   -0.8860   -2.3340 hc        1 CS5      0.086367
     82 H332        2.2050   -2.1490   -1.3170 hc        1 CS5      0.086367
     83 H333        0.4070   -2.1870   -1.5450 hc        1 CS5      0.086367
     84 H11        -1.9080    1.8710   -0.6760 hn        1 CS5      0.447800
     85 H221        3.6300   -1.4120    2.8070 hn        1 CS5      0.482800
     86 H32         7.2310    2.2970    6.0850 hn        1 CS5      0.455300
@<TRIPOS>BOND
     1    1    2 ar  
     2    1    6 ar  
     3    1   43 1   
     4    2    3 ar  
     5    2   40 1   
     6    3    4 ar  
     7    3   44 1   
     8    4    5 ar  
     9    4   16 1   
    10    5    6 ar  
    11    5   45 1   
    12    6    7 1   
    13    7    8 1   
    14    7    9 2   
    15    8   10 1   
    16    8   13 1   
    17    8   84 1   
    18   10   11 1   
    19   10   46 1   
    20   10   47 1   
    21   11   12 1   
    22   11   48 1   
    23   11   49 1   
    24   12   50 1   
    25   12   51 1   
    26   12   52 1   
    27   13   14 1   
    28   13   53 1   
    29   13   54 1   
    30   14   15 1   
    31   14   55 1   
    32   14   56 1   
    33   15   57 1   
    34   15   58 1   
    35   15   59 1   
    36   16   17 1   
    37   16   18 2   
    38   17   19 1   
    39   17   60 1   
    40   17   85 1   
    41   19   20 1   
    42   19   21 1   
    43   19   61 1   
    44   20   22 1   
    45   20   23 1   
    46   20   62 1   
    47   21   27 1   
    48   21   63 1   
    49   21   64 1   
    50   22   65 1   
    51   23   24 1   
    52   23   66 1   
    53   23   67 1   
    54   24   25 1   
    55   24   68 1   
    56   24   86 1   
    57   25   26 1   
    58   25   69 1   
    59   25   70 1   
    60   26   33 ar  
    61   26   37 ar  
    62   27   28 ar  
    63   27   32 ar  
    64   28   29 ar  
    65   28   71 1   
    66   29   30 ar  
    67   29   41 1   
    68   30   31 ar  
    69   30   72 1   
    70   31   32 ar  
    71   31   42 1   
    72   32   73 1   
    73   33   34 ar  
    74   33   74 1   
    75   34   35 ar  
    76   34   75 1   
    77   35   36 ar  
    78   35   76 1   
    79   36   37 ar  
    80   36   38 1   
    81   37   77 1   
    82   38   39 1   
    83   39   78 1   
    84   39   79 1   
    85   39   80 1   
    86   40   81 1   
    87   40   82 1   
    88   40   83 1   
@<TRIPOS>SUBSTRUCTURE
     1 CS5         1 TEMP              0 ****  ****    0 ROOT
