@<TRIPOS>MOLECULE
CS5
   86    88     1     0     0
SMALL
bcc


@<TRIPOS>ATOM
      1 C1         -0.0970    0.0220   -0.0460 ca        1 CS5     -0.038000
      2 C2          1.1140   -0.6710   -0.2150 ca        1 CS5     -0.032300
      3 C3          2.1390   -0.5060    0.7230 ca        1 CS5     -0.057000
      4 C4          1.9600    0.3420    1.8260 ca        1 CS5     -0.191600
      5 C5          0.7540    1.0430    1.9840 ca        1 CS5      0.008000
      6 C6         -0.2750    0.8810    1.0420 ca        1 CS5     -0.173600
      7 C7         -1.5310    1.6190    1.3090 c         1 CS5      0.551700
      8 N1         -2.4230    1.9480    0.1410 nx        1 CS5     -0.585200
      9 O1         -1.8820    1.9990    2.4200 o         1 CS5     -0.397100
     10 C8         -2.9060    3.3720    0.2400 c3        1 CS5      0.109800
     11 C9         -3.6710    3.8410   -0.9920 c3        1 CS5     -0.100400
     12 C10        -3.9540    5.3180   -0.8620 c3        1 CS5     -0.105600
     13 C11        -3.5540    0.9580    0.0370 c3        1 CS5      0.109800
     14 C12        -4.6010    1.0420    1.1410 c3        1 CS5     -0.100400
     15 C13        -5.5300   -0.1430    1.0330 c3        1 CS5     -0.105600
     16 C14         2.9960    0.5750    2.8420 c         1 CS5      0.576700
     17 N2          4.0420   -0.5030    3.0150 ny        1 CS5     -0.682800
     18 O2          3.1010    1.5470    3.5790 o         1 CS5     -0.429100
     19 C15         4.6940   -0.5330    4.3790 c3        1 CS5      0.141500
     20 C16         5.8280    0.5320    4.4760 c3        1 CS5      0.102100
     21 C17         5.2130   -1.9480    4.6890 c3        1 CS5     -0.061100
     22 O3          6.6680    0.3540    3.3500 oh        1 CS5     -0.604800
     23 C18         6.6440    0.3130    5.7670 c3        1 CS5      0.072800
     24 N3          7.6690    1.3590    6.0070 ny        1 CS5     -0.774000
     25 C19         8.4570    1.0990    7.2790 c3        1 CS5      0.191100
     26 C20         9.4110    2.2130    7.5140 ca        1 CS5     -0.178300
     27 C21         4.1940   -3.0070    4.4460 ca        1 CS5     -0.112300
     28 C22         3.2790   -3.3350    5.4450 ca        1 CS5     -0.209500
     29 C23         2.3650   -4.3910    5.2360 ca        1 CS5      0.191400
     30 C24         2.3620   -5.1070    4.0270 ca        1 CS5     -0.176000
     31 C25         3.2880   -4.7560    3.0290 ca        1 CS5      0.191400
     32 C26         4.2040   -3.7050    3.2340 ca        1 CS5     -0.209500
     33 C27        10.7790    2.0270    7.2940 ca        1 CS5     -0.126000
     34 C28        11.6700    3.0620    7.5860 ca        1 CS5     -0.074000
     35 C29        11.2110    4.2800    8.0780 ca        1 CS5     -0.140000
     36 C30         9.8320    4.4670    8.2860 ca        1 CS5      0.156100
     37 C31         8.9250    3.4290    8.0080 ca        1 CS5     -0.164000
     38 O4          9.2580    5.6240    8.7430 os        1 CS5     -0.320900
     39 C32        10.1480    6.6570    9.1780 c3        1 CS5      0.104700
     40 C33         1.2940   -1.5600   -1.3850 c3        1 CS5     -0.089800
     41 F2          1.4880   -4.7080    6.2080 f         1 CS5     -0.094900
     42 F1          3.2990   -5.4230    1.8570 f         1 CS5     -0.094900
     43 H1         -0.8980   -0.1540   -0.7860 ha        1 CS5      0.166000
     44 H3          3.0860   -1.0460    0.5530 ha        1 CS5      0.154000
     45 H5          0.6080    1.7170    2.8510 ha        1 CS5      0.195000
     46 H81        -3.5560    3.4510    1.1600 hx        1 CS5      0.106200
     47 H82        -1.9940    4.0180    0.3910 hx        1 CS5      0.106200
     48 H91        -4.6410    3.2820   -1.0820 hc        1 CS5      0.071450
     49 H92        -3.0760    3.6540   -1.9250 hc        1 CS5      0.071450
     50 H101       -4.5400    5.6620   -1.7520 hc        1 CS5      0.067533
     51 H102       -4.5550    5.5330    0.0550 hc        1 CS5      0.067533
     52 H103       -3.0070    5.9080   -0.8170 hc        1 CS5      0.067533
     53 H111       -4.0530    1.1380   -0.9610 hx        1 CS5      0.106200
     54 H112       -3.0900   -0.0710    0.0310 hx        1 CS5      0.106200
     55 H121       -5.1940    1.9900    1.0360 hc        1 CS5      0.071450
     56 H122       -4.1140    1.0530    2.1530 hc        1 CS5      0.071450
     57 H131       -6.3240   -0.0640    1.8190 hc        1 CS5      0.067533
     58 H132       -6.0320   -0.1720    0.0350 hc        1 CS5      0.067533
     59 H133       -4.9810   -1.1030    1.1870 hc        1 CS5      0.067533
     60 HN2         4.7840   -0.3680    2.3110 hn        1 CS5      0.482800
     61 H15         3.8950   -0.2550    5.1320 hx        1 CS5      0.125700
     62 H16         5.3540    1.5570    4.4790 h1        1 CS5      0.092700
     63 H171        5.4990   -1.9700    5.7780 hc        1 CS5      0.100200
     64 H172        6.1390   -2.1500    4.0830 hc        1 CS5      0.100200
     65 HO3         6.9820    1.2200    3.0530 ho        1 CS5      0.447000
     66 H181        7.1920   -0.6750    5.6970 hx        1 CS5      0.126700
     67 H182        5.9450    0.2880    6.6510 hx        1 CS5      0.126700
     68 HN3         7.2320    2.2860    6.0890 hn        1 CS5      0.455300
     69 H191        8.9920    0.1140    7.1540 hx        1 CS5      0.112200
     70 H192        7.7120    1.0180    8.1220 hx        1 CS5      0.112200
     71 H22         3.2760   -2.8130    6.4140 ha        1 CS5      0.159000
     72 H24         1.6640   -5.9490    3.8750 ha        1 CS5      0.205000
     73 H26         4.9700   -3.5100    2.4680 ha        1 CS5      0.159000
     74 H27        11.1640    1.0660    6.9200 ha        1 CS5      0.146000
     75 H28        12.7530    2.9080    7.4320 ha        1 CS5      0.173000
     76 H29        11.9280    5.0850    8.3100 ha        1 CS5      0.177000
     77 H31         7.8580    3.5830    8.2230 ha        1 CS5      0.144000
     78 H321        9.4480    7.4440    9.5620 h1        1 CS5      0.067700
     79 H322       10.7440    7.0420    8.3150 h1        1 CS5      0.067700
     80 H323       10.8130    6.2850    9.9930 h1        1 CS5      0.067700
     81 H331        2.2010   -2.2060   -1.2780 hc        1 CS5      0.086367
     82 H332        0.4040   -2.2280   -1.5160 hc        1 CS5      0.086367
     83 H333        1.4110   -0.9500   -2.3180 hc        1 CS5      0.086367
     84 H11        -1.8710    1.8700   -0.7230 hn        1 CS5      0.447800
     85 H221        3.6020   -1.4270    2.8490 hn        1 CS5      0.482800
     86 H32         8.3270    1.3880    5.2180 hn        1 CS5      0.455300
@<TRIPOS>BOND
     1    1    2 ar  
     2    1    6 ar  
     3    1   43 1   
     4    2    3 ar  
     5    2   40 1   
     6    3    4 ar  
     7    3   44 1   
     8    4    5 ar  
     9    4   16 1   
    10    5    6 ar  
    11    5   45 1   
    12    6    7 1   
    13    7    8 1   
    14    7    9 2   
    15    8   10 1   
    16    8   13 1   
    17    8   84 1   
    18   10   11 1   
    19   10   46 1   
    20   10   47 1   
    21   11   12 1   
    22   11   48 1   
    23   11   49 1   
    24   12   50 1   
    25   12   51 1   
    26   12   52 1   
    27   13   14 1   
    28   13   53 1   
    29   13   54 1   
    30   14   15 1   
    31   14   55 1   
    32   14   56 1   
    33   15   57 1   
    34   15   58 1   
    35   15   59 1   
    36   16   17 1   
    37   16   18 2   
    38   17   19 1   
    39   17   60 1   
    40   17   85 1   
    41   19   20 1   
    42   19   21 1   
    43   19   61 1   
    44   20   22 1   
    45   20   23 1   
    46   20   62 1   
    47   21   27 1   
    48   21   63 1   
    49   21   64 1   
    50   22   65 1   
    51   23   24 1   
    52   23   66 1   
    53   23   67 1   
    54   24   25 1   
    55   24   68 1   
    56   24   86 1   
    57   25   26 1   
    58   25   69 1   
    59   25   70 1   
    60   26   33 ar  
    61   26   37 ar  
    62   27   28 ar  
    63   27   32 ar  
    64   28   29 ar  
    65   28   71 1   
    66   29   30 ar  
    67   29   41 1   
    68   30   31 ar  
    69   30   72 1   
    70   31   32 ar  
    71   31   42 1   
    72   32   73 1   
    73   33   34 ar  
    74   33   74 1   
    75   34   35 ar  
    76   34   75 1   
    77   35   36 ar  
    78   35   76 1   
    79   36   37 ar  
    80   36   38 1   
    81   37   77 1   
    82   38   39 1   
    83   39   78 1   
    84   39   79 1   
    85   39   80 1   
    86   40   81 1   
    87   40   82 1   
    88   40   83 1   
@<TRIPOS>SUBSTRUCTURE
     1 CS5         1 TEMP              0 ****  ****    0 ROOT
