@<TRIPOS>MOLECULE
CS5
   83    78     1     0     0
SMALL
bcc


@<TRIPOS>ATOM
      1 C1         -2.6750   -0.3750   -3.4840 c1        1 CS5     -0.082000
      2 C2         -1.6440   -1.3030   -3.2390 c1        1 CS5     -0.077000
      3 C3         -1.0950   -1.4200   -1.9500 c1        1 CS5     -0.092000
      4 C4         -1.5770   -0.6060   -0.9020 c1        1 CS5     -0.120000
      5 C5         -2.6070    0.3200   -1.1500 c1        1 CS5     -0.059000
      6 C6         -3.1560    0.4360   -2.4420 c1        1 CS5     -0.108000
      7 C7         -4.1590    1.5570   -2.7490 c2        1 CS5      0.345000
      8 N1         -4.6050    1.7760   -4.1130 n         1 CS5     -0.330000
      9 O1         -4.6480    2.1940   -1.8450 o         1 CS5     -0.356000
     10 C8         -5.5960    0.8570   -4.7250 c3        1 CS5     -0.024000
     11 C9         -7.0270    1.2600   -4.2800 c3        1 CS5     -0.180500
     12 C10        -8.0600    0.5060   -5.1420 c3        1 CS5     -0.210500
     13 C11        -4.1240    2.9350   -4.8620 c3        1 CS5     -0.024000
     14 C12        -5.2190    3.4140   -5.8220 c3        1 CS5     -0.180500
     15 C13        -5.2380    4.9250   -5.8520 c3        1 CS5     -0.210500
     16 C14        -0.9390   -0.7060    0.5340 c2        1 CS5      0.347000
     17 N2          0.1410   -1.6300    0.7810 n         1 CS5     -0.363000
     18 O2         -1.4300   -0.0610    1.4760 o         1 CS5     -0.371000
     19 C15         0.8460   -1.5790    2.0070 c3        1 CS5      0.035000
     20 C16         2.2290   -1.0150    1.7680 c3        1 CS5      0.009000
     21 C17         0.9610   -2.9850    2.5820 c3        1 CS5     -0.137000
     22 O3          3.0760   -2.0280    1.3220 oh        1 CS5     -0.339000
     23 C18         2.7860   -0.4190    3.0830 c3        1 CS5     -0.113000
     24 N3          3.9350    0.3730    2.7900 n3        1 CS5     -0.309000
     25 C19         4.6440    0.6650    4.0040 c3        1 CS5     -0.035000
     26 C20         6.0660    1.2610    3.6530 c2        1 CS5     -0.053000
     27 C21        -0.0420   -3.1460    3.7730 c2        1 CS5     -0.012000
     28 C22        -1.0350   -4.1220    3.7190 c2        1 CS5     -0.182000
     29 C23        -1.8960   -4.3130    4.8180 c1        1 CS5      0.116000
     30 C24        -1.7550   -3.5290    5.9560 c1        1 CS5     -0.211000
     31 C25        -0.7570   -2.5470    6.0110 c1        1 CS5      0.123000
     32 C26         0.0990   -2.3560    4.9180 c2        1 CS5     -0.177000
     33 C27         6.2210    2.5880    3.2800 c2        1 CS5     -0.164000
     34 C28         7.5050    3.1080    3.0540 c1        1 CS5     -0.092000
     35 C29         8.6290    2.2870    3.2040 c1        1 CS5     -0.201000
     36 C30         8.4750    0.9560    3.5780 c1        1 CS5      0.080000
     37 C31         7.1950    0.4370    3.8030 c2        1 CS5     -0.139000
     38 O4          9.6440    0.1140    3.7660 o         1 CS5     -0.210000
     39 C32        10.2160   -0.4020    2.5170 c3        1 CS5     -0.076000
     40 C33        -1.1250   -2.1810   -4.3720 c3        1 CS5     -0.182000
     41 F2         -2.8440   -5.2420    4.7650 f         1 CS5     -0.103000
     42 F1         -0.6180   -1.8040    7.0990 f         1 CS5     -0.099000
     43 H1         -3.0570   -0.2940   -4.3810 ha        1 CS5      0.147000
     44 H3         -0.3890   -2.0540   -1.7830 ha        1 CS5      0.143000
     45 H5         -2.9370    0.8760   -0.4350 ha        1 CS5      0.161000
     46 H81        -5.5330    0.9110   -5.6940 h1        1 CS5      0.095000
     47 H82        -5.4100   -0.0640   -4.4360 h1        1 CS5      0.095000
     48 H91        -7.1450    2.2170   -4.3930 hc        1 CS5      0.087250
     49 H92        -7.1540    1.0270   -3.3450 hc        1 CS5      0.087250
     50 H101       -8.9160    0.9920   -5.1320 hc        1 CS5      0.075333
     51 H102       -8.1930   -0.4090   -4.7730 hc        1 CS5      0.075333
     52 H103       -7.7320    0.4410   -6.0630 hc        1 CS5      0.075333
     53 H111       -3.8950    3.6660   -4.2290 h1        1 CS5      0.095000
     54 H112       -3.3270    2.6860   -5.3730 h1        1 CS5      0.095000
     55 H121       -6.0790    3.0870   -5.5210 hc        1 CS5      0.087250
     56 H122       -5.0360    3.0700   -6.7270 hc        1 CS5      0.087250
     57 H131       -5.5740    5.2310   -6.7210 hc        1 CS5      0.075333
     58 H132       -4.3340    5.2650   -5.7150 hc        1 CS5      0.075333
     59 H133       -5.8260    5.2590   -5.1370 hc        1 CS5      0.075333
     60 HN2         0.3580   -2.2210    0.1740 hn        1 CS5      0.235000
     61 H15         0.3670   -1.0120    2.6320 h1        1 CS5      0.130000
     62 H16         2.1780   -0.3050    1.0840 h1        1 CS5      0.089000
     63 H171        1.8720   -3.1330    2.9010 hc        1 CS5      0.109000
     64 H172        0.7450   -3.6500    1.8770 hc        1 CS5      0.109000
     65 HO3         3.5370   -1.7430    0.6450 ho        1 CS5      0.224000
     66 H181        3.0380   -1.1530    3.6980 h1        1 CS5      0.083000
     67 H182        2.1090    0.1350    3.5010 h1        1 CS5      0.083000
     68 HN3         3.6750    1.1500    2.3960 hn        1 CS5      0.161000
     69 H191        4.1300    1.3270    4.5370 h1        1 CS5      0.081500
     70 H192        4.7550   -0.1700    4.5320 h1        1 CS5      0.081500
     71 H22        -1.1340   -4.6710    2.9240 ha        1 CS5      0.153000
     72 H24        -2.3590   -3.6630    6.7280 ha        1 CS5      0.165000
     73 H26         0.7960   -1.6700    4.9560 ha        1 CS5      0.155000
     74 H27         5.4590    3.1440    3.1780 ha        1 CS5      0.131000
     75 H28         7.6150    4.0440    2.7910 ha        1 CS5      0.134000
     76 H29         9.5090    2.6440    3.0490 ha        1 CS5      0.139000
     77 H31         7.0870   -0.4870    4.0630 ha        1 CS5      0.153000
     78 H321       10.4980    0.3550    1.9460 h1        1 CS5      0.084333
     79 H322       11.0040   -0.9690    2.7240 h1        1 CS5      0.084333
     80 H323        9.5390   -0.9390    2.0420 h1        1 CS5      0.084333
     81 H331       -0.5410   -1.6460   -4.9590 hc        1 CS5      0.089000
     82 H332       -1.8910   -2.5320   -4.8980 hc        1 CS5      0.089000
     83 H333       -0.6080   -2.9410   -3.9930 hc        1 CS5      0.089000
@<TRIPOS>BOND
     1    1    6 1   
     2    1   43 1   
     3    2    3 1   
     4    2   40 1   
     5    3   44 1   
     6    4    5 1   
     7    4   16 1   
     8    5   45 1   
     9    6    7 1   
    10    7    8 1   
    11    7    9 1   
    12    8   10 1   
    13    8   13 1   
    14   10   11 1   
    15   10   46 1   
    16   10   47 1   
    17   11   12 1   
    18   11   48 1   
    19   11   49 1   
    20   12   50 1   
    21   12   51 1   
    22   12   52 1   
    23   13   14 1   
    24   13   53 1   
    25   13   54 1   
    26   14   15 1   
    27   14   55 1   
    28   14   56 1   
    29   15   57 1   
    30   15   58 1   
    31   15   59 1   
    32   16   17 1   
    33   16   18 1   
    34   17   19 1   
    35   17   60 1   
    36   19   20 1   
    37   19   21 1   
    38   19   61 1   
    39   20   22 1   
    40   20   23 1   
    41   20   62 1   
    42   21   27 1   
    43   21   63 1   
    44   21   64 1   
    45   22   65 1   
    46   23   24 1   
    47   23   66 1   
    48   23   67 1   
    49   24   25 1   
    50   24   68 1   
    51   25   26 1   
    52   25   69 1   
    53   25   70 1   
    54   26   33 1   
    55   26   37 1   
    56   27   28 1   
    57   27   32 1   
    58   28   29 1   
    59   28   71 1   
    60   29   41 1   
    61   30   31 1   
    62   30   72 1   
    63   31   32 1   
    64   32   73 1   
    65   33   34 1   
    66   33   74 1   
    67   34   75 1   
    68   35   36 1   
    69   35   76 1   
    70   36   37 1   
    71   37   77 1   
    72   38   39 1   
    73   39   78 1   
    74   39   79 1   
    75   39   80 1   
    76   40   81 1   
    77   40   82 1   
    78   40   83 1   
@<TRIPOS>SUBSTRUCTURE
     1 CS5         1 TEMP              0 ****  ****    0 ROOT
