@<TRIPOS>MOLECULE
CS5
   86    88     1     0     0
SMALL
bcc


@<TRIPOS>ATOM
      1 C1         -0.1120    0.0150   -0.0300 ca        1 CS5     -0.038000
      2 C2          1.1050   -0.6620   -0.2140 ca        1 CS5     -0.032300
      3 C3          2.1360   -0.4940    0.7170 ca        1 CS5     -0.057000
      4 C4          1.9540    0.3420    1.8290 ca        1 CS5     -0.191600
      5 C5          0.7420    1.0280    2.0020 ca        1 CS5      0.008000
      6 C6         -0.2920    0.8630    1.0660 ca        1 CS5     -0.173600
      7 C7         -1.5540    1.5830    1.3490 c         1 CS5      0.551700
      8 N1         -2.4580    1.9130    0.1900 n4        1 CS5     -0.585200
      9 O1         -1.9020    1.9490    2.4660 o         1 CS5     -0.397100
     10 C8         -2.9560    3.3310    0.3060 c3        1 CS5      0.109800
     11 C9         -3.7350    3.8030   -0.9160 c3        1 CS5     -0.100400
     12 C10        -4.0340    5.2760   -0.7700 c3        1 CS5     -0.105600
     13 C11        -3.5790    0.9120    0.0850 c3        1 CS5      0.109800
     14 C12        -4.6190    0.9740    1.1970 c3        1 CS5     -0.100400
     15 C13        -5.5360   -0.2200    1.0850 c3        1 CS5     -0.105600
     16 C14         2.9960    0.5790    2.8400 c         1 CS5      0.576700
     17 N2          4.0560   -0.4880    2.9950 n4        1 CS5     -0.682800
     18 O2          3.0940    1.5450    3.5850 o         1 CS5     -0.429100
     19 C15         4.7190   -0.5230    4.3530 c3        1 CS5      0.141500
     20 C16         5.8400    0.5560    4.4520 c3        1 CS5      0.102100
     21 C17         5.2580   -1.9340    4.6460 c3        1 CS5     -0.061100
     22 O3          6.6740    0.3990    3.3170 oh        1 CS5     -0.604800
     23 C18         6.6690    0.3350    5.7340 c3        1 CS5      0.072800
     24 N3          7.6820    1.3910    5.9760 n4        1 CS5     -0.774000
     25 C19         8.4820    1.1300    7.2410 c3        1 CS5      0.191100
     26 C20         9.4230    2.2550    7.4800 ca        1 CS5     -0.178300
     27 C21         4.2500   -3.0030    4.4000 ca        1 CS5     -0.112300
     28 C22         3.3480   -3.3520    5.4040 ca        1 CS5     -0.209500
     29 C23         2.4460   -4.4180    5.1920 ca        1 CS5      0.191400
     30 C24         2.4420   -5.1220    3.9760 ca        1 CS5     -0.176000
     31 C25         3.3550   -4.7490    2.9740 ca        1 CS5      0.191400
     32 C26         4.2590   -3.6890    3.1810 ca        1 CS5     -0.209500
     33 C27        10.7920    2.0880    7.2480 ca        1 CS5     -0.126000
     34 C28        11.6720    3.1320    7.5440 ca        1 CS5     -0.074000
     35 C29        11.2000    4.3400    8.0500 ca        1 CS5     -0.140000
     36 C30         9.8200    4.5070    8.2680 ca        1 CS5      0.156100
     37 C31         8.9250    3.4590    7.9880 ca        1 CS5     -0.165000
     38 O4          9.2340    5.6530    8.7400 os        1 CS5     -0.320900
     39 C32        10.1130    6.6930    9.1780 c3        1 CS5      0.104700
     40 C33         1.2870   -1.5390   -1.3940 c3        1 CS5     -0.089800
     41 F2          1.5810   -4.7550    6.1680 f         1 CS5     -0.094900
     42 F1          3.3640   -5.4050    1.7950 f         1 CS5     -0.094900
     43 H1         -0.9160   -0.1630   -0.7670 ha        1 CS5      0.166000
     44 H3          3.0880   -1.0200    0.5350 ha        1 CS5      0.154000
     45 H5          0.5950    1.6930    2.8760 ha        1 CS5      0.195000
     46 H81        -2.0500    3.9860    0.4570 hx        1 CS5      0.106200
     47 H82        -3.6010    3.3940    1.2310 hx        1 CS5      0.106200
     48 H91        -4.7000    3.2340   -1.0040 hc        1 CS5      0.071450
     49 H92        -3.1450    3.6310   -1.8550 hc        1 CS5      0.071450
     50 H101       -3.0930    5.8750   -0.7260 hc        1 CS5      0.067533
     51 H102       -4.6290    5.6220   -1.6530 hc        1 CS5      0.067533
     52 H103       -4.6300    5.4750    0.1530 hc        1 CS5      0.067533
     53 H111       -4.0860    1.0960   -0.9070 hx        1 CS5      0.106200
     54 H112       -3.1030   -0.1110    0.0660 hx        1 CS5      0.106200
     55 H121       -5.2230    1.9170    1.1050 hc        1 CS5      0.071450
     56 H122       -4.1250    0.9810    2.2050 hc        1 CS5      0.071450
     57 H131       -4.9750   -1.1750    1.2250 hc        1 CS5      0.067533
     58 H132       -6.0440   -0.2450    0.0900 hc        1 CS5      0.067533
     59 H133       -6.3250   -0.1560    1.8770 hc        1 CS5      0.067533
     60 HN2         3.6260   -1.4160    2.8230 hn        1 CS5      0.482800
     61 H15         3.9220   -0.2620    5.1140 hx        1 CS5      0.125700
     62 H16         5.3530    1.5750    4.4680 h1        1 CS5      0.092700
     63 H171        6.1820   -2.1180    4.0300 hc        1 CS5      0.100200
     64 H172        5.5530   -1.9630    5.7320 hc        1 CS5      0.100200
     65 HO3         6.9750    1.2720    3.0270 ho        1 CS5      0.447000
     66 H181        7.2290   -0.6450    5.6510 hx        1 CS5      0.126700
     67 H182        5.9770    0.2930    6.6230 hx        1 CS5      0.126700
     68 HN3         8.3340    1.4370    5.1830 hn        1 CS5      0.455300
     69 H191        9.0290    0.1530    7.1030 hx        1 CS5      0.112200
     70 H192        7.7440    1.0320    8.0880 hx        1 CS5      0.112200
     71 H22         3.3460   -2.8390    6.3780 ha        1 CS5      0.159000
     72 H24         1.7530   -5.9710    3.8210 ha        1 CS5      0.205000
     73 H26         5.0160   -3.4770    2.4110 ha        1 CS5      0.159000
     74 H27        11.1870    1.1360    6.8640 ha        1 CS5      0.146000
     75 H28        12.7550    2.9940    7.3810 ha        1 CS5      0.173000
     76 H29        11.9070    5.1520    8.2840 ha        1 CS5      0.177000
     77 H31         7.8580    3.5980    8.2110 ha        1 CS5      0.144000
     78 H321       10.6980    7.0930    8.3140 h1        1 CS5      0.067700
     79 H322       10.7890    6.3230    9.9860 h1        1 CS5      0.067700
     80 H323        9.4060    7.4680    9.5730 h1        1 CS5      0.067700
     81 H331        0.4030   -2.2150   -1.5260 hc        1 CS5      0.086367
     82 H332        1.3910   -0.9190   -2.3230 hc        1 CS5      0.086367
     83 H333        2.2010   -2.1760   -1.2980 hc        1 CS5      0.086367
     84 H11        -1.9110    1.8500   -0.6780 hn        1 CS5      0.447800
     85 H221        4.7910   -0.3370    2.2860 hn        1 CS5      0.482800
     86 H32         7.2340    2.3120    6.0710 hn        1 CS5      0.455300
@<TRIPOS>BOND
     1    1    2 ar  
     2    1    6 ar  
     3    1   43 1   
     4    2    3 ar  
     5    2   40 1   
     6    3    4 ar  
     7    3   44 1   
     8    4    5 ar  
     9    4   16 1   
    10    5    6 ar  
    11    5   45 1   
    12    6    7 1   
    13    7    8 1   
    14    7    9 2   
    15    8   10 1   
    16    8   13 1   
    17    8   84 1   
    18   10   11 1   
    19   10   46 1   
    20   10   47 1   
    21   11   12 1   
    22   11   48 1   
    23   11   49 1   
    24   12   50 1   
    25   12   51 1   
    26   12   52 1   
    27   13   14 1   
    28   13   53 1   
    29   13   54 1   
    30   14   15 1   
    31   14   55 1   
    32   14   56 1   
    33   15   57 1   
    34   15   58 1   
    35   15   59 1   
    36   16   17 1   
    37   16   18 2   
    38   17   19 1   
    39   17   60 1   
    40   17   85 1   
    41   19   20 1   
    42   19   21 1   
    43   19   61 1   
    44   20   22 1   
    45   20   23 1   
    46   20   62 1   
    47   21   27 1   
    48   21   63 1   
    49   21   64 1   
    50   22   65 1   
    51   23   24 1   
    52   23   66 1   
    53   23   67 1   
    54   24   25 1   
    55   24   68 1   
    56   24   86 1   
    57   25   26 1   
    58   25   69 1   
    59   25   70 1   
    60   26   33 ar  
    61   26   37 ar  
    62   27   28 ar  
    63   27   32 ar  
    64   28   29 ar  
    65   28   71 1   
    66   29   30 ar  
    67   29   41 1   
    68   30   31 ar  
    69   30   72 1   
    70   31   32 ar  
    71   31   42 1   
    72   32   73 1   
    73   33   34 ar  
    74   33   74 1   
    75   34   35 ar  
    76   34   75 1   
    77   35   36 ar  
    78   35   76 1   
    79   36   37 ar  
    80   36   38 1   
    81   37   77 1   
    82   38   39 1   
    83   39   78 1   
    84   39   79 1   
    85   39   80 1   
    86   40   81 1   
    87   40   82 1   
    88   40   83 1   
@<TRIPOS>SUBSTRUCTURE
     1 CS5         1 TEMP              0 ****  ****    0 ROOT
