@<TRIPOS>MOLECULE
CS5
   83    85     1     0     0
SMALL
bcc


@<TRIPOS>ATOM
      1 C1         -4.1430    2.1550   -2.1740 ca        1 CS5     -0.078000
      2 C2         -2.8280    2.3380   -2.6200 ca        1 CS5     -0.083300
      3 C3         -1.7800    1.6830   -1.9640 ca        1 CS5     -0.097000
      4 C4         -2.0450    0.8570   -0.8690 ca        1 CS5     -0.139600
      5 C5         -3.3570    0.6850   -0.4140 ca        1 CS5     -0.060000
      6 C6         -4.4020    1.3380   -1.0720 ca        1 CS5     -0.126600
      7 C7         -5.8180    1.1100   -0.6510 c         1 CS5      0.671700
      8 N1         -6.2690    1.6870    0.5270 n         1 CS5     -0.469800
      9 O1         -6.5760    0.4070   -1.3490 o         1 CS5     -0.596100
     10 C8         -7.6420    1.4980    0.9430 c3        1 CS5      0.089500
     11 C9         -7.8230    0.4890    2.0800 c3        1 CS5     -0.100900
     12 C10        -9.2800    0.3860    2.4510 c3        1 CS5     -0.093600
     13 C11        -5.4630    2.5940    1.3070 c3        1 CS5      0.089500
     14 C12        -5.5970    4.0700    0.9220 c3        1 CS5     -0.100900
     15 C13        -4.7390    4.9200    1.8220 c3        1 CS5     -0.093600
     16 C14        -0.9500    0.1650   -0.1290 c         1 CS5      0.677700
     17 N2          0.0290   -0.4460   -0.8890 n         1 CS5     -0.561900
     18 O2         -0.9340    0.1140    1.1170 o         1 CS5     -0.603100
     19 C15         1.1880   -1.0760   -0.3060 c3        1 CS5      0.078700
     20 C16         2.4780   -0.2690   -0.6280 c3        1 CS5      0.106100
     21 C17         1.3440   -2.5380   -0.7700 c3        1 CS5     -0.057100
     22 O3          2.7920   -0.3120   -2.0080 oh        1 CS5     -0.597800
     23 C18         3.6580   -0.7520    0.2340 c3        1 CS5      0.139800
     24 N3          4.7780    0.1620    0.1790 n3        1 CS5     -0.825200
     25 C19         5.9790   -0.3710    0.7960 c3        1 CS5      0.211100
     26 C20         7.2220    0.3990    0.4560 ca        1 CS5     -0.067300
     27 C21         0.2180   -3.4050   -0.3250 ca        1 CS5     -0.024300
     28 C22         0.0570   -3.6910    1.0340 ca        1 CS5     -0.176500
     29 C23        -0.9920   -4.5290    1.4500 ca        1 CS5      0.157400
     30 C24        -1.8820   -5.0880    0.5180 ca        1 CS5     -0.207000
     31 C25        -1.7030   -4.7900   -0.8420 ca        1 CS5      0.157400
     32 C26        -0.6570   -3.9510   -1.2660 ca        1 CS5     -0.176500
     33 C27         8.3770   -0.2940    0.0700 ca        1 CS5     -0.161000
     34 C28         9.5480    0.4040   -0.2120 ca        1 CS5     -0.097000
     35 C29         9.5880    1.7950   -0.1180 ca        1 CS5     -0.201000
     36 C30         8.4310    2.4820    0.2660 ca        1 CS5      0.121100
     37 C31         7.2410    1.7880    0.5580 ca        1 CS5     -0.135000
     38 O4          8.3420    3.8550    0.3940 os        1 CS5     -0.325900
     39 C32         9.5300    4.5890    0.1180 c3        1 CS5      0.113700
     40 C33        -2.5510    3.2250   -3.7730 c3        1 CS5     -0.056800
     41 F2         -1.1460   -4.8070    2.7660 f         1 CS5     -0.133900
     42 F1         -2.5490   -5.3190   -1.7580 f         1 CS5     -0.133900
     43 H1         -4.9750    2.6510   -2.6970 ha        1 CS5      0.148000
     44 H3         -0.7470    1.8370   -2.3120 ha        1 CS5      0.140000
     45 H5         -3.5520    0.0410    0.4590 ha        1 CS5      0.163000
     46 H81        -8.0520    2.4950    1.2750 h1        1 CS5      0.057950
     47 H82        -8.2470    1.1490    0.0560 h1        1 CS5      0.057950
     48 H91        -7.4420   -0.5160    1.7580 hc        1 CS5      0.046450
     49 H92        -7.2250    0.8030    2.9750 hc        1 CS5      0.046450
     50 H101       -9.6740    1.3740    2.7920 hc        1 CS5      0.036367
     51 H102       -9.8870    0.0490    1.5760 hc        1 CS5      0.036367
     52 H103       -9.4140   -0.3510    3.2790 hc        1 CS5      0.036367
     53 H111       -5.7610    2.4780    2.3900 h1        1 CS5      0.057950
     54 H112       -4.3780    2.2970    1.2220 h1        1 CS5      0.057950
     55 H121       -5.2850    4.2130   -0.1460 hc        1 CS5      0.046450
     56 H122       -6.6680    4.3920    1.0040 hc        1 CS5      0.046450
     57 H131       -5.0510    4.8090    2.8890 hc        1 CS5      0.036367
     58 H132       -3.6640    4.6250    1.7400 hc        1 CS5      0.036367
     59 H133       -4.8320    5.9960    1.5380 hc        1 CS5      0.036367
     60 HN2         0.0300   -0.3310   -1.8750 hn        1 CS5      0.319500
     61 H15         1.0580   -1.0730    0.8200 h1        1 CS5      0.101700
     62 H16         2.2870    0.8280   -0.4310 h1        1 CS5      0.103700
     63 H171        1.4350   -2.5750   -1.8880 hc        1 CS5      0.057200
     64 H172        2.2980   -2.9410   -0.3360 hc        1 CS5      0.057200
     65 HO3         3.0830   -1.2090   -2.2160 ho        1 CS5      0.397000
     66 H181        3.3210   -0.8160    1.3060 h1        1 CS5      0.035700
     67 H182        3.9460   -1.7950   -0.0980 h1        1 CS5      0.035700
     68 HN3         4.9510    0.4590   -0.7640 hn        1 CS5      0.375800
     69 H191        5.8240   -0.3220    1.9140 h1        1 CS5      0.039200
     70 H192        6.1410   -1.4600    0.5320 h1        1 CS5      0.039200
     71 H22         0.7360   -3.2600    1.7830 ha        1 CS5      0.152500
     72 H24        -2.7020   -5.7420    0.8460 ha        1 CS5      0.166000
     73 H26        -0.5420   -3.7320   -2.3380 ha        1 CS5      0.152500
     74 H27         8.3610   -1.3910   -0.0090 ha        1 CS5      0.132000
     75 H28        10.4540   -0.1440   -0.5120 ha        1 CS5      0.132000
     76 H29        10.5190    2.3320   -0.3450 ha        1 CS5      0.137000
     77 H31         6.3460    2.3510    0.8630 ha        1 CS5      0.164000
     78 H321       10.3470    4.2960    0.8210 h1        1 CS5      0.044033
     79 H322        9.8510    4.4370   -0.9410 h1        1 CS5      0.044033
     80 H323        9.2240    5.6520    0.2890 h1        1 CS5      0.044033
     81 H331       -2.4460    4.2840   -3.4230 hc        1 CS5      0.049367
     82 H332       -1.6040    2.9320   -4.2890 hc        1 CS5      0.049367
     83 H333       -3.3860    3.1850   -4.5170 hc        1 CS5      0.049367
@<TRIPOS>BOND
     1    1    2 ar  
     2    1    6 ar  
     3    1   43 1   
     4    2    3 ar  
     5    2   40 1   
     6    3    4 ar  
     7    3   44 1   
     8    4    5 ar  
     9    4   16 1   
    10    5    6 ar  
    11    5   45 1   
    12    6    7 1   
    13    7    8 1   
    14    7    9 2   
    15    8   10 1   
    16    8   13 1   
    17   10   11 1   
    18   10   46 1   
    19   10   47 1   
    20   11   12 1   
    21   11   48 1   
    22   11   49 1   
    23   12   50 1   
    24   12   51 1   
    25   12   52 1   
    26   13   14 1   
    27   13   53 1   
    28   13   54 1   
    29   14   15 1   
    30   14   55 1   
    31   14   56 1   
    32   15   57 1   
    33   15   58 1   
    34   15   59 1   
    35   16   17 1   
    36   16   18 2   
    37   17   19 1   
    38   17   60 1   
    39   19   20 1   
    40   19   21 1   
    41   19   61 1   
    42   20   22 1   
    43   20   23 1   
    44   20   62 1   
    45   21   27 1   
    46   21   63 1   
    47   21   64 1   
    48   22   65 1   
    49   23   24 1   
    50   23   66 1   
    51   23   67 1   
    52   24   25 1   
    53   24   68 1   
    54   25   26 1   
    55   25   69 1   
    56   25   70 1   
    57   26   33 ar  
    58   26   37 ar  
    59   27   28 ar  
    60   27   32 ar  
    61   28   29 ar  
    62   28   71 1   
    63   29   30 ar  
    64   29   41 1   
    65   30   31 ar  
    66   30   72 1   
    67   31   32 ar  
    68   31   42 1   
    69   32   73 1   
    70   33   34 ar  
    71   33   74 1   
    72   34   35 ar  
    73   34   75 1   
    74   35   36 ar  
    75   35   76 1   
    76   36   37 ar  
    77   36   38 1   
    78   37   77 1   
    79   38   39 1   
    80   39   78 1   
    81   39   79 1   
    82   39   80 1   
    83   40   81 1   
    84   40   82 1   
    85   40   83 1   
@<TRIPOS>SUBSTRUCTURE
     1 CS5         1 TEMP              0 ****  ****    0 ROOT
