@<TRIPOS>MOLECULE
CS7
   87    90     1     0     0
SMALL
bcc


@<TRIPOS>ATOM
      1 F1          2.7220    3.6420    2.3720 f         1 CS7     -0.134900
      2 F2          2.4710    6.5490   -1.3930 f         1 CS7     -0.134900
      3 N1          0.1010    0.9620   -1.1380 n         1 CS7     -0.558900
      4 C1         -1.0550    1.6460   -0.6090 c3        1 CS7      0.076700
      5 C2         -2.3610    1.0810   -1.2450 c3        1 CS7      0.108100
      6 C3         -3.6380    1.7560   -0.7070 c3        1 CS7      0.127500
      7 O1         -2.3180    1.1640   -2.6590 oh        1 CS7     -0.594800
      8 N2         -3.7960    1.7050    0.7500 n3        1 CS7     -0.785200
      9 C4         -5.1920    1.4010    1.0430 c3        1 CS7      0.117800
     10 C5         -5.8900    0.8900   -0.2430 c3        1 CS7      0.116100
     11 C6         -4.8850    1.1310   -1.3760 c3        1 CS7     -0.102400
     12 C8          0.2870    3.8030   -0.3520 ca        1 CS7     -0.022300
     13 C9          0.9310    3.3860    0.8150 ca        1 CS7     -0.181000
     14 C10         2.1000    4.0450    1.2390 ca        1 CS7      0.154900
     15 C11         2.6330    5.1170    0.5050 ca        1 CS7     -0.209000
     16 C12         1.9740    5.5180   -0.6670 ca        1 CS7      0.154900
     17 C13         0.8050    4.8660   -1.0970 ca        1 CS7     -0.181000
     18 C14         4.2830   -1.3580   -1.0500 ca        1 CS7     -0.127600
     19 C15         4.0720   -2.0040   -2.2700 ca        1 CS7     -0.077000
     20 C16         2.8130   -1.9570   -2.8820 ca        1 CS7     -0.084300
     21 C17         1.7750   -1.2460   -2.2690 ca        1 CS7     -0.096000
     22 C18         1.9940   -0.5930   -1.0530 ca        1 CS7     -0.139600
     23 C19         3.2480   -0.6500   -0.4350 ca        1 CS7     -0.059000
     24 C22         2.5840   -2.6620   -4.1640 c3        1 CS7     -0.056800
     25 N3          5.8760   -2.1140    0.7000 n         1 CS7     -0.469800
     26 O3          6.5740   -0.7140   -0.9740 o         1 CS7     -0.596100
     27 O4         -6.1160   -0.5160   -0.1820 os        1 CS7     -0.419600
     28 C23        -7.3120   -0.8540    0.5230 c3        1 CS7      0.174700
     29 C24        -7.4180   -2.3400    0.6110 ca        1 CS7     -0.091300
     30 C25        -6.7190   -3.1790   -0.2610 ca        1 CS7     -0.115000
     31 C26        -6.8630   -4.5630   -0.1640 ca        1 CS7     -0.131000
     32 C27        -7.7060   -5.1140    0.8000 ca        1 CS7     -0.127000
     33 C28        -8.4050   -4.2790    1.6720 ca        1 CS7     -0.131000
     34 C29        -8.2610   -2.8960    1.5810 ca        1 CS7     -0.115000
     35 C30         4.8740   -2.9750    1.2780 c3        1 CS7      0.090000
     36 C31         4.8840   -4.4160    0.7580 c3        1 CS7     -0.100900
     37 C32         3.8220   -5.2250    1.4550 c3        1 CS7     -0.093100
     38 C33         7.1970   -2.1480    1.2910 c3        1 CS7      0.090000
     39 C34         7.3500   -1.2820    2.5430 c3        1 CS7     -0.100900
     40 C35         8.7490   -1.4080    3.0890 c3        1 CS7     -0.093100
     41 HN1         0.2090    0.9630   -2.1240 hn        1 CS7      0.321500
     42 H1         -1.0990    1.4350    0.5040 h1        1 CS7      0.100700
     43 H2         -2.4090   -0.0300   -1.0450 h1        1 CS7      0.089700
     44 H3         -3.6020    2.8510   -0.9820 h1        1 CS7      0.059700
     45 HO1        -2.4260    2.0920   -2.9030 ho        1 CS7      0.401000
     46 HN2        -3.1990    0.9970    1.1410 hn        1 CS7      0.359800
     47 H41        -5.2850    0.6450    1.8670 h1        1 CS7      0.060200
     48 H42        -5.6800    2.3560    1.3780 h1        1 CS7      0.060200
     49 H5         -6.8560    1.4320   -0.4180 h1        1 CS7      0.052700
     50 H61        -5.3090    1.8270   -2.1360 hc        1 CS7      0.070700
     51 H62        -4.6280    0.1690   -1.8870 hc        1 CS7      0.070700
     52 H71        -1.1630    3.4190   -1.8810 hc        1 CS7      0.062200
     53 H72        -1.8220    3.6250   -0.2000 hc        1 CS7      0.062200
     54 H9          0.5510    2.5330    1.4010 ha        1 CS7      0.160500
     55 H11         3.5470    5.6280    0.8390 ha        1 CS7      0.165000
     56 H13         0.3100    5.2020   -2.0190 ha        1 CS7      0.160500
     57 H15         4.9000   -2.5430   -2.7560 ha        1 CS7      0.148000
     58 H17         0.7850   -1.2190   -2.7490 ha        1 CS7      0.141000
     59 H19         3.4050   -0.1400    0.5290 ha        1 CS7      0.164000
     60 H221        2.3280   -3.7350   -3.9680 hc        1 CS7      0.049367
     61 H222        1.7400   -2.2000   -4.7320 hc        1 CS7      0.049367
     62 H223        3.5000   -2.6320   -4.8030 hc        1 CS7      0.049367
     63 H231       -7.2850   -0.3980    1.5500 h1        1 CS7      0.037200
     64 H232       -8.1970   -0.4400   -0.0360 h1        1 CS7      0.037200
     65 H25        -6.0510   -2.7400   -1.0180 ha        1 CS7      0.138500
     66 H26        -6.3090   -5.2200   -0.8510 ha        1 CS7      0.132000
     67 H27        -7.8190   -6.2050    0.8750 ha        1 CS7      0.131000
     68 H28        -9.0690   -4.7110    2.4350 ha        1 CS7      0.132000
     69 H29        -8.8090   -2.2400    2.2730 ha        1 CS7      0.138500
     70 H301        5.0400   -2.9980    2.3950 h1        1 CS7      0.057950
     71 H302        3.8520   -2.5350    1.0970 h1        1 CS7      0.057950
     72 H311        4.7010   -4.4200   -0.3480 hc        1 CS7      0.046450
     73 H312        5.8900   -4.8800    0.9320 hc        1 CS7      0.046450
     74 H321        3.8250   -6.2740    1.0720 hc        1 CS7      0.036033
     75 H322        4.0030   -5.2520    2.5570 hc        1 CS7      0.036033
     76 H323        2.8090   -4.7880    1.2770 hc        1 CS7      0.036033
     77 H331        7.4380   -3.2170    1.5580 h1        1 CS7      0.057950
     78 H332        7.9490   -1.8020    0.5230 h1        1 CS7      0.057950
     79 H341        7.1360   -0.2100    2.2900 hc        1 CS7      0.046450
     80 H342        6.6090   -1.5960    3.3240 hc        1 CS7      0.046450
     81 H351        9.5000   -1.0740    2.3320 hc        1 CS7      0.036033
     82 H352        8.8630   -0.7740    4.0020 hc        1 CS7      0.036033
     83 H353        8.9750   -2.4660    3.3640 hc        1 CS7      0.036033
     84 C7         -0.9850    3.1710   -0.8000 c3        1 CS7     -0.054100
     85 C21         0.9040    0.1520   -0.3600 c         1 CS7      0.677700
     86 C20         5.6520   -1.3700   -0.4490 c         1 CS7      0.671700
     87 O2          0.7430    0.0760    0.8770 o         1 CS7     -0.614100
@<TRIPOS>BOND
     1    1   14 1   
     2    2   16 1   
     3    3    4 1   
     4    3   41 1   
     5    3   85 1   
     6    4    5 1   
     7    4   42 1   
     8    4   84 1   
     9    5    6 1   
    10    5    7 1   
    11    5   43 1   
    12    6    8 1   
    13    6   11 1   
    14    6   44 1   
    15    7   45 1   
    16    8    9 1   
    17    8   46 1   
    18    9   10 1   
    19    9   47 1   
    20    9   48 1   
    21   10   11 1   
    22   10   27 1   
    23   10   49 1   
    24   11   50 1   
    25   11   51 1   
    26   12   13 ar  
    27   12   17 ar  
    28   12   84 1   
    29   13   14 ar  
    30   13   54 1   
    31   14   15 ar  
    32   15   16 ar  
    33   15   55 1   
    34   16   17 ar  
    35   17   56 1   
    36   18   19 ar  
    37   18   23 ar  
    38   18   86 1   
    39   19   20 ar  
    40   19   57 1   
    41   20   21 ar  
    42   20   24 1   
    43   21   22 ar  
    44   21   58 1   
    45   22   23 ar  
    46   22   85 1   
    47   23   59 1   
    48   24   60 1   
    49   24   61 1   
    50   24   62 1   
    51   25   35 1   
    52   25   38 1   
    53   25   86 1   
    54   26   86 2   
    55   27   28 1   
    56   28   29 1   
    57   28   63 1   
    58   28   64 1   
    59   29   30 ar  
    60   29   34 ar  
    61   30   31 ar  
    62   30   65 1   
    63   31   32 ar  
    64   31   66 1   
    65   32   33 ar  
    66   32   67 1   
    67   33   34 ar  
    68   33   68 1   
    69   34   69 1   
    70   35   36 1   
    71   35   70 1   
    72   35   71 1   
    73   36   37 1   
    74   36   72 1   
    75   36   73 1   
    76   37   74 1   
    77   37   75 1   
    78   37   76 1   
    79   38   39 1   
    80   38   77 1   
    81   38   78 1   
    82   39   40 1   
    83   39   79 1   
    84   39   80 1   
    85   40   81 1   
    86   40   82 1   
    87   40   83 1   
    88   52   84 1   
    89   53   84 1   
    90   85   87 2   
@<TRIPOS>SUBSTRUCTURE
     1 CS7         1 TEMP              0 ****  ****    0 ROOT
