@<TRIPOS>MOLECULE
CS7
   87    85     1     0     0
SMALL
bcc


@<TRIPOS>ATOM
      1 F1         -5.7220   -3.7120   -1.6630 f         1 CS7     -0.102000
      2 F2         -3.3480   -4.1930   -5.7170 f         1 CS7     -0.102000
      3 N1         -0.0560   -1.5100   -1.3700 n         1 CS7     -0.371000
      4 C1         -0.7170   -2.5190   -0.6270 c3        1 CS7      0.045000
      5 C2          0.0840   -2.8370    0.6120 c3        1 CS7      0.019000
      6 C3         -0.8610   -3.3330    1.7310 c3        1 CS7     -0.067000
      7 O1          1.0090   -3.8260    0.3180 oh        1 CS7     -0.340000
      8 N2         -1.3250   -2.1010    2.6530 n3        1 CS7     -0.271000
      9 C4         -1.0840   -2.5710    4.1280 c3        1 CS7     -0.120000
     10 C5         -0.8510   -3.8820    4.0430 c3        1 CS7      0.007000
     11 C6         -0.2240   -4.1420    2.5350 c3        1 CS7     -0.185000
     12 C7         -0.8510   -3.7890   -1.4840 c3        1 CS7     -0.139000
     13 C8         -2.1800   -3.7480   -2.2690 ca        1 CS7     -0.017000
     14 C9         -3.3660   -3.7020   -1.5990 ca        1 CS7     -0.182500
     15 C10        -4.5710   -3.8110   -2.3030 ca        1 CS7      0.118000
     16 C11        -4.5560   -3.9650   -3.6850 ca        1 CS7     -0.211000
     17 C12        -3.3620   -4.0110   -4.3590 ca        1 CS7      0.118000
     18 C13        -2.1690   -3.9040   -3.6650 ca        1 CS7     -0.182500
     19 C14         0.4090    3.3240   -2.5900 c1        1 CS7     -0.107000
     20 C15         1.7260    3.1150   -3.0420 c2        1 CS7     -0.078000
     21 C16         2.2830    1.8320   -3.0100 c1        1 CS7     -0.078000
     22 C17         1.5300    0.7510   -2.5280 c1        1 CS7     -0.096000
     23 C18         0.2020    0.9610   -2.0720 c1        1 CS7     -0.118000
     24 C19        -0.3500    2.2400   -2.1050 c1        1 CS7     -0.060000
     25 C20        -0.1740    4.7920   -2.5120 c1        1 CS7      0.346000
     26 C21        -0.6460   -0.2490   -1.5130 c2        1 CS7      0.350000
     27 O2         -1.8180   -0.0590   -1.1120 o         1 CS7     -0.374000
     28 C22         3.7750    1.6140   -3.4720 c3        1 CS7     -0.181000
     29 N3          0.6610    5.9400   -2.9140 n3        1 CS7     -0.329000
     30 O3         -1.3220    4.9720   -2.1560 o         1 CS7     -0.358000
     31 O4          0.1000   -4.2820    5.0460 os        1 CS7     -0.270000
     32 C23        -0.4530   -4.3840    6.3680 c3        1 CS7      0.017000
     33 C24         0.5750   -4.9720    7.2980 c2        1 CS7     -0.083000
     34 C25         0.8270   -6.3370    7.2720 c2        1 CS7     -0.103000
     35 C26         1.7580   -6.8880    8.1390 c1        1 CS7     -0.132000
     36 C27         2.4380   -6.0740    9.0360 c1        1 CS7     -0.127500
     37 C28         2.1860   -4.7100    9.0640 c1        1 CS7     -0.127500
     38 C29         1.2500   -4.1580    8.1900 c1        1 CS7     -0.127000
     39 C30         1.5740    6.5260   -1.9790 c3        1 CS7     -0.026500
     40 C31         1.6590    7.9770   -2.2220 c3        1 CS7     -0.179500
     41 C32         1.7290    8.7040   -0.9030 c3        1 CS7     -0.211000
     42 C33         0.5380    6.5080   -4.2970 c3        1 CS7     -0.026500
     43 C34        -0.7550    7.2920   -4.4110 c3        1 CS7     -0.179500
     44 C35        -0.6680    8.2650   -5.6230 c3        1 CS7     -0.211000
     45 HN1         0.7490   -1.6910   -1.7770 hn        1 CS7      0.237000
     46 H1         -1.6050   -2.2030   -0.3700 h1        1 CS7      0.153000
     47 H2          0.5600   -2.0190    0.9190 h1        1 CS7      0.098000
     48 H3         -1.6400   -3.7820    1.3460 h1        1 CS7      0.095000
     49 HO1         1.7880   -3.6050    0.6480 ho        1 CS7      0.203000
     50 HN2        -2.1970   -1.9490    2.5290 hn        1 CS7      0.153000
     51 H41        -0.3120   -2.1130    4.5070 h1        1 CS7      0.102000
     52 H42        -1.8990   -2.4000    4.6840 h1        1 CS7      0.102000
     53 H5         -1.6710   -4.3710    4.1500 h1        1 CS7      0.085000
     54 H61        -0.3750   -5.0760    2.2640 hc        1 CS7      0.102500
     55 H62         0.7120   -3.9440    2.5280 hc        1 CS7      0.102500
     56 H71        -0.1070   -3.8380   -2.1090 hc        1 CS7      0.104000
     57 H72        -0.8400   -4.5700   -0.9060 hc        1 CS7      0.104000
     58 H9         -3.3740   -3.6640   -0.6180 ha        1 CS7      0.162500
     59 H11        -5.4240   -4.0120   -4.1960 ha        1 CS7      0.164000
     60 H13        -1.3250   -4.0140   -4.1350 ha        1 CS7      0.162500
     61 H15         2.2380    3.8480   -3.3690 ha        1 CS7      0.148000
     62 H17         1.9260   -0.1600   -2.5050 ha        1 CS7      0.139000
     63 H19        -1.2370    2.3810   -1.8010 ha        1 CS7      0.164000
     64 H221        3.9090    2.0290   -4.3510 hc        1 CS7      0.087667
     65 H222        3.9640    0.6550   -3.5310 hc        1 CS7      0.087667
     66 H223        4.3840    2.0280   -2.8180 hc        1 CS7      0.087667
     67 H231       -1.2390   -4.9610    6.3470 h1        1 CS7      0.077500
     68 H232       -0.7120   -3.4820    6.6890 h1        1 CS7      0.077500
     69 H25         0.3420   -6.9170    6.6320 ha        1 CS7      0.146000
     70 H26         1.9320   -7.8400    8.1190 ha        1 CS7      0.132000
     71 H27         3.0980   -6.4660    9.6520 ha        1 CS7      0.132000
     72 H28         2.6630   -4.1380    9.6930 ha        1 CS7      0.132000
     73 H29         1.0670   -3.1730    8.2090 ha        1 CS7      0.130000
     74 H301        1.2580    6.3670   -1.0720 h1        1 CS7      0.097000
     75 H302        2.4480    6.1290   -2.0890 h1        1 CS7      0.097000
     76 H311        0.8600    8.2730   -2.7190 hc        1 CS7      0.085750
     77 H312        2.4640    8.1740   -2.7490 hc        1 CS7      0.085750
     78 H321        1.4220    9.6250   -1.0220 hc        1 CS7      0.075333
     79 H322        1.1520    8.2460   -0.2430 hc        1 CS7      0.075333
     80 H323        2.6570    8.7060   -0.5800 hc        1 CS7      0.075333
     81 H331        1.2960    7.1020   -4.4750 h1        1 CS7      0.097000
     82 H332        0.5360    5.7940   -4.9350 h1        1 CS7      0.097000
     83 H341       -0.8970    7.7960   -3.6040 hc        1 CS7      0.085750
     84 H342       -1.4960    6.6760   -4.5420 hc        1 CS7      0.085750
     85 H351        0.1480    8.8090   -5.5490 hc        1 CS7      0.075333
     86 H352       -0.6430    7.7460   -6.4600 hc        1 CS7      0.075333
     87 H353       -1.4610    8.8590   -5.6270 hc        1 CS7      0.075333
@<TRIPOS>BOND
     1    1   15 1   
     2    2   17 1   
     3    3    4 1   
     4    3   26 1   
     5    3   45 1   
     6    4    5 1   
     7    4   12 1   
     8    4   46 1   
     9    5    6 1   
    10    5    7 1   
    11    5   47 1   
    12    6    8 1   
    13    6   11 1   
    14    6   48 1   
    15    7   49 1   
    16    8    9 1   
    17    8   50 1   
    18    9   10 1   
    19    9   51 1   
    20    9   52 1   
    21   10   11 1   
    22   10   31 1   
    23   10   53 1   
    24   11   54 1   
    25   11   55 1   
    26   12   13 1   
    27   12   56 1   
    28   12   57 1   
    29   13   14 1   
    30   13   18 1   
    31   14   15 1   
    32   14   58 1   
    33   15   16 1   
    34   16   17 1   
    35   16   59 1   
    36   17   18 1   
    37   18   60 1   
    38   19   20 1   
    39   19   24 1   
    40   20   21 1   
    41   20   61 1   
    42   21   28 1   
    43   22   23 1   
    44   22   62 1   
    45   23   26 1   
    46   24   63 1   
    47   25   29 1   
    48   25   30 1   
    49   26   27 1   
    50   28   64 1   
    51   28   65 1   
    52   28   66 1   
    53   29   39 1   
    54   29   42 1   
    55   31   32 1   
    56   32   33 1   
    57   32   67 1   
    58   32   68 1   
    59   33   34 1   
    60   33   38 1   
    61   34   35 1   
    62   34   69 1   
    63   35   70 1   
    64   36   37 1   
    65   36   71 1   
    66   37   72 1   
    67   38   73 1   
    68   39   40 1   
    69   39   74 1   
    70   39   75 1   
    71   40   41 1   
    72   40   76 1   
    73   40   77 1   
    74   41   78 1   
    75   41   79 1   
    76   41   80 1   
    77   42   43 1   
    78   42   81 1   
    79   42   82 1   
    80   43   44 1   
    81   43   83 1   
    82   43   84 1   
    83   44   85 1   
    84   44   86 1   
    85   44   87 1   
@<TRIPOS>SUBSTRUCTURE
     1 CS7         1 TEMP              0 ****  ****    0 ROOT
