@<TRIPOS>MOLECULE
CS7
   89    85     1     0     0
SMALL
bcc


@<TRIPOS>ATOM
      1 F1         -8.1730   -8.1030  -33.1740 f         1 CS7     -0.113000
      2 F2         -5.3880  -11.3170  -31.0270 f         1 CS7     -0.113000
      3 N1         -9.0100   -5.8320  -35.0280 n2        1 CS7     -0.342000
      4 C1         -9.1970   -5.2450  -33.9050 c2        1 CS7      0.002000
      5 C2         -9.4920   -3.7720  -33.7330 c3        1 CS7      0.042000
      6 C3         -8.3280   -3.0890  -32.9560 c3        1 CS7     -0.038000
      7 O1         -9.6530   -3.1430  -35.0010 oh        1 CS7     -0.382000
      8 N2         -8.1150   -3.7260  -31.6750 n3        1 CS7     -0.363000
      9 C4         -9.9760   -0.9470  -30.8900 c2        1 CS7     -0.304000
     10 C5         -9.8530   -1.2280  -32.1940 c2        1 CS7      0.018000
     11 C6         -8.5790   -1.5700  -32.8880 c3        1 CS7     -0.167000
     12 C8         -5.9690   -7.7840  -30.2700 ca        1 CS7     -0.010000
     13 C9         -6.8820   -7.4500  -31.2750 ca        1 CS7     -0.182000
     14 C10        -7.2880   -8.4300  -32.1960 ca        1 CS7      0.113500
     15 C11        -6.7960   -9.7420  -32.1270 ca        1 CS7     -0.209000
     16 C12        -5.8780  -10.0580  -31.1110 ca        1 CS7      0.113500
     17 C13        -5.4640   -9.0840  -30.1850 ca        1 CS7     -0.182000
     18 C14        -3.2880   -2.7270  -37.4890 c2        1 CS7     -0.185000
     19 C15        -2.7550   -1.4850  -36.9740 c2        1 CS7     -0.159000
     20 C16        -1.5230   -1.0600  -37.3220 c2        1 CS7     -0.057000
     21 C17        -0.6260   -1.8370  -38.2230 c3        1 CS7     -0.052000
     22 C18        -1.2660   -3.0600  -38.7980 c2        1 CS7     -0.288000
     23 C19        -2.5810   -3.4610  -38.3910 c2        1 CS7      0.042000
     24 O4        -10.9190   -1.2440  -33.0780 oh        1 CS7     -0.303000
     25 C23        77.4660   47.2870  221.5580 c1        1 CS7      0.398000
     26 C24        78.1680   47.5850  222.6480 c2        1 CS7     -0.532000
     27 C25        79.6930   47.7360  222.6540 c3        1 CS7     -0.032000
     28 C26        79.9310   48.0550  224.0610 cu        1 CS7      0.032000
     29 C27        79.9520   48.3420  225.4190 cu        1 CS7      0.121000
     30 C28        78.7200   48.0980  224.8300 cu        1 CS7      0.032000
     31 C29        77.5330   47.8120  224.0240 c3        1 CS7     -0.032000
     32 C30        -4.2410   -2.8790  -34.6630 c2        1 CS7      0.301000
     33 C31        -4.7230   -2.8550  -33.4080 c1        1 CS7     -0.661000
     34 C32        -5.1490   -2.8280  -32.2220 c1        1 CS7      0.138000
     35 C33        -9.4770   -4.8160  -38.9600 cx        1 CS7     -0.266000
     36 C34        -8.0720   -4.3430  -38.6450 cx        1 CS7     -0.266000
     37 C35        -9.0380   -4.5760  -37.5910 cu        1 CS7      0.280000
     38 HN1        -8.8270   -6.8130  -34.9830 hn        1 CS7      0.179000
     39 H1         -4.4850   -6.9250  -28.9720 hc        1 CS7      0.096000
     40 H2        -10.4510   -3.6790  -33.1450 h1        1 CS7      0.120000
     41 H3         -7.3860   -3.2310  -33.5700 h1        1 CS7      0.104000
     42 HO1       -10.1620   -2.3340  -34.8410 ho        1 CS7      0.243000
     43 HN2        -9.1540   -5.7730  -32.9220 h4        1 CS7      0.150000
     44 H41        -8.7750   -3.3920  -30.9980 hn        1 CS7      0.173500
     45 H42        -7.1800   -3.5500  -31.3500 hn        1 CS7      0.173500
     46 H5         -9.1090   -0.9420  -30.2200 ha        1 CS7      0.136500
     47 H61        -8.5960   -1.1540  -33.9300 hc        1 CS7      0.114000
     48 H62        -7.7220   -1.0850  -32.3430 hc        1 CS7      0.114000
     49 H71        -6.1930   -6.8260  -28.3730 hc        1 CS7      0.096000
     50 H72        -5.6370   -5.7310  -29.7090 hc        1 CS7      0.096000
     51 H9         -7.2850   -6.4280  -31.3470 ha        1 CS7      0.160500
     52 H11        -7.1210  -10.5070  -32.8450 ha        1 CS7      0.165000
     53 H13        -4.7450   -9.3550  -29.3970 ha        1 CS7      0.160500
     54 H15        -0.2830   -1.1610  -39.0560 hc        1 CS7      0.102500
     55 H17         0.2930   -2.1320  -37.6400 hc        1 CS7      0.102500
     56 H19        -3.0050   -4.3850  -38.8220 ha        1 CS7      0.140000
     57 H221       -0.0270    0.0260  -36.2410 hc        1 CS7      0.096667
     58 H222       -0.7010    0.8840  -37.6890 hc        1 CS7      0.096667
     59 H223       -1.6890    0.7580  -36.1710 hc        1 CS7      0.096667
     60 H231      -10.9370   -0.6920  -30.4270 ha        1 CS7      0.136500
     61 H232      -11.7090   -0.9290  -32.6150 ho        1 CS7      0.232000
     62 H25        80.2130   46.7870  222.3430 hc        1 CS7      0.185000
     63 H26        80.0390   48.5620  221.9710 hc        1 CS7      0.185000
     64 H27        80.5250   48.5860  226.3080 ha        1 CS7      0.273000
     65 H28        76.8090   48.6750  224.0200 hc        1 CS7      0.185000
     66 H29        76.9840   46.9000  224.3930 hc        1 CS7      0.185000
     67 H301       -3.6390    0.2530  -34.1700 ha        1 CS7      0.006750
     68 H302       -3.8450   -0.3810  -34.0430 ha        1 CS7      0.006750
     69 H311       -3.3970   -0.8730  -36.3180 ha        1 CS7      0.138000
     70 H312       -3.9260    1.3980  -36.0350 ha        1 CS7      0.006750
     71 H321       -5.6000   -0.5070  -31.6040 ha        1 CS7      0.006750
     72 H322       -5.3390   -0.3680  -32.2150 ha        1 CS7      0.006750
     73 H323       -3.8080    2.0610  -36.1070 ha        1 CS7      0.006750
     74 H331       -9.6760   -5.8620  -39.2880 hc        1 CS7      0.209250
     75 H332       -3.1580   -2.7210  -34.8770 h4        1 CS7      0.178000
     76 H341      -10.1890   -4.1280  -39.4660 hc        1 CS7      0.209250
     77 H342       -7.1810   -5.0160  -38.7250 hc        1 CS7      0.209250
     78 H351       -7.7350   -3.3180  -38.9240 hc        1 CS7      0.209250
     79 H352      -10.1870   -2.6850  -37.2710 ha        1 CS7      0.006750
     80 H353       -9.5410   -2.4600  -37.2730 ha        1 CS7      0.006750
     81 C20        -4.6360   -3.1680  -37.0940 c2        1 CS7      0.386000
     82 H12        -9.2130   -4.7390  -36.4970 ha        1 CS7      0.324000
     83 H31        -6.0110   -3.3050  -35.5720 hn        1 CS7      0.244000
     84 C7         -5.5460   -6.7620  -29.2840 c3        1 CS7     -0.190000
     85 C21        -0.5880   -3.7760  -39.7000 c1        1 CS7      0.314000
     86 C22        -0.9610    0.2180  -36.8270 c3        1 CS7     -0.196000
     87 O2          0.0220   -4.4020  -40.4950 o         1 CS7     -0.081000
     88 N3         -5.0430   -3.1040  -35.7440 n         1 CS7     -0.313000
     89 O3         -5.4860   -3.6120  -37.8920 o         1 CS7     -0.387000
@<TRIPOS>BOND
     1    1   14 1   
     2    2   16 1   
     3    3    4 1   
     4    3   38 1   
     5    4    5 1   
     6    4   43 1   
     7    5    6 1   
     8    5    7 1   
     9    5   40 1   
    10    6    8 1   
    11    6   11 1   
    12    6   41 1   
    13    7   42 1   
    14    8   44 1   
    15    8   45 1   
    16    9   10 1   
    17    9   46 1   
    18    9   60 1   
    19   10   11 1   
    20   10   24 1   
    21   11   47 1   
    22   11   48 1   
    23   12   13 1   
    24   12   17 1   
    25   12   84 1   
    26   13   14 1   
    27   13   51 1   
    28   14   15 1   
    29   15   16 1   
    30   15   52 1   
    31   16   17 1   
    32   17   53 1   
    33   18   19 1   
    34   18   23 1   
    35   18   81 1   
    36   19   20 1   
    37   19   69 1   
    38   20   21 1   
    39   20   86 1   
    40   21   22 1   
    41   21   54 1   
    42   21   55 1   
    43   22   23 1   
    44   22   85 1   
    45   23   56 1   
    46   24   61 1   
    47   25   26 1   
    48   26   27 1   
    49   26   31 1   
    50   27   28 1   
    51   27   62 1   
    52   27   63 1   
    53   28   29 1   
    54   28   30 1   
    55   29   30 1   
    56   29   64 1   
    57   30   31 1   
    58   31   65 1   
    59   31   66 1   
    60   32   33 1   
    61   32   75 1   
    62   32   88 1   
    63   33   34 1   
    64   35   36 1   
    65   35   37 1   
    66   35   74 1   
    67   35   76 1   
    68   36   37 1   
    69   36   77 1   
    70   36   78 1   
    71   37   82 1   
    72   39   84 1   
    73   49   84 1   
    74   50   84 1   
    75   57   86 1   
    76   58   86 1   
    77   59   86 1   
    78   67   68 1   
    79   70   73 1   
    80   71   72 1   
    81   79   80 1   
    82   81   88 1   
    83   81   89 1   
    84   83   88 1   
    85   85   87 1   
@<TRIPOS>SUBSTRUCTURE
     1 CS7         1 TEMP              0 ****  ****    0 ROOT
