@<TRIPOS>MOLECULE
CS7
   89    84     1     0     0
SMALL
bcc


@<TRIPOS>ATOM
      1 F1          2.6150    2.1410   -3.8530 f         1 CS7     -0.142000
      2 F2          4.8490    2.6690    0.3220 f         1 CS7     -0.111000
      3 N1          5.8910    3.2930    3.0470 n8        1 CS7     -0.179000
      4 C1          6.2860    3.3540    4.2780 c1        1 CS7     -0.246000
      5 C2          6.2320    2.1860    5.2310 c3        1 CS7      0.114000
      6 C3          6.1620    2.7080    6.6330 c2        1 CS7     -0.472000
      7 O1          5.1840    1.2740    4.9240 oh        1 CS7     -0.350000
      8 N2          6.4850    4.1000    6.8250 nz        1 CS7      0.058000
      9 C4          5.1480    0.2520    9.5970 c3        1 CS7      0.018000
     10 C5          5.5860    1.1500    8.5950 c1        1 CS7     -0.432000
     11 C6          5.8680    1.9050    7.6860 c1        1 CS7      0.073000
     12 C8          2.6710   -0.0160   -0.9780 c2        1 CS7     -0.094000
     13 C9          2.2070    0.5290   -2.1280 c2        1 CS7     -0.137000
     14 C10         2.5280    1.9490   -2.4810 c3        1 CS7      0.034000
     15 C11         3.6350    2.5880   -1.7360 c1        1 CS7     -0.104000
     16 C12         3.9910    1.9940   -0.4890 c2        1 CS7     -0.029000
     17 C13         3.5670    0.7300   -0.1300 c2        1 CS7     -0.025000
     18 C14         4.9360    5.2610   -6.2290 c2        1 CS7     -0.250000
     19 C15         6.1120    6.1910   -6.0320 c3        1 CS7     -0.097000
     20 C16         6.0420    6.9100   -4.6860 c3        1 CS7     -0.175000
     21 C17         5.6300    5.9320   -3.6170 c2        1 CS7     -0.031000
     22 C18         4.8880    4.8350   -3.8670 c2        1 CS7     -0.215000
     23 C19         4.4030    4.5600   -5.2000 c2        1 CS7      0.096000
     24 O4          6.4150   -1.7310    9.4010 oh        1 CS7     -0.148000
     25 C23         6.3540   -0.5640   10.0200 c2        1 CS7      0.335000
     26 C24         7.3370   -0.1190   10.9630 ca        1 CS7     -0.225000
     27 C25         8.2950   -1.0060   11.5100 ca        1 CS7     -0.036000
     28 C26         9.2130   -0.5560   12.4480 ca        1 CS7     -0.142500
     29 C27         9.2030    0.7830   12.8570 ca        1 CS7     -0.017000
     30 C28         8.2660    1.6700   12.3230 ca        1 CS7     -0.142500
     31 C29         7.3380    1.2280   11.3870 ca        1 CS7     -0.036000
     32 C30         6.1180    7.0710   -7.3270 c3        1 CS7      0.146000
     33 C31         7.4300    7.1800   -7.9080 c1        1 CS7     -0.271000
     34 C32         8.5260    7.3030   -8.3700 c1        1 CS7     -0.068000
     35 C33         4.0090    2.5220  -10.1510 c3        1 CS7     -0.218000
     36 C34         3.1780    4.7900   -9.4710 c2        1 CS7     -0.161000
     37 C35         3.3290    3.8080  -10.3700 c2        1 CS7     -0.058000
     38 HN1         4.5770    4.1340   -3.0570 ha        1 CS7      0.220000
     39 H1          1.7840   -1.3560    0.4400 hc        1 CS7      0.102333
     40 H2          5.4880    2.4850    2.6140 hn        1 CS7      0.212000
     41 H3          7.1830    1.5810    5.0880 h1        1 CS7      0.116000
     42 HO1         4.4390    1.4680    5.5050 ho        1 CS7      0.216000
     43 HN2         6.6410    4.5080    5.8740 hn        1 CS7      0.230333
     44 H41         5.7230    4.5920    7.2930 hn        1 CS7      0.230333
     45 H42         7.3270    4.2100    7.3910 hn        1 CS7      0.230333
     46 H5          4.7330    0.7810   10.5000 hc        1 CS7      0.142500
     47 H61         8.8950    0.0810    4.5900 ha        1 CS7      0.005000
     48 H62         9.2190    0.4650    5.0440 ha        1 CS7      0.005000
     49 H71         3.2320   -2.0120   -0.4350 hc        1 CS7      0.102333
     50 H72         1.6370   -1.8830   -1.2900 hc        1 CS7      0.102333
     51 H9          1.5480   -0.0180   -2.8200 ha        1 CS7      0.169000
     52 H11         1.6280    2.5680   -2.1030 h1        1 CS7      0.172000
     53 H13         3.9240    0.2480    0.7970 ha        1 CS7      0.165000
     54 H15         7.1000    7.2620   -4.4420 hc        1 CS7      0.179000
     55 H17         5.9330    6.2070   -2.5930 ha        1 CS7      0.168000
     56 H19         3.5910    3.8220   -5.3270 ha        1 CS7      0.179000
     57 H221        6.7200    9.9010   -4.3360 ha        1 CS7      0.005000
     58 H222        6.8910    9.6830   -4.9580 ha        1 CS7      0.005000
     59 H223        4.8000    8.5820   -5.3990 ha        1 CS7      0.047000
     60 H231        4.3550   -0.4470    9.1990 hc        1 CS7      0.142500
     61 H232        7.2430   -2.2230    9.5800 ho        1 CS7      0.273000
     62 H25         8.3120   -2.0700   11.2220 ha        1 CS7      0.153000
     63 H26         9.9500   -1.2550   12.8770 ha        1 CS7      0.170500
     64 H27         9.9350    1.1350   13.6050 ha        1 CS7      0.171000
     65 H28         8.2590    2.7240   12.6480 ha        1 CS7      0.170500
     66 H29         6.6070    1.9350   10.9560 ha        1 CS7      0.153000
     67 H301        1.5160    8.8310   -2.7950 ha        1 CS7      0.005000
     68 H302        1.3150    9.3900   -2.4700 ha        1 CS7      0.005000
     69 H311        7.0520    5.5660   -6.0300 hc        1 CS7      0.138000
     70 H312        5.7170    8.1100   -7.1170 h1        1 CS7      0.145000
     71 H321        9.5040    7.4190   -8.7770 ha        1 CS7      0.251000
     72 H322        3.2540    7.1640   -4.1010 ha        1 CS7      0.005000
     73 H323        3.1230    7.7360   -3.7520 ha        1 CS7      0.005000
     74 H331        4.3750    7.5200  -11.2220 ha        1 CS7      0.005000
     75 H332        4.8040    2.3720  -10.9270 hc        1 CS7      0.112000
     76 H341        2.6440    5.7390   -9.6130 h4        1 CS7      0.175000
     77 H342        4.0340    6.9830  -10.9870 ha        1 CS7      0.005000
     78 H351        4.4770    2.4570   -9.1390 hc        1 CS7      0.112000
     79 H352        2.8910    3.9600  -11.3770 ha        1 CS7      0.169000
     80 H353        3.2690    1.6860  -10.2520 hc        1 CS7      0.112000
     81 C20         4.5210    5.3820   -7.6180 c2        1 CS7      0.348000
     82 H12         5.9750    4.0940    2.4600 hn        1 CS7      0.212000
     83 H31         5.0740    6.6390   -9.2020 hn        1 CS7      0.288000
     84 C7          2.3100   -1.3880   -0.5470 c3        1 CS7     -0.191000
     85 C21         6.9110    7.4690    8.9960 c1        1 CS7      0.288000
     86 C22         5.2490    8.1270   -4.5050 c1        1 CS7     -0.025000
     87 O2          6.7930    6.4510    8.4170 o         1 CS7     -0.286000
     88 N3          5.1410    6.4090   -8.2350 n7        1 CS7     -0.272000
     89 O3          3.5790    4.5700   -8.1300 os        1 CS7     -0.103000
@<TRIPOS>BOND
     1    1   14 1   
     2    2   16 1   
     3    3    4 1   
     4    3   40 1   
     5    3   82 1   
     6    4    5 1   
     7    5    6 1   
     8    5    7 1   
     9    5   41 1   
    10    6    8 1   
    11    6   11 1   
    12    7   42 1   
    13    8   43 1   
    14    8   44 1   
    15    8   45 1   
    16    9   10 1   
    17    9   25 1   
    18    9   46 1   
    19    9   60 1   
    20   10   11 1   
    21   12   13 1   
    22   12   17 1   
    23   12   84 1   
    24   13   14 1   
    25   13   51 1   
    26   14   15 1   
    27   14   52 1   
    28   15   16 1   
    29   16   17 1   
    30   17   53 1   
    31   18   19 1   
    32   18   23 1   
    33   18   81 1   
    34   19   20 1   
    35   19   32 1   
    36   19   69 1   
    37   20   21 1   
    38   20   54 1   
    39   20   86 1   
    40   21   22 1   
    41   21   55 1   
    42   22   23 1   
    43   22   38 1   
    44   23   56 1   
    45   24   25 1   
    46   24   61 1   
    47   25   26 1   
    48   26   27 1   
    49   26   31 1   
    50   27   28 1   
    51   27   62 1   
    52   28   29 1   
    53   28   63 1   
    54   29   30 1   
    55   29   64 1   
    56   30   31 1   
    57   30   65 1   
    58   31   66 1   
    59   32   33 1   
    60   32   70 1   
    61   32   88 1   
    62   33   34 1   
    63   34   71 1   
    64   35   37 1   
    65   35   75 1   
    66   35   78 1   
    67   35   80 1   
    68   36   37 1   
    69   36   76 1   
    70   36   89 1   
    71   37   79 1   
    72   39   84 1   
    73   47   48 1   
    74   49   84 1   
    75   50   84 1   
    76   57   58 1   
    77   59   86 1   
    78   67   68 1   
    79   72   73 1   
    80   74   77 1   
    81   81   88 1   
    82   81   89 1   
    83   83   88 1   
    84   85   87 1   
@<TRIPOS>SUBSTRUCTURE
     1 CS7         1 TEMP              0 ****  ****    0 ROOT
