@<TRIPOS>MOLECULE
CS9
   86    89     1     0     0
SMALL
bcc


@<TRIPOS>ATOM
      1 C1          1.1990    1.2810    0.6480 ca        1 CS9     -0.058000
      2 C2          2.5050    0.9130    0.9930 ca        1 CS9     -0.042300
      3 C3          2.7450    0.2760    2.2190 ca        1 CS9     -0.049000
      4 C4          1.6810    0.0050    3.0870 ca        1 CS9     -0.182600
      5 C5          0.3740    0.3840    2.7500 ca        1 CS9     -0.003000
      6 C6          0.1380    1.0270    1.5260 ca        1 CS9     -0.182600
      7 C7         -1.2670    1.3610    1.2170 c         1 CS9      0.558700
      8 N1         -1.5150    2.5840    0.3640 n4        1 CS9     -0.588200
      9 O1         -2.2450    0.7450    1.6210 o         1 CS9     -0.400100
     10 C8         -2.5830    3.4380    0.9880 c3        1 CS9      0.108800
     11 C9         -2.7790    4.7780    0.2890 c3        1 CS9     -0.099900
     12 C10        -3.7450    5.6170    1.0910 c3        1 CS9     -0.104600
     13 C11        -1.8340    2.1910   -1.0530 c3        1 CS9      0.108800
     14 C12        -3.1880    1.5220   -1.2600 c3        1 CS9     -0.099900
     15 C13        -3.2680    0.9900   -2.6700 c3        1 CS9     -0.104600
     16 C30         3.6320    1.2050    0.0760 c3        1 CS9     -0.082800
     17 C14         1.8780   -0.6270    4.4060 c         1 CS9      0.560700
     18 N2          2.8450   -1.7740    4.4730 n4        1 CS9     -0.674800
     19 O2          1.2970   -0.3290    5.4410 o         1 CS9     -0.398100
     20 C15         3.8850   -1.6140    5.5650 c3        1 CS9      0.113500
     21 C16         4.9260   -0.5410    5.1400 c3        1 CS9      0.119100
     22 C17         4.5450   -2.9640    5.8730 c3        1 CS9     -0.063100
     23 O3          5.3870   -0.8570    3.8370 oh        1 CS9     -0.640800
     24 C19         3.5530   -4.0450    6.1280 ca        1 CS9     -0.094300
     25 C21         3.0750   -4.2590    7.4190 ca        1 CS9     -0.205500
     26 C22         2.1660   -5.3110    7.6610 ca        1 CS9      0.184400
     27 C23         1.7320   -6.1400    6.6140 ca        1 CS9     -0.185000
     28 C24         2.2260   -5.9080    5.3180 ca        1 CS9      0.184400
     29 C25         3.1330   -4.8610    5.0710 ca        1 CS9     -0.205500
     30 F2          1.7090   -5.5180    8.9130 f         1 CS9     -0.105400
     31 F1          1.8230   -6.6910    4.2950 f         1 CS9     -0.105400
     32 C26         7.3060    1.5600    6.9410 c3        1 CS9      0.120100
     33 C18         6.5910    0.8190    8.0990 c3        1 CS9      0.109800
     34 N3          5.6320   -0.1280    7.5310 n3        1 CS9     -0.776200
     35 C20         7.0700    0.6790    5.7040 c3        1 CS9     -0.119400
     36 C27         6.0720   -0.4130    6.1590 c3        1 CS9      0.123500
     37 O4          6.6500    2.8030    6.6800 os        1 CS9     -0.354900
     38 C31         7.2330    3.9240    7.2640 ca        1 CS9      0.090100
     39 C32         7.8690    3.8950    8.5100 ca        1 CS9     -0.166000
     40 C33         8.3640    5.0850    9.0440 ca        1 CS9     -0.096000
     41 C34         8.2210    6.2840    8.3460 ca        1 CS9     -0.135000
     42 C35         7.5820    6.3010    7.1050 ca        1 CS9     -0.096000
     43 C36         7.0870    5.1230    6.5500 ca        1 CS9     -0.166000
     44 H1          1.0310    1.7530   -0.3350 ha        1 CS9      0.155000
     45 H3          3.7890    0.0200    2.4890 ha        1 CS9      0.187000
     46 H5         -0.4640    0.1780    3.4420 ha        1 CS9      0.190000
     47 H81        -3.5450    2.8470    0.9810 hx        1 CS9      0.105200
     48 H82        -2.2810    3.6110    2.0620 hx        1 CS9      0.105200
     49 H91        -1.8020    5.3210    0.1920 hc        1 CS9      0.070200
     50 H92        -3.1910    4.6190   -0.7430 hc        1 CS9      0.070200
     51 H101       -4.7310    5.1030    1.1960 hc        1 CS9      0.064367
     52 H102       -3.9120    6.5920    0.5680 hc        1 CS9      0.064367
     53 H103       -3.3420    5.8300    2.1110 hc        1 CS9      0.064367
     54 H111       -1.7900    3.1350   -1.6710 hx        1 CS9      0.105200
     55 H112       -1.0130    1.4960   -1.3930 hx        1 CS9      0.105200
     56 H121       -3.3320    0.6820   -0.5280 hc        1 CS9      0.070200
     57 H122       -4.0120    2.2660   -1.0930 hc        1 CS9      0.070200
     58 H131       -3.1290    1.8090   -3.4170 hc        1 CS9      0.064367
     59 H132       -2.4930    0.2060   -2.8500 hc        1 CS9      0.064367
     60 H133       -4.2750    0.5310   -2.8360 hc        1 CS9      0.064367
     61 H301        4.0690    2.2090    0.3190 hc        1 CS9      0.079367
     62 H302        3.2930    1.2190   -0.9900 hc        1 CS9      0.079367
     63 H303        4.4420    0.4410    0.1760 hc        1 CS9      0.079367
     64 HN2         3.3380   -1.8780    3.5760 hn        1 CS9      0.475300
     65 H15         3.3330   -1.2530    6.4850 hx        1 CS9      0.133700
     66 H16         4.3960    0.4530    5.0370 h1        1 CS9      0.078700
     67 H171        5.2320   -3.2500    5.0310 hc        1 CS9      0.104700
     68 H172        5.1770   -2.8170    6.7960 hc        1 CS9      0.104700
     69 HO3         6.3120   -1.1360    3.8850 ho        1 CS9      0.453000
     70 H21         3.4140   -3.6360    8.2630 ha        1 CS9      0.159500
     71 H23         1.0310   -6.9690    6.8070 ha        1 CS9      0.194000
     72 H25         3.5570   -4.7480    4.0620 ha        1 CS9      0.159500
     73 H26         8.3950    1.7110    7.1540 h1        1 CS9      0.093700
     74 HN3         4.7180    0.2910    7.5210 hn        1 CS9      0.346800
     75 H201        6.6600    1.2870    4.8600 hc        1 CS9      0.075700
     76 H202        8.0300    0.2140    5.3740 hc        1 CS9      0.075700
     77 H27         6.6200   -1.4010    6.2000 h1        1 CS9      0.080700
     78 H32         7.9770    2.9520    9.0650 ha        1 CS9      0.136500
     79 H33         8.8680    5.0740   10.0230 ha        1 CS9      0.146000
     80 H34         8.6140    7.2190    8.7740 ha        1 CS9      0.150000
     81 H35         7.4720    7.2490    6.5570 ha        1 CS9      0.146000
     82 H36         6.5850    5.1220    5.5730 ha        1 CS9      0.136500
     83 H181        7.3440    0.2290    8.6900 h1        1 CS9      0.086200
     84 H11        -0.6500    3.1390    0.3370 hn        1 CS9      0.448800
     85 H22         2.3160   -2.6430    4.6640 hn        1 CS9      0.475300
     86 H182        6.0830    1.5470    8.7850 h1        1 CS9      0.086200
@<TRIPOS>BOND
     1    1    2 ar  
     2    1    6 ar  
     3    1   44 1   
     4    2    3 ar  
     5    2   16 1   
     6    3    4 ar  
     7    3   45 1   
     8    4    5 ar  
     9    4   17 1   
    10    5    6 ar  
    11    5   46 1   
    12    6    7 1   
    13    7    8 1   
    14    7    9 2   
    15    8   10 1   
    16    8   13 1   
    17    8   84 1   
    18   10   11 1   
    19   10   47 1   
    20   10   48 1   
    21   11   12 1   
    22   11   49 1   
    23   11   50 1   
    24   12   51 1   
    25   12   52 1   
    26   12   53 1   
    27   13   14 1   
    28   13   54 1   
    29   13   55 1   
    30   14   15 1   
    31   14   56 1   
    32   14   57 1   
    33   15   58 1   
    34   15   59 1   
    35   15   60 1   
    36   16   61 1   
    37   16   62 1   
    38   16   63 1   
    39   17   18 1   
    40   17   19 2   
    41   18   20 1   
    42   18   64 1   
    43   18   85 1   
    44   20   21 1   
    45   20   22 1   
    46   20   65 1   
    47   21   23 1   
    48   21   36 1   
    49   21   66 1   
    50   22   24 1   
    51   22   67 1   
    52   22   68 1   
    53   23   69 1   
    54   24   25 ar  
    55   24   29 ar  
    56   25   26 ar  
    57   25   70 1   
    58   26   27 ar  
    59   26   30 1   
    60   27   28 ar  
    61   27   71 1   
    62   28   29 ar  
    63   28   31 1   
    64   29   72 1   
    65   32   33 1   
    66   32   35 1   
    67   32   37 1   
    68   32   73 1   
    69   33   34 1   
    70   33   83 1   
    71   33   86 1   
    72   34   36 1   
    73   34   74 1   
    74   35   36 1   
    75   35   75 1   
    76   35   76 1   
    77   36   77 1   
    78   37   38 1   
    79   38   39 ar  
    80   38   43 ar  
    81   39   40 ar  
    82   39   78 1   
    83   40   41 ar  
    84   40   79 1   
    85   41   42 ar  
    86   41   80 1   
    87   42   43 ar  
    88   42   81 1   
    89   43   82 1   
@<TRIPOS>SUBSTRUCTURE
     1 CS9         1 TEMP              0 ****  ****    0 ROOT
