@<TRIPOS>MOLECULE
CS9
   86    89     1     0     0
SMALL
bcc


@<TRIPOS>ATOM
      1 C1          1.6130    1.4510    1.0500 ca        1 CS9     -0.058000
      2 C2          2.8970    0.9820    1.3460 ca        1 CS9     -0.043300
      3 C3          3.1010    0.1840    2.4830 ca        1 CS9     -0.045000
      4 C4          2.0210   -0.1460    3.3080 ca        1 CS9     -0.179600
      5 C5          0.7340    0.3330    3.0200 ca        1 CS9     -0.002000
      6 C6          0.5350    1.1360    1.8890 ca        1 CS9     -0.184600
      7 C7         -0.8500    1.5700    1.6240 c         1 CS9      0.559700
      8 N1         -1.0360    2.9040    0.9360 nx        1 CS9     -0.588200
      9 O1         -1.8600    0.9550    1.9430 o         1 CS9     -0.401100
     10 C8         -2.0680    3.7190    1.6650 c3        1 CS9      0.108800
     11 C9         -2.1990    5.1450    1.1450 c3        1 CS9     -0.099900
     12 C10        -3.1320    5.9170    2.0460 c3        1 CS9     -0.104600
     13 C11        -1.3610    2.7140   -0.5190 c3        1 CS9      0.108800
     14 C12        -2.7420    2.1410   -0.8140 c3        1 CS9     -0.099900
     15 C13        -2.8350    1.8010   -2.2820 c3        1 CS9     -0.104600
     16 C30         4.0460    1.3300    0.4780 c3        1 CS9     -0.081800
     17 C14         2.1710   -0.9500    4.5370 c         1 CS9      0.561700
     18 N2          3.1350   -2.0990    4.4940 ny        1 CS9     -0.674800
     19 O2          1.5440   -0.7930    5.5770 o         1 CS9     -0.397100
     20 C15         4.2090   -2.0070    5.5640 c3        1 CS9      0.116500
     21 C16         5.2720   -0.9640    5.1380 c3        1 CS9      0.120100
     22 C17         4.8320   -3.3860    5.8110 c3        1 CS9     -0.058100
     23 O3          5.7450   -1.3000    3.8460 oh        1 CS9     -0.638800
     24 C19         3.8120   -4.4340    6.0940 ca        1 CS9     -0.094300
     25 C21         3.3410   -4.6120    7.3930 ca        1 CS9     -0.204000
     26 C22         2.4030   -5.6310    7.6610 ca        1 CS9      0.183400
     27 C23         1.9330   -6.4630    6.6310 ca        1 CS9     -0.185000
     28 C24         2.4200   -6.2660    5.3270 ca        1 CS9      0.183400
     29 C25         3.3570   -5.2520    5.0540 ca        1 CS9     -0.204000
     30 F2          1.9520   -5.8040    8.9200 f         1 CS9     -0.105900
     31 F1          1.9820   -7.0530    4.3210 f         1 CS9     -0.105900
     32 C26         6.7460    1.5460    6.6570 c3        1 CS9      0.122100
     33 C18         5.9360    0.8530    7.7860 c3        1 CS9      0.114800
     34 N3          5.8630   -0.5810    7.5140 n7        1 CS9     -0.815200
     35 C20         7.2710    0.4020    5.7780 c3        1 CS9     -0.118400
     36 C27         6.4120   -0.8220    6.1770 c3        1 CS9      0.142500
     37 O4          5.8620    2.3200    5.8360 os        1 CS9     -0.362900
     38 C31         5.8510    3.6840    6.1120 ca        1 CS9      0.085100
     39 C32         5.8130    4.1830    7.4190 ca        1 CS9     -0.163000
     40 C33         5.7270    5.5610    7.6140 ca        1 CS9     -0.100500
     41 C34         5.6770    6.4260    6.5200 ca        1 CS9     -0.132000
     42 C35         5.7160    5.9160    5.2210 ca        1 CS9     -0.100500
     43 C36         5.8080    4.5420    5.0040 ca        1 CS9     -0.163000
     44 H1          1.4720    2.0510    0.1360 ha        1 CS9      0.153000
     45 H3          4.1320   -0.1500    2.7140 ha        1 CS9      0.188000
     46 H5         -0.1160    0.0790    3.6810 ha        1 CS9      0.190000
     47 H81        -1.7660    3.7380    2.7520 hx        1 CS9      0.104950
     48 H82        -3.0560    3.1790    1.5800 hx        1 CS9      0.104950
     49 H91        -2.6090    5.1390    0.0990 hc        1 CS9      0.070200
     50 H92        -1.1980    5.6510    1.1190 hc        1 CS9      0.070200
     51 H101       -2.7270    5.9780    3.0860 hc        1 CS9      0.064367
     52 H102       -4.1410    5.4380    2.0830 hc        1 CS9      0.064367
     53 H103       -3.2520    6.9570    1.6540 hc        1 CS9      0.064367
     54 H111       -0.5700    2.0310   -0.9450 hx        1 CS9      0.104950
     55 H112       -1.2680    3.7270   -1.0100 hx        1 CS9      0.104950
     56 H121       -2.9310    1.2210   -0.1980 hc        1 CS9      0.070200
     57 H122       -3.5330    2.8950   -0.5540 hc        1 CS9      0.070200
     58 H131       -3.8610    1.4150   -2.5080 hc        1 CS9      0.064367
     59 H132       -2.0950    1.0120   -2.5610 hc        1 CS9      0.064367
     60 H133       -2.6540    2.7030   -2.9160 hc        1 CS9      0.064367
     61 H301        3.7080    1.6840   -0.5270 hc        1 CS9      0.078367
     62 H302        4.6500    2.1460    0.9540 hc        1 CS9      0.078367
     63 H303        4.7150    0.4450    0.3310 hc        1 CS9      0.078367
     64 HN2         3.6010   -2.1430    3.5780 hn        1 CS9      0.472800
     65 H15         3.6960   -1.6510    6.5110 hx        1 CS9      0.148700
     66 H16         4.7750    0.0470    5.0200 h1        1 CS9      0.097700
     67 H171        5.4650   -3.6800    4.9300 hc        1 CS9      0.094200
     68 H172        5.5150   -3.2790    6.7000 hc        1 CS9      0.094200
     69 HO3         6.6190   -1.7080    3.9210 ho        1 CS9      0.444000
     70 H21         3.7030   -3.9830    8.2220 ha        1 CS9      0.158000
     71 H23         1.2090   -7.2670    6.8440 ha        1 CS9      0.194000
     72 H25         3.7680   -5.1630    4.0380 ha        1 CS9      0.158000
     73 H26         7.5720    2.1820    7.0670 h1        1 CS9      0.092700
     74 HN3         6.3800   -1.1020    8.1980 hn        1 CS9      0.381800
     75 H201        7.1710    0.6440    4.6930 hc        1 CS9      0.082700
     76 H202        8.3480    0.2080    6.0050 hc        1 CS9      0.082700
     77 H27         7.0300   -1.7630    6.1540 h1        1 CS9      0.067700
     78 H32         5.8550    3.4980    8.2770 ha        1 CS9      0.136000
     79 H33         5.7020    5.9660    8.6380 ha        1 CS9      0.146500
     80 H34         5.6160    7.5130    6.6820 ha        1 CS9      0.151000
     81 H35         5.6890    6.6030    4.3610 ha        1 CS9      0.146500
     82 H36         5.8540    4.1300    3.9880 ha        1 CS9      0.136000
     83 H181        4.8860    1.2560    7.7980 h1        1 CS9      0.075700
     84 H11        -0.1450    3.4170    0.9850 hn        1 CS9      0.448800
     85 H22         2.6110   -2.9770    4.6460 hn        1 CS9      0.472800
     86 H182        6.4050    1.0600    8.7840 h1        1 CS9      0.075700
@<TRIPOS>BOND
     1    1    2 ar  
     2    1    6 ar  
     3    1   44 1   
     4    2    3 ar  
     5    2   16 1   
     6    3    4 ar  
     7    3   45 1   
     8    4    5 ar  
     9    4   17 1   
    10    5    6 ar  
    11    5   46 1   
    12    6    7 1   
    13    7    8 1   
    14    7    9 2   
    15    8   10 1   
    16    8   13 1   
    17    8   84 1   
    18   10   11 1   
    19   10   47 1   
    20   10   48 1   
    21   11   12 1   
    22   11   49 1   
    23   11   50 1   
    24   12   51 1   
    25   12   52 1   
    26   12   53 1   
    27   13   14 1   
    28   13   54 1   
    29   13   55 1   
    30   14   15 1   
    31   14   56 1   
    32   14   57 1   
    33   15   58 1   
    34   15   59 1   
    35   15   60 1   
    36   16   61 1   
    37   16   62 1   
    38   16   63 1   
    39   17   18 1   
    40   17   19 2   
    41   18   20 1   
    42   18   64 1   
    43   18   85 1   
    44   20   21 1   
    45   20   22 1   
    46   20   65 1   
    47   21   23 1   
    48   21   36 1   
    49   21   66 1   
    50   22   24 1   
    51   22   67 1   
    52   22   68 1   
    53   23   69 1   
    54   24   25 ar  
    55   24   29 ar  
    56   25   26 ar  
    57   25   70 1   
    58   26   27 ar  
    59   26   30 1   
    60   27   28 ar  
    61   27   71 1   
    62   28   29 ar  
    63   28   31 1   
    64   29   72 1   
    65   32   33 1   
    66   32   35 1   
    67   32   37 1   
    68   32   73 1   
    69   33   34 1   
    70   33   83 1   
    71   33   86 1   
    72   34   36 1   
    73   34   74 1   
    74   35   36 1   
    75   35   75 1   
    76   35   76 1   
    77   36   77 1   
    78   37   38 1   
    79   38   39 ar  
    80   38   43 ar  
    81   39   40 ar  
    82   39   78 1   
    83   40   41 ar  
    84   40   79 1   
    85   41   42 ar  
    86   41   80 1   
    87   42   43 ar  
    88   42   81 1   
    89   43   82 1   
@<TRIPOS>SUBSTRUCTURE
     1 CS9         1 TEMP              0 ****  ****    0 ROOT
