@<TRIPOS>MOLECULE
CS9
   84    87     1     0     0
SMALL
bcc


@<TRIPOS>ATOM
      1 C1         -4.0500    2.2520   -1.7810 ca        1 CS9     -0.078000
      2 C2         -2.7850    2.4530   -2.3450 ca        1 CS9     -0.084300
      3 C3         -1.7010    1.6920   -1.8950 ca        1 CS9     -0.096000
      4 C4         -1.8810    0.7420   -0.8860 ca        1 CS9     -0.138600
      5 C5         -3.1420    0.5500   -0.3130 ca        1 CS9     -0.060000
      6 C6         -4.2240    1.3090   -0.7650 ca        1 CS9     -0.127600
      7 C7         -5.5960    1.0700   -0.2220 c         1 CS9      0.672700
      8 N1         -5.8900    1.4870    1.0670 n         1 CS9     -0.469800
      9 O1         -6.4570    0.4980   -0.9200 o         1 CS9     -0.597100
     10 C8         -7.2170    1.2760    1.6070 c3        1 CS9      0.089500
     11 C9         -7.3160    0.1170    2.6010 c3        1 CS9     -0.100900
     12 C10        -8.7260    0.0000    3.1190 c3        1 CS9     -0.093600
     13 C11        -4.9660    2.2480    1.8710 c3        1 CS9      0.089500
     14 C12        -5.0830    3.7680    1.7230 c3        1 CS9     -0.100900
     15 C13        -4.0960    4.4550    2.6310 c3        1 CS9     -0.093600
     16 C30        -2.5970    3.4710   -3.4050 c3        1 CS9     -0.056800
     17 C14        -0.7410   -0.0670   -0.3640 c         1 CS9      0.676700
     18 N2          0.1230   -0.6080   -1.2960 n         1 CS9     -0.556900
     19 O2         -0.6000   -0.2820    0.8580 o         1 CS9     -0.609100
     20 C15         1.3480   -1.2780   -0.9240 c3        1 CS9      0.077700
     21 C16         2.5810   -0.4950   -1.4600 c3        1 CS9      0.123100
     22 C17         1.3930   -2.7380   -1.4080 c3        1 CS9     -0.048100
     23 O3          2.4940   -0.2880   -2.8600 oh        1 CS9     -0.599800
     24 C19         0.2070   -3.5630   -1.0470 ca        1 CS9     -0.023300
     25 C21        -0.4120   -3.4380    0.1980 ca        1 CS9     -0.180500
     26 C22        -1.4930   -4.2770    0.5270 ca        1 CS9      0.153900
     27 C23        -1.9620   -5.2420   -0.3800 ca        1 CS9     -0.210000
     28 C24        -1.3300   -5.3490   -1.6290 ca        1 CS9      0.153900
     29 C25        -0.2500   -4.5150   -1.9640 ca        1 CS9     -0.180500
     30 F2         -2.0910   -4.1580    1.7360 f         1 CS9     -0.135400
     31 F1         -1.7670   -6.2700   -2.5220 f         1 CS9     -0.135400
     32 C26         5.7710    0.2550   -0.2990 c3        1 CS9      0.117100
     33 C18         5.0160   -0.4280    0.8700 c3        1 CS9      0.119800
     34 N3          4.0670   -1.3930    0.3340 n3        1 CS9     -0.793200
     35 C20         5.0910   -0.2530   -1.5770 c3        1 CS9     -0.107400
     36 C27         3.9320   -1.1640   -1.1090 c3        1 CS9      0.136500
     37 O4          5.5730    1.6720   -0.2760 os        1 CS9     -0.324900
     38 C31         6.4560    2.4080    0.4940 ca        1 CS9      0.120100
     39 C32         7.2390    1.8790    1.5270 ca        1 CS9     -0.176000
     40 C33         8.0680    2.7320    2.2560 ca        1 CS9     -0.099000
     41 C34         8.1120    4.0940    1.9660 ca        1 CS9     -0.160000
     42 C35         7.3220    4.6140    0.9390 ca        1 CS9     -0.099000
     43 C36         6.4940    3.7820    0.1940 ca        1 CS9     -0.176000
     44 H1         -4.9140    2.8320   -2.1430 ha        1 CS9      0.148000
     45 H3         -0.7050    1.8590   -2.3350 ha        1 CS9      0.141000
     46 H5         -3.2690   -0.1940    0.4900 ha        1 CS9      0.163000
     47 H81        -7.5430    2.2250    2.1240 h1        1 CS9      0.058200
     48 H82        -7.9300    1.0790    0.7550 h1        1 CS9      0.058200
     49 H91        -7.0160   -0.8400    2.0980 hc        1 CS9      0.046200
     50 H92        -6.6100    0.2800    3.4580 hc        1 CS9      0.046200
     51 H101       -9.0370    0.9380    3.6400 hc        1 CS9      0.036033
     52 H102       -9.4400   -0.1880    2.2800 hc        1 CS9      0.036033
     53 H103       -8.8010   -0.8470    3.8420 hc        1 CS9      0.036033
     54 H111       -5.1450    1.9800    2.9530 h1        1 CS9      0.058200
     55 H112       -3.9100    1.9440    1.6170 h1        1 CS9      0.058200
     56 H121       -4.8890    4.0620    0.6590 hc        1 CS9      0.046200
     57 H122       -6.1250    4.0990    1.9760 hc        1 CS9      0.046200
     58 H131       -4.1770    5.5630    2.5190 hc        1 CS9      0.036033
     59 H132       -4.2900    4.1930    3.6990 hc        1 CS9      0.036033
     60 H133       -3.0500    4.1510    2.3800 hc        1 CS9      0.036033
     61 H301       -2.4030    4.4710   -2.9420 hc        1 CS9      0.048700
     62 H302       -1.7270    3.2140   -4.0590 hc        1 CS9      0.048700
     63 H303       -3.5090    3.5520   -4.0450 hc        1 CS9      0.048700
     64 HN2         0.0250   -0.3620   -2.2530 hn        1 CS9      0.318500
     65 H15         1.4180   -1.2760    0.2080 h1        1 CS9      0.116700
     66 H16         2.5640    0.5500   -1.0320 h1        1 CS9      0.100700
     67 H171        1.5320   -2.7580   -2.5230 hc        1 CS9      0.051700
     68 H172        2.2960   -3.2200   -0.9420 hc        1 CS9      0.051700
     69 HO3         2.5940   -1.1440   -3.2930 ho        1 CS9      0.396000
     70 H21        -0.0860   -2.6710    0.9210 ha        1 CS9      0.162500
     71 H23        -2.8070   -5.8940   -0.1200 ha        1 CS9      0.164000
     72 H25         0.2250   -4.6210   -2.9500 ha        1 CS9      0.162500
     73 H26         6.8650    0.0150   -0.2860 h1        1 CS9      0.059700
     74 H182        4.4330    0.3500    1.4380 h1        1 CS9      0.065200
     75 HN3         4.3830   -2.3310    0.4990 hn        1 CS9      0.357800
     76 H201        4.7070    0.5990   -2.1930 hc        1 CS9      0.075700
     77 H202        5.8180   -0.8330   -2.1940 hc        1 CS9      0.075700
     78 H27         3.9840   -2.1420   -1.6710 h1        1 CS9      0.041700
     79 H32         7.1990    0.8090    1.7740 ha        1 CS9      0.141500
     80 H33         8.6860    2.3220    3.0690 ha        1 CS9      0.133500
     81 H34         8.7660    4.7600    2.5470 ha        1 CS9      0.134000
     82 H35         7.3550    5.6910    0.7130 ha        1 CS9      0.133500
     83 H36         5.8650    4.1770   -0.6170 ha        1 CS9      0.141500
     84 H181        5.7390   -0.9150    1.5780 h1        1 CS9      0.065200
@<TRIPOS>BOND
     1    1    2 ar  
     2    1    6 ar  
     3    1   44 1   
     4    2    3 ar  
     5    2   16 1   
     6    3    4 ar  
     7    3   45 1   
     8    4    5 ar  
     9    4   17 1   
    10    5    6 ar  
    11    5   46 1   
    12    6    7 1   
    13    7    8 1   
    14    7    9 2   
    15    8   10 1   
    16    8   13 1   
    17   10   11 1   
    18   10   47 1   
    19   10   48 1   
    20   11   12 1   
    21   11   49 1   
    22   11   50 1   
    23   12   51 1   
    24   12   52 1   
    25   12   53 1   
    26   13   14 1   
    27   13   54 1   
    28   13   55 1   
    29   14   15 1   
    30   14   56 1   
    31   14   57 1   
    32   15   58 1   
    33   15   59 1   
    34   15   60 1   
    35   16   61 1   
    36   16   62 1   
    37   16   63 1   
    38   17   18 1   
    39   17   19 2   
    40   18   20 1   
    41   18   64 1   
    42   20   21 1   
    43   20   22 1   
    44   20   65 1   
    45   21   23 1   
    46   21   36 1   
    47   21   66 1   
    48   22   24 1   
    49   22   67 1   
    50   22   68 1   
    51   23   69 1   
    52   24   25 ar  
    53   24   29 ar  
    54   25   26 ar  
    55   25   70 1   
    56   26   27 ar  
    57   26   30 1   
    58   27   28 ar  
    59   27   71 1   
    60   28   29 ar  
    61   28   31 1   
    62   29   72 1   
    63   32   33 1   
    64   32   35 1   
    65   32   37 1   
    66   32   73 1   
    67   33   34 1   
    68   33   74 1   
    69   33   84 1   
    70   34   36 1   
    71   34   75 1   
    72   35   36 1   
    73   35   76 1   
    74   35   77 1   
    75   36   78 1   
    76   37   38 1   
    77   38   39 ar  
    78   38   43 ar  
    79   39   40 ar  
    80   39   79 1   
    81   40   41 ar  
    82   40   80 1   
    83   41   42 ar  
    84   41   81 1   
    85   42   43 ar  
    86   42   82 1   
    87   43   83 1   
@<TRIPOS>SUBSTRUCTURE
     1 CS9         1 TEMP              0 ****  ****    0 ROOT
