@<TRIPOS>MOLECULE
CS9
   86    89     1     0     0
SMALL
bcc


@<TRIPOS>ATOM
      1 C1          1.1700    1.3270    0.6680 ca        1 CS9     -0.058000
      2 C2          2.4840    0.9740    0.9980 ca        1 CS9     -0.042300
      3 C3          2.7420    0.3170    2.2100 ca        1 CS9     -0.049000
      4 C4          1.6890    0.0130    3.0780 ca        1 CS9     -0.182600
      5 C5          0.3730    0.3770    2.7570 ca        1 CS9     -0.003000
      6 C6          0.1190    1.0400    1.5480 ca        1 CS9     -0.182600
      7 C7         -1.2930    1.3560    1.2540 c         1 CS9      0.558700
      8 N1         -1.5680    2.5870    0.4220 n4        1 CS9     -0.588200
      9 O1         -2.2590    0.7190    1.6550 o         1 CS9     -0.400100
     10 C8         -2.6470    3.4130    1.0650 c3        1 CS9      0.108800
     11 C9         -2.8700    4.7600    0.3890 c3        1 CS9     -0.099900
     12 C10        -3.8460    5.5690    1.2080 c3        1 CS9     -0.104600
     13 C11        -1.8870    2.2120   -0.9990 c3        1 CS9      0.108800
     14 C12        -3.2290    1.5210   -1.2090 c3        1 CS9     -0.099900
     15 C13        -3.3080    1.0100   -2.6270 c3        1 CS9     -0.104600
     16 C30         3.6000    1.3020    0.0800 c3        1 CS9     -0.082800
     17 C14         1.9040   -0.6420    4.3840 c         1 CS9      0.560700
     18 N2          2.8880   -1.7760    4.4210 n4        1 CS9     -0.674800
     19 O2          1.3270   -0.3720    5.4290 o         1 CS9     -0.398100
     20 C15         3.9340   -1.6230    5.5090 c3        1 CS9      0.113500
     21 C16         4.9550   -0.5260    5.1000 c3        1 CS9      0.119100
     22 C17         4.6150   -2.9690    5.7860 c3        1 CS9     -0.063100
     23 O3          5.4120   -0.8090    3.7880 oh        1 CS9     -0.640800
     24 C19         3.6400   -4.0700    6.0240 ca        1 CS9     -0.094300
     25 C21         3.1750   -4.3170    7.3140 ca        1 CS9     -0.205500
     26 C22         2.2830   -5.3880    7.5390 ca        1 CS9      0.184400
     27 C23         1.8530   -6.2010    6.4770 ca        1 CS9     -0.185000
     28 C24         2.3350   -5.9340    5.1840 ca        1 CS9      0.184400
     29 C25         3.2260   -4.8690    4.9530 ca        1 CS9     -0.205500
     30 F2          1.8370   -5.6280    8.7890 f         1 CS9     -0.105400
     31 F1          1.9370   -6.7020    4.1470 f         1 CS9     -0.105400
     32 C26         7.3180    1.5710    6.9280 c3        1 CS9      0.120100
     33 C18         6.6210    0.7970    8.0750 c3        1 CS9      0.109800
     34 N3          5.6730   -0.1520    7.4940 n3        1 CS9     -0.776200
     35 C20         7.0860    0.7130    5.6740 c3        1 CS9     -0.119400
     36 C27         6.1060   -0.4020    6.1130 c3        1 CS9      0.123500
     37 O4          6.6430    2.8110    6.6970 os        1 CS9     -0.354900
     38 C31         7.2140    3.9270    7.3010 ca        1 CS9      0.090100
     39 C32         7.8580    3.8810    8.5420 ca        1 CS9     -0.166000
     40 C33         8.3390    5.0660    9.0980 ca        1 CS9     -0.096000
     41 C34         8.1740    6.2780    8.4270 ca        1 CS9     -0.135000
     42 C35         7.5270    6.3110    7.1910 ca        1 CS9     -0.096000
     43 C36         7.0460    5.1390    6.6130 ca        1 CS9     -0.166000
     44 H1          0.9890    1.8150   -0.3040 ha        1 CS9      0.154000
     45 H3          3.7920    0.0730    2.4690 ha        1 CS9      0.187000
     46 H5         -0.4570    0.1440    3.4510 ha        1 CS9      0.190000
     47 H81        -3.5990    2.8060    1.0540 hx        1 CS9      0.105200
     48 H82        -2.3420    3.5740    2.1400 hx        1 CS9      0.105200
     49 H91        -3.2850    4.6100   -0.6440 hc        1 CS9      0.070200
     50 H92        -1.9030    5.3220    0.2940 hc        1 CS9      0.070200
     51 H101       -3.4410    5.7740    2.2290 hc        1 CS9      0.064367
     52 H102       -4.8220    5.0360    1.3110 hc        1 CS9      0.064367
     53 H103       -4.0340    6.5490    0.7020 hc        1 CS9      0.064367
     54 H111       -1.8640    3.1670   -1.6020 hx        1 CS9      0.105200
     55 H112       -1.0550    1.5380   -1.3550 hx        1 CS9      0.105200
     56 H121       -3.3550    0.6680   -0.4900 hc        1 CS9      0.070200
     57 H122       -4.0660    2.2470   -1.0270 hc        1 CS9      0.070200
     58 H131       -4.3070    0.5360   -2.7950 hc        1 CS9      0.064367
     59 H132       -2.5190    0.2440   -2.8240 hc        1 CS9      0.064367
     60 H133       -3.1890    1.8440   -3.3620 hc        1 CS9      0.064367
     61 H301        4.4260    0.5530    0.1650 hc        1 CS9      0.079700
     62 H302        3.2560    1.3250   -0.9850 hc        1 CS9      0.079700
     63 H303        4.0180    2.3110    0.3350 hc        1 CS9      0.079700
     64 HN2         3.3770   -1.8540    3.5190 hn        1 CS9      0.475300
     65 H15         3.3820   -1.2880    6.4400 hx        1 CS9      0.133700
     66 H16         4.4100    0.4620    5.0200 h1        1 CS9      0.078700
     67 H171        5.2510   -2.8310    6.7080 hc        1 CS9      0.104700
     68 H172        5.3000   -3.2270    4.9340 hc        1 CS9      0.104700
     69 HO3         6.3420   -1.0750    3.8240 ho        1 CS9      0.453000
     70 H21         3.5100   -3.7080    8.1680 ha        1 CS9      0.159500
     71 H23         1.1660   -7.0440    6.6570 ha        1 CS9      0.194000
     72 H25         3.6410   -4.7290    3.9440 ha        1 CS9      0.159500
     73 H26         8.4060    1.7330    7.1360 h1        1 CS9      0.093700
     74 HN3         4.7520    0.2540    7.4980 hn        1 CS9      0.346800
     75 H201        6.6620    1.3330    4.8460 hc        1 CS9      0.075700
     76 H202        8.0500    0.2690    5.3280 hc        1 CS9      0.075700
     77 H27         6.6690   -1.3830    6.1310 h1        1 CS9      0.080700
     78 H32         7.9840    2.9280    9.0760 ha        1 CS9      0.136500
     79 H33         8.8500    5.0410   10.0730 ha        1 CS9      0.146000
     80 H34         8.5560    7.2090    8.8720 ha        1 CS9      0.150000
     81 H35         7.3990    7.2690    6.6640 ha        1 CS9      0.146000
     82 H36         6.5370    5.1510    5.6410 ha        1 CS9      0.136500
     83 H181        6.1080    1.5040    8.7790 h1        1 CS9      0.086200
     84 H11        -0.7120    3.1580    0.4000 hn        1 CS9      0.448800
     85 H22         2.3730   -2.6560    4.5980 hn        1 CS9      0.475300
     86 H182        7.3870    0.2060    8.6480 h1        1 CS9      0.086200
@<TRIPOS>BOND
     1    1    2 ar  
     2    1    6 ar  
     3    1   44 1   
     4    2    3 ar  
     5    2   16 1   
     6    3    4 ar  
     7    3   45 1   
     8    4    5 ar  
     9    4   17 1   
    10    5    6 ar  
    11    5   46 1   
    12    6    7 1   
    13    7    8 1   
    14    7    9 2   
    15    8   10 1   
    16    8   13 1   
    17    8   84 1   
    18   10   11 1   
    19   10   47 1   
    20   10   48 1   
    21   11   12 1   
    22   11   49 1   
    23   11   50 1   
    24   12   51 1   
    25   12   52 1   
    26   12   53 1   
    27   13   14 1   
    28   13   54 1   
    29   13   55 1   
    30   14   15 1   
    31   14   56 1   
    32   14   57 1   
    33   15   58 1   
    34   15   59 1   
    35   15   60 1   
    36   16   61 1   
    37   16   62 1   
    38   16   63 1   
    39   17   18 1   
    40   17   19 2   
    41   18   20 1   
    42   18   64 1   
    43   18   85 1   
    44   20   21 1   
    45   20   22 1   
    46   20   65 1   
    47   21   23 1   
    48   21   36 1   
    49   21   66 1   
    50   22   24 1   
    51   22   67 1   
    52   22   68 1   
    53   23   69 1   
    54   24   25 ar  
    55   24   29 ar  
    56   25   26 ar  
    57   25   70 1   
    58   26   27 ar  
    59   26   30 1   
    60   27   28 ar  
    61   27   71 1   
    62   28   29 ar  
    63   28   31 1   
    64   29   72 1   
    65   32   33 1   
    66   32   35 1   
    67   32   37 1   
    68   32   73 1   
    69   33   34 1   
    70   33   83 1   
    71   33   86 1   
    72   34   36 1   
    73   34   74 1   
    74   35   36 1   
    75   35   75 1   
    76   35   76 1   
    77   36   77 1   
    78   37   38 1   
    79   38   39 ar  
    80   38   43 ar  
    81   39   40 ar  
    82   39   78 1   
    83   40   41 ar  
    84   40   79 1   
    85   41   42 ar  
    86   41   80 1   
    87   42   43 ar  
    88   42   81 1   
    89   43   82 1   
@<TRIPOS>SUBSTRUCTURE
     1 CS9         1 TEMP              0 ****  ****    0 ROOT
