@<TRIPOS>MOLECULE
CSA
   21    20     1     0     0
SMALL
bcc


@<TRIPOS>ATOM
      1 N           1.0940   -0.5830   -1.9320 n3        1 CSA     -0.882800
      2 CA          0.3040   -0.0810   -0.8130 c3        1 CSA      0.014500
      3 CB          0.8030    1.2700   -0.3070 c3        1 CSA      0.033700
      4 C          -1.2310    0.0090   -1.1110 c         1 CSA      0.884600
      5 SG          1.2150    1.3110    1.4250 ss        1 CSA     -0.344200
      6 C3         -0.3500    1.4140    2.2410 c3        1 CSA     -0.140300
      7 C2         -0.5830    0.2420    3.1420 c         1 CSA      0.600100
      8 O4         -0.5670    0.3580    4.3760 o         1 CSA     -0.588100
      9 C1         -0.8780   -1.0570    2.4680 c3        1 CSA     -0.217100
     10 O          -1.6450   -0.3930   -2.2320 o         1 CSA     -0.840300
     11 OXT        -1.9820    0.4630   -0.1980 o         1 CSA     -0.840300
     12 H           0.6400   -1.4190   -2.2630 hn        1 CSA      0.333300
     13 H2          1.0350    0.0820   -2.6840 hn        1 CSA      0.333300
     14 HA          0.4160   -0.8370    0.0200 h1        1 CSA      0.056700
     15 HB2         0.0290    2.0490   -0.5130 h1        1 CSA      0.068700
     16 HB3         1.7620    1.5750   -0.7960 h1        1 CSA      0.068700
     17 H31        -1.1770    1.4440    1.4720 h1        1 CSA      0.115700
     18 H32        -0.3610    2.3610    2.8320 h1        1 CSA      0.115700
     19 H11        -1.4210   -1.7450    3.1590 hc        1 CSA      0.076033
     20 H12        -1.4950   -0.8780    1.5440 hc        1 CSA      0.076033
     21 H13         0.0830   -1.5380    2.1600 hc        1 CSA      0.076033
@<TRIPOS>BOND
     1    1    2 1   
     2    1   12 1   
     3    1   13 1   
     4    2    3 1   
     5    2    4 1   
     6    2   14 1   
     7    3    5 1   
     8    3   15 1   
     9    3   16 1   
    10    4   10 1   
    11    4   11 1   
    12    5    6 1   
    13    6    7 1   
    14    6   17 1   
    15    6   18 1   
    16    7    8 2   
    17    7    9 1   
    18    9   19 1   
    19    9   20 1   
    20    9   21 1   
@<TRIPOS>SUBSTRUCTURE
     1 CSA         1 TEMP              0 ****  ****    0 ROOT
