@<TRIPOS>MOLECULE
CSC
   49    50     1     0     0
SMALL
bcc


@<TRIPOS>ATOM
      1 S1         -0.0450   -0.9420    0.9490 ss        1 CSC     -0.294200
      2 C2          1.6920   -0.9320    0.6060 c3        1 CSC      0.024900
      3 C3          2.6450   -0.9540    1.7340 c2        1 CSC     -0.097400
      4 C3'         4.0960   -0.9100    1.3550 c3        1 CSC      0.166600
      5 C4          2.2980   -1.0530    3.0470 ce        1 CSC     -0.081600
      6 C4'         3.3810   -1.1070    4.0830 c         1 CSC      0.652300
      7 O4A         4.3940   -1.8030    3.9920 o         1 CSC     -0.491000
      8 O4B         3.3310   -0.3510    5.2060 oh        1 CSC     -0.563100
      9 N5          0.9840   -1.2420    3.4880 n         1 CSC     -0.375000
     10 C6         -0.1150   -1.6110    2.5910 cy        1 CSC      0.115800
     11 C7         -1.1190   -0.8760    3.5730 cy        1 CSC      0.050700
     12 C8          0.1750   -0.4350    4.3450 c         1 CSC      0.680500
     13 O9          0.4490    0.2640    5.3080 o         1 CSC     -0.545500
     14 N10        -1.9170    0.1630    3.0490 n         1 CSC     -0.558900
     15 C11        -3.2670    0.2890    3.3550 c         1 CSC      0.669100
     16 O12        -3.8160   -0.4990    4.1480 o         1 CSC     -0.599100
     17 C13        -4.0050    1.4410    2.7020 c3        1 CSC     -0.147400
     18 C14        -5.4960    1.3140    2.9340 c3        1 CSC     -0.086400
     19 C15        -6.2250    2.5420    2.4400 c3        1 CSC     -0.097400
     20 C16        -7.7310    2.3900    2.4960 c3        1 CSC     -0.074500
     21 N17        -8.2670    2.2970    3.8880 n4        1 CSC     -0.835600
     22 C18        -8.4250    3.6360    1.7470 c         1 CSC      0.937600
     23 O19        -7.9850    3.8770    0.6120 o         1 CSC     -0.755300
     24 O20        -9.3400    4.1960    2.4060 o         1 CSC     -0.755300
     25 O1          4.2940   -0.7090   -0.0440 os        1 CSC     -0.441900
     26 C1          4.4100    0.5790   -0.5080 c         1 CSC      0.628100
     27 O2          4.2210    1.5030    0.2830 o         1 CSC     -0.533000
     28 C20         4.7610    0.6390   -1.9530 c3        1 CSC     -0.151100
     29 H11         1.9240   -1.8000   -0.0680 h1        1 CSC      0.103700
     30 H12         1.8600    0.0080    0.0100 h1        1 CSC      0.103700
     31 H3'1        4.6320   -0.1180    1.9460 h1        1 CSC      0.101700
     32 H3'2        4.5690   -1.9170    1.5460 h1        1 CSC      0.101700
     33 H6         -0.2610   -2.7170    2.5570 h2        1 CSC      0.117700
     34 H7         -1.7370   -1.5950    4.1780 h1        1 CSC      0.137700
     35 H10        -1.5120    0.7490    2.3520 hn        1 CSC      0.336500
     36 H131       -3.7950    1.4640    1.6000 hc        1 CSC      0.078700
     37 H132       -3.6260    2.4010    3.1440 hc        1 CSC      0.078700
     38 H141       -5.8750    0.4000    2.4040 hc        1 CSC      0.049200
     39 H142       -5.6810    1.1560    4.0300 hc        1 CSC      0.049200
     40 H151       -5.9770    2.7410    1.3580 hc        1 CSC      0.086700
     41 H152       -5.8970    3.4480    3.0170 hc        1 CSC      0.086700
     42 H16        -8.0530    1.4650    1.9430 hx        1 CSC      0.090700
     43 H171       -8.5720    1.3550    4.1090 hn        1 CSC      0.444800
     44 H172       -7.5670    2.5960    4.5630 hn        1 CSC      0.444800
     45 H173       -9.0820    2.9580    3.9250 hn        1 CSC      0.444800
     46 H201        5.8170    0.9940   -2.0480 hc        1 CSC      0.080700
     47 H202        4.0840    1.3670   -2.4630 hc        1 CSC      0.080700
     48 H203        4.6660   -0.3650   -2.4320 hc        1 CSC      0.080700
     49 H102        2.5310    0.1970    5.2380 ho        1 CSC      0.455000
@<TRIPOS>BOND
     1    1    2 1   
     2    1   10 1   
     3    2    3 1   
     4    2   29 1   
     5    2   30 1   
     6    3    4 1   
     7    3    5 2   
     8    4   25 1   
     9    4   31 1   
    10    4   32 1   
    11    5    6 1   
    12    5    9 1   
    13    6    7 2   
    14    6    8 1   
    15    8   49 1   
    16    9   10 1   
    17    9   12 1   
    18   10   11 1   
    19   10   33 1   
    20   11   12 1   
    21   11   14 1   
    22   11   34 1   
    23   12   13 2   
    24   14   15 1   
    25   14   35 1   
    26   15   16 2   
    27   15   17 1   
    28   17   18 1   
    29   17   36 1   
    30   17   37 1   
    31   18   19 1   
    32   18   38 1   
    33   18   39 1   
    34   19   20 1   
    35   19   40 1   
    36   19   41 1   
    37   20   21 1   
    38   20   22 1   
    39   20   42 1   
    40   21   43 1   
    41   21   44 1   
    42   21   45 1   
    43   22   23 1   
    44   22   24 1   
    45   25   26 1   
    46   26   27 2   
    47   26   28 1   
    48   28   46 1   
    49   28   47 1   
    50   28   48 1   
@<TRIPOS>SUBSTRUCTURE
     1 CSC         1 TEMP              0 ****  ****    0 ROOT
