@<TRIPOS>MOLECULE
CSC
   49    50     1     0     0
SMALL
bcc


@<TRIPOS>ATOM
      1 S1         -0.0670   -0.9410    0.9160 ss        1 CSC     -0.294200
      2 C2          1.6690   -0.9480    0.5730 c3        1 CSC      0.024900
      3 C3          2.6230   -1.0010    1.7000 c2        1 CSC     -0.097400
      4 C3'         4.0740   -0.9700    1.3210 c3        1 CSC      0.166600
      5 C4          2.2740   -1.1180    3.0110 ce        1 CSC     -0.081600
      6 C4'         3.3570   -1.2040    4.0450 c         1 CSC      0.652300
      7 O4A         4.3610   -1.9110    3.9420 o         1 CSC     -0.491000
      8 O4B         3.3180   -0.4660    5.1810 oh        1 CSC     -0.563100
      9 N5          0.9580   -1.2970    3.4500 n         1 CSC     -0.375000
     10 C6         -0.1450   -1.6360    2.5480 cy        1 CSC      0.115800
     11 C7         -1.1390   -0.9040    3.5420 cy        1 CSC      0.050700
     12 C8          0.1610   -0.4940    4.3210 c         1 CSC      0.680500
     13 O9          0.4440    0.1860    5.2950 o         1 CSC     -0.545500
     14 N10        -1.9230    0.1540    3.0360 n         1 CSC     -0.558900
     15 C11        -3.2710    0.2940    3.3470 c         1 CSC      0.669100
     16 O12        -3.8300   -0.4990    4.1280 o         1 CSC     -0.599100
     17 C13        -3.9940    1.4660    2.7130 c3        1 CSC     -0.147400
     18 C14        -5.4860    1.3600    2.9520 c3        1 CSC     -0.086400
     19 C15        -6.1970    2.6060    2.4760 c3        1 CSC     -0.097400
     20 C16        -7.7060    2.4760    2.5380 c3        1 CSC     -0.074500
     21 N17        -8.2360    2.3760    3.9320 n4        1 CSC     -0.835600
     22 C18        -8.3830    3.7420    1.8080 c         1 CSC      0.937600
     23 O19        -7.9460    3.9890    0.6730 o         1 CSC     -0.755300
     24 O20        -9.2860    4.3090    2.4780 o         1 CSC     -0.755300
     25 O1          4.2740   -0.7470   -0.0750 os        1 CSC     -0.441900
     26 C1          4.4060    0.5480   -0.5160 c         1 CSC      0.628100
     27 O2          4.2290    1.4600    0.2910 o         1 CSC     -0.533000
     28 C20         4.7580    0.6290   -1.9590 c3        1 CSC     -0.151100
     29 H11         1.8490    0.0000   -0.0070 h1        1 CSC      0.103700
     30 H12         1.8900   -1.8070   -0.1160 h1        1 CSC      0.103700
     31 H3'1        4.6200   -0.1960    1.9260 h1        1 CSC      0.101700
     32 H3'2        4.5330   -1.9860    1.4940 h1        1 CSC      0.101700
     33 H6         -0.3060   -2.7390    2.4950 h2        1 CSC      0.117700
     34 H7         -1.7670   -1.6250    4.1360 h1        1 CSC      0.137700
     35 H10         2.5250    0.0920    5.2230 ho        1 CSC      0.455000
     36 H131       -3.7890    1.5010    1.6110 hc        1 CSC      0.078700
     37 H132       -3.5970    2.4140    3.1660 hc        1 CSC      0.078700
     38 H141       -5.8820    0.4590    2.4130 hc        1 CSC      0.049200
     39 H142       -5.6680    1.1920    4.0470 hc        1 CSC      0.049200
     40 H151       -5.8530    3.4990    3.0620 hc        1 CSC      0.086700
     41 H152       -5.9520    2.8130    1.3960 hc        1 CSC      0.086700
     42 H16        -8.0450    1.5630    1.9760 hx        1 CSC      0.090700
     43 H171       -8.5550    1.4350    4.1430 hn        1 CSC      0.444800
     44 H172       -9.0400    3.0490    3.9810 hn        1 CSC      0.444800
     45 H173       -7.5270    2.6550    4.6070 hn        1 CSC      0.444800
     46 H201        5.8190    0.9710   -2.0490 hc        1 CSC      0.080700
     47 H202        4.6490   -0.3650   -2.4560 hc        1 CSC      0.080700
     48 H203        4.0910    1.3750   -2.4570 hc        1 CSC      0.080700
     49 H102       -1.5110    0.7460    2.3480 hn        1 CSC      0.336500
@<TRIPOS>BOND
     1    1    2 1   
     2    1   10 1   
     3    2    3 1   
     4    2   29 1   
     5    2   30 1   
     6    3    4 1   
     7    3    5 2   
     8    4   25 1   
     9    4   31 1   
    10    4   32 1   
    11    5    6 1   
    12    5    9 1   
    13    6    7 2   
    14    6    8 1   
    15    8   35 1   
    16    9   10 1   
    17    9   12 1   
    18   10   11 1   
    19   10   33 1   
    20   11   12 1   
    21   11   14 1   
    22   11   34 1   
    23   12   13 2   
    24   14   15 1   
    25   14   49 1   
    26   15   16 2   
    27   15   17 1   
    28   17   18 1   
    29   17   36 1   
    30   17   37 1   
    31   18   19 1   
    32   18   38 1   
    33   18   39 1   
    34   19   20 1   
    35   19   40 1   
    36   19   41 1   
    37   20   21 1   
    38   20   22 1   
    39   20   42 1   
    40   21   43 1   
    41   21   44 1   
    42   21   45 1   
    43   22   23 1   
    44   22   24 1   
    45   25   26 1   
    46   26   27 2   
    47   26   28 1   
    48   28   46 1   
    49   28   47 1   
    50   28   48 1   
@<TRIPOS>SUBSTRUCTURE
     1 CSC         1 TEMP              0 ****  ****    0 ROOT
