@<TRIPOS>MOLECULE
CSC
   48    49     1     0     0
SMALL
bcc


@<TRIPOS>ATOM
      1 S1         -9.1940   -1.8870   -4.9920 ss        1 CSC     -0.290200
      2 C2         -9.0760   -0.2790   -4.2030 c3        1 CSC      0.052900
      3 C3         -8.0660   -0.3350   -3.1290 c2        1 CSC     -0.209400
      4 C3'        -8.4420    0.1880   -1.7870 c3        1 CSC      0.192600
      5 C4         -6.8790   -0.9750   -3.3290 ce        1 CSC     -0.019600
      6 C4'        -6.1200   -1.5880   -2.1550 c         1 CSC      0.909800
      7 O4A        -5.3400   -0.9660   -1.3950 o         1 CSC     -0.832300
      8 O4B        -6.3650   -2.8320   -2.0050 o         1 CSC     -0.832300
      9 N5         -6.4720   -1.3840   -4.6190 n         1 CSC     -0.306000
     10 C6         -7.5040   -2.0660   -5.4610 cy        1 CSC      0.084800
     11 C7         -6.6990   -3.4230   -5.3550 cy        1 CSC      0.014700
     12 C8         -5.5720   -2.5270   -4.7190 c         1 CSC      0.650500
     13 O9         -4.3880   -2.6700   -4.4750 o         1 CSC     -0.521500
     14 N10        -7.1840   -4.4000   -4.4350 n         1 CSC     -0.519900
     15 C11        -6.5410   -5.6500   -4.3990 c         1 CSC      0.651100
     16 O12        -6.2110   -6.2330   -5.4490 o         1 CSC     -0.597100
     17 C13        -6.2790   -6.2540   -3.0300 c3        1 CSC     -0.148400
     18 C14        -5.0430   -5.5980   -2.4360 c3        1 CSC     -0.096400
     19 C15        -4.9560   -5.7880   -0.9360 c3        1 CSC     -0.076400
     20 C16        -3.9530   -4.8320   -0.2980 c3        1 CSC     -0.039500
     21 N17        -4.4630   -3.4360   -0.1900 n4        1 CSC     -0.825600
     22 C18        -3.5220   -5.3750    1.1300 c         1 CSC      0.921600
     23 O19        -3.5250   -4.5340    2.0700 o         1 CSC     -0.793800
     24 O20        -3.1910   -6.5780    1.1840 o         1 CSC     -0.793800
     25 O1         -8.5240    1.6260   -1.7940 os        1 CSC     -0.424900
     26 C1         -9.7240    2.2220   -2.0210 c         1 CSC      0.631100
     27 O2        -10.7330    1.5310   -2.1950 o         1 CSC     -0.568000
     28 C20        -9.6380    3.7120   -2.0100 c3        1 CSC     -0.151100
     29 H11       -10.0960   -0.0590   -3.7960 h1        1 CSC      0.085700
     30 H12        -8.8210    0.4870   -4.9740 h1        1 CSC      0.085700
     31 H3'1       -7.6300   -0.0050   -1.0290 h1        1 CSC      0.083200
     32 H3'2       -9.4190   -0.2490   -1.4490 h1        1 CSC      0.083200
     33 H6         -7.4080   -1.6770   -6.5090 h2        1 CSC      0.086700
     34 H7         -6.4440   -3.8830   -6.3410 h1        1 CSC      0.109700
     35 H10        -7.4070   -4.0150   -3.5290 hn        1 CSC      0.336500
     36 H131       -7.1640   -6.1030   -2.3590 hc        1 CSC      0.067700
     37 H132       -6.1190   -7.3560   -3.1500 hc        1 CSC      0.067700
     38 H141       -4.1280   -6.0280   -2.9220 hc        1 CSC      0.061200
     39 H142       -5.0580   -4.4970   -2.6710 hc        1 CSC      0.061200
     40 H151       -5.9680   -5.6590   -0.4680 hc        1 CSC      0.071200
     41 H152       -4.6070   -6.8300   -0.6940 hc        1 CSC      0.071200
     42 H16        -3.0160   -4.8040   -0.9220 hx        1 CSC      0.077700
     43 H171       -4.1130   -2.8280   -0.9370 hn        1 CSC      0.458800
     44 H172       -4.1810   -3.0650    0.7300 hn        1 CSC      0.458800
     45 H173       -5.4910   -3.4130   -0.2700 hn        1 CSC      0.458800
     46 H201       -9.7500    4.0830   -3.0580 hc        1 CSC      0.069700
     47 H202       -8.6540    4.0490   -1.6040 hc        1 CSC      0.069700
     48 H203      -10.4660    4.1220   -1.3840 hc        1 CSC      0.069700
@<TRIPOS>BOND
     1    1    2 1   
     2    1   10 1   
     3    2    3 1   
     4    2   29 1   
     5    2   30 1   
     6    3    4 1   
     7    3    5 2   
     8    4   25 1   
     9    4   31 1   
    10    4   32 1   
    11    5    6 1   
    12    5    9 1   
    13    6    7 1   
    14    6    8 1   
    15    9   10 1   
    16    9   12 1   
    17   10   11 1   
    18   10   33 1   
    19   11   12 1   
    20   11   14 1   
    21   11   34 1   
    22   12   13 2   
    23   14   15 1   
    24   14   35 1   
    25   15   16 2   
    26   15   17 1   
    27   17   18 1   
    28   17   36 1   
    29   17   37 1   
    30   18   19 1   
    31   18   38 1   
    32   18   39 1   
    33   19   20 1   
    34   19   40 1   
    35   19   41 1   
    36   20   21 1   
    37   20   22 1   
    38   20   42 1   
    39   21   43 1   
    40   21   44 1   
    41   21   45 1   
    42   22   23 1   
    43   22   24 1   
    44   25   26 1   
    45   26   27 2   
    46   26   28 1   
    47   28   46 1   
    48   28   47 1   
    49   28   48 1   
@<TRIPOS>SUBSTRUCTURE
     1 CSC         1 TEMP              0 ****  ****    0 ROOT
