@<TRIPOS>MOLECULE
CSC
   49    50     1     0     0
SMALL
bcc


@<TRIPOS>ATOM
      1 S1         -0.0510   -0.9660    0.9660 ss        1 CSC     -0.294200
      2 C2          1.6850   -0.9630    0.6180 c3        1 CSC      0.024900
      3 C3          2.6420   -0.9670    1.7430 c2        1 CSC     -0.097400
      4 C3'         4.0910   -0.9310    1.3590 c3        1 CSC      0.166600
      5 C4          2.2980   -1.0450    3.0590 ce        1 CSC     -0.081600
      6 C4'         3.3850   -1.0830    4.0920 c         1 CSC      0.652300
      7 O4A         4.3970   -1.7820    4.0080 o         1 CSC     -0.491000
      8 O4B         3.3400   -0.3090    5.2030 oh        1 CSC     -0.563100
      9 N5          0.9860   -1.2260    3.5070 n         1 CSC     -0.375000
     10 C6         -0.1160   -1.6080    2.6200 cy        1 CSC      0.115800
     11 C7         -1.1160   -0.8560    3.5930 cy        1 CSC      0.050700
     12 C8          0.1800   -0.4040    4.3540 c         1 CSC      0.680500
     13 O9          0.4590    0.3100    5.3040 o         1 CSC     -0.545500
     14 N10        -1.9150    0.1750    3.0540 ns        1 CSC     -0.558900
     15 C11        -3.2640    0.3080    3.3640 c         1 CSC      0.669100
     16 O12        -3.8100   -0.4660    4.1730 o         1 CSC     -0.599100
     17 C13        -4.0030    1.4500    2.6950 c3        1 CSC     -0.147400
     18 C14        -5.4930    1.3310    2.9390 c3        1 CSC     -0.086400
     19 C15        -6.2220    2.5510    2.4250 c3        1 CSC     -0.097400
     20 C16        -7.7280    2.4040    2.4930 c3        1 CSC     -0.074500
     21 N17        -8.2550    2.3400    3.8900 nz        1 CSC     -0.835600
     22 C18        -8.4230    3.6360    1.7230 c         1 CSC      0.937600
     23 O19        -7.9910    3.8520    0.5810 o         1 CSC     -0.755300
     24 O20        -9.3320    4.2120    2.3770 o         1 CSC     -0.755300
     25 O1          4.2850   -0.7520   -0.0440 os        1 CSC     -0.441900
     26 C1          4.4000    0.5280   -0.5290 c         1 CSC      0.628100
     27 O2          4.2130    1.4650    0.2480 o         1 CSC     -0.533000
     28 C20         4.7470    0.5660   -1.9750 c3        1 CSC     -0.151100
     29 H11         1.9140   -1.8410   -0.0430 h1        1 CSC      0.103700
     30 H12         1.8510   -0.0320    0.0070 h1        1 CSC      0.103700
     31 H3'1        4.6300   -0.1300    1.9360 h1        1 CSC      0.101700
     32 H3'2        4.5640   -1.9350    1.5640 h1        1 CSC      0.101700
     33 H6         -0.2630   -2.7150    2.6040 h2        1 CSC      0.117700
     34 H7         -1.7330   -1.5650    4.2120 h1        1 CSC      0.137700
     35 H10        -1.5120    0.7490    2.3460 hn        1 CSC      0.336500
     36 H131       -3.6180    2.4170    3.1160 hc        1 CSC      0.078700
     37 H132       -3.8000    1.4520    1.5910 hc        1 CSC      0.078700
     38 H141       -5.6710    1.1950    4.0390 hc        1 CSC      0.049200
     39 H142       -5.8770    0.4070    2.4290 hc        1 CSC      0.049200
     40 H151       -5.9800    2.7270    1.3370 hc        1 CSC      0.086700
     41 H152       -5.8880    3.4670    2.9810 hc        1 CSC      0.086700
     42 H16        -8.0560    1.4680    1.9610 hx        1 CSC      0.090700
     43 H171       -7.5500    2.6510    4.5550 hn        1 CSC      0.444800
     44 H172       -9.0680    3.0040    3.9190 hn        1 CSC      0.444800
     45 H173       -8.5610    1.4030    4.1320 hn        1 CSC      0.444800
     46 H201        5.8030    0.9170   -2.0790 hc        1 CSC      0.080700
     47 H202        4.6490   -0.4460   -2.4380 hc        1 CSC      0.080700
     48 H203        4.0690    1.2870   -2.4950 hc        1 CSC      0.080700
     49 H102        2.5400    0.2400    5.2280 ho        1 CSC      0.455000
@<TRIPOS>BOND
     1    1    2 1   
     2    1   10 1   
     3    2    3 1   
     4    2   29 1   
     5    2   30 1   
     6    3    4 1   
     7    3    5 2   
     8    4   25 1   
     9    4   31 1   
    10    4   32 1   
    11    5    6 1   
    12    5    9 1   
    13    6    7 2   
    14    6    8 1   
    15    8   49 1   
    16    9   10 1   
    17    9   12 1   
    18   10   11 1   
    19   10   33 1   
    20   11   12 1   
    21   11   14 1   
    22   11   34 1   
    23   12   13 2   
    24   14   15 1   
    25   14   35 1   
    26   15   16 2   
    27   15   17 1   
    28   17   18 1   
    29   17   36 1   
    30   17   37 1   
    31   18   19 1   
    32   18   38 1   
    33   18   39 1   
    34   19   20 1   
    35   19   40 1   
    36   19   41 1   
    37   20   21 1   
    38   20   22 1   
    39   20   42 1   
    40   21   43 1   
    41   21   44 1   
    42   21   45 1   
    43   22   23 1   
    44   22   24 1   
    45   25   26 1   
    46   26   27 2   
    47   26   28 1   
    48   28   46 1   
    49   28   47 1   
    50   28   48 1   
@<TRIPOS>SUBSTRUCTURE
     1 CSC         1 TEMP              0 ****  ****    0 ROOT
