@<TRIPOS>MOLECULE
CSD
   15    14     1     0     0
SMALL
bcc


@<TRIPOS>ATOM
      1 N           0.7330    1.7340    0.4360 n3        1 CSD     -0.912800
      2 CA          0.8510    0.2810    0.4400 c3        1 CSD      0.030500
      3 CB         -0.2920   -0.3670   -0.3390 c3        1 CSD     -0.118100
      4 SG         -1.7890    0.2060    0.3130 s4        1 CSD      0.570700
      5 C           2.2100   -0.2760   -0.1040 c         1 CSD      0.898600
      6 O           3.0710    0.5610   -0.4930 o         1 CSD     -0.833300
      7 OXT         2.3610   -1.5270   -0.0950 o         1 CSD     -0.833300
      8 OD1        -2.5560    0.7980   -0.8030 o         1 CSD     -0.563200
      9 OD2        -2.6940   -1.2520    0.3490 oh        1 CSD     -0.618800
     10 H           1.4950    2.1000    0.9820 hn        1 CSD      0.342800
     11 H2          0.8830    2.0600   -0.5040 hn        1 CSD      0.342800
     12 HA          0.7820   -0.0560    1.5160 h1        1 CSD      0.040700
     13 HB2        -0.1750   -0.1490   -1.4300 h1        1 CSD      0.111700
     14 HB3        -0.1720   -1.4780   -0.2280 h1        1 CSD      0.111700
     15 HD2        -3.2590   -1.3290   -0.4200 ho        1 CSD      0.429000
@<TRIPOS>BOND
     1    1    2 1   
     2    1   10 1   
     3    1   11 1   
     4    2    3 1   
     5    2    5 1   
     6    2   12 1   
     7    3    4 1   
     8    3   13 1   
     9    3   14 1   
    10    4    8 2   
    11    4    9 1   
    12    5    6 1   
    13    5    7 1   
    14    9   15 1   
@<TRIPOS>SUBSTRUCTURE
     1 CSD         1 TEMP              0 ****  ****    0 ROOT
