@<TRIPOS>MOLECULE
CSE
   13    12     1     0     0
SMALL
bcc


@<TRIPOS>ATOM
      1 N          -1.6960    0.2320   -0.4800 n3        1 CSE     -0.897800
      2 CA         -0.2680    0.2710   -0.4490 c3        1 CSE      0.002500
      3 CB          0.2070    0.2610    0.9930 c3        1 CSE      0.071700
      4 SE          2.0620   -0.2050    1.0520 sh        1 CSE     -0.506900
      5 C           0.2720   -0.9130   -1.1540 c         1 CSE      0.893600
      6 O          -0.1810   -2.0620   -0.8910 o         1 CSE     -0.834300
      7 OXT         1.2360   -0.7860   -1.9400 o         1 CSE     -0.834300
      8 H          -1.9900    0.2990   -1.3610 hn        1 CSE      0.335800
      9 H2         -2.0300    0.9250    0.0060 hn        1 CSE      0.335800
     10 HA          0.0540    1.1030   -0.9000 h1        1 CSE      0.054700
     11 HB2         0.0810    1.1550    1.3880 h1        1 CSE      0.074700
     12 HB3        -0.3050   -0.3880    1.4950 h1        1 CSE      0.074700
     13 HE          2.5590    0.1100    2.2410 hs        1 CSE      0.229800
@<TRIPOS>BOND
     1    1    2 1   
     2    1    8 1   
     3    1    9 1   
     4    2    3 1   
     5    2    5 1   
     6    2   10 1   
     7    3    4 1   
     8    3   11 1   
     9    3   12 1   
    10    4   13 1   
    11    5    6 1   
    12    5    7 1   
@<TRIPOS>SUBSTRUCTURE
     1 CSE         1 TEMP              0 ****  ****    0 ROOT
