@<TRIPOS>MOLECULE
CSH
   36    37     1     0     0
SMALL
bcc


@<TRIPOS>ATOM
      1 C1          1.0420   -0.6510   -0.0930 c3        1 CSH      0.270900
      2 N2         -0.2800   -0.2080   -0.6230 n3        1 CSH     -0.807200
      3 CA2        -0.5970    1.0660    0.0410 c3        1 CSH      0.069500
      4 C2          0.6800    1.4670    0.8320 c         1 CSH      0.680500
      5 O2          0.7920    2.5020    1.4990 o         1 CSH     -0.618500
      6 N3          1.6550    0.4410    0.7090 n         1 CSH     -0.387800
      7 CA3         2.9800    0.8440    0.2740 c3        1 CSH     -0.075000
      8 C3          3.1820    1.0790   -1.2520 c         1 CSH      0.893600
      9 O3          2.1830    0.9970   -2.0270 o         1 CSH     -0.841300
     10 OXT         4.3590    1.3280   -1.6250 o         1 CSH     -0.841300
     11 CA1         0.9240   -1.9740    0.7440 c3        1 CSH      0.182500
     12 N1         -0.0360   -1.9250    1.8200 n3        1 CSH     -0.884800
     13 CB1         0.6870   -3.1070   -0.2850 c3        1 CSH      0.079400
     14 OG2         0.6720   -4.3370    0.4280 oh        1 CSH     -0.617800
     15 CB2        -1.7960    1.0260    0.9890 c3        1 CSH     -0.089700
     16 CG         -3.0470    0.6270    0.3110 cc        1 CSH      0.318600
     17 ND1        -4.1910    1.4360    0.2180 nc        1 CSH     -0.666000
     18 CD2        -3.3000   -0.6140   -0.3130 cd        1 CSH     -0.238600
     19 CE1        -5.1080    0.7060   -0.4490 cd        1 CSH      0.362400
     20 NE2        -4.6090   -0.5580   -0.7900 na        1 CSH     -0.333900
     21 H1          1.7250   -0.9050   -0.9650 h2        1 CSH      0.095700
     22 HN2        -0.1590   -0.0280   -1.6070 hn        1 CSH      0.380800
     23 HA2        -0.7790    1.8760   -0.7230 h1        1 CSH      0.082700
     24 HA31        3.2460    1.7960    0.8090 h1        1 CSH      0.054700
     25 HA32        3.6920    0.0380    0.5990 h1        1 CSH      0.054700
     26 HA1         1.9330   -2.1610    1.2190 h1        1 CSH      0.073700
     27 HN11       -0.9410   -1.6610    1.4810 hn        1 CSH      0.343300
     28 HN12       -0.1060   -2.8340    2.2400 hn        1 CSH      0.343300
     29 HB11       -0.2950   -2.9740   -0.8110 h1        1 CSH      0.030200
     30 HB12        1.5150   -3.1110   -1.0420 h1        1 CSH      0.030200
     31 HOG         0.6970   -5.0350   -0.2340 ho        1 CSH      0.390000
     32 HB21       -1.6020    0.3180    1.8380 hc        1 CSH      0.070200
     33 HB22       -1.8910    2.0560    1.4330 hc        1 CSH      0.070200
     34 HD2        -2.6520   -1.4780   -0.4530 h4        1 CSH      0.190000
     35 HE1        -6.1200    1.0300   -0.7030 h5        1 CSH      0.046100
     36 HE2        -5.0700   -1.2530   -1.3080 hn        1 CSH      0.288700
@<TRIPOS>BOND
     1    1    2 1   
     2    1    6 1   
     3    1   11 1   
     4    1   21 1   
     5    2    3 1   
     6    2   22 1   
     7    3    4 1   
     8    3   15 1   
     9    3   23 1   
    10    4    5 2   
    11    4    6 1   
    12    6    7 1   
    13    7    8 1   
    14    7   24 1   
    15    7   25 1   
    16    8    9 1   
    17    8   10 1   
    18   11   12 1   
    19   11   13 1   
    20   11   26 1   
    21   12   27 1   
    22   12   28 1   
    23   13   14 1   
    24   13   29 1   
    25   13   30 1   
    26   14   31 1   
    27   15   16 1   
    28   15   32 1   
    29   15   33 1   
    30   16   17 1   
    31   16   18 2   
    32   17   19 2   
    33   18   20 1   
    34   18   34 1   
    35   19   20 1   
    36   19   35 1   
    37   20   36 1   
@<TRIPOS>SUBSTRUCTURE
     1 CSH         1 TEMP              0 ****  ****    0 ROOT
