@<TRIPOS>MOLECULE
CSI
   25    24     1     0     0
SMALL
bcc


@<TRIPOS>ATOM
      1 NE         -1.4500    0.7920   -2.3290 nh        1 CSI     -0.754000
      2 CD2         0.0680    0.6670   -2.3070 c2        1 CSI      0.320000
      3 CD1        -2.1270   -0.0530   -1.3910 c3        1 CSI      0.154800
      4 NH          0.7970    0.6280   -3.3940 n1        1 CSI     -0.373000
      5 CB         -0.0860   -0.2390   -0.0510 c3        1 CSI      0.209500
      6 CG1        -1.5590    0.0250   -0.0300 c3        1 CSI     -0.139400
      7 NG2         0.6430    0.5930   -0.9570 nh        1 CSI     -0.753000
      8 N           1.8570   -0.4670    1.4070 n         1 CSI     -0.596900
      9 CA          0.4690   -0.0160    1.3580 c3        1 CSI      0.002700
     10 C          -0.3240   -0.7750    2.3250 c         1 CSI      0.896600
     11 O          -0.2160   -2.0040    2.3800 o         1 CSI     -0.862800
     12 OXT        -1.0330   -0.1760    3.1510 o         1 CSI     -0.862800
     13 HE         -1.8850    1.0600   -3.1140 hn        1 CSI      0.350800
     14 HD13       -3.0750    0.3290   -1.3120 h1        1 CSI      0.022700
     15 HD12       -1.9560   -0.9910   -1.7010 h1        1 CSI      0.022700
     16 HH          0.4010    0.6770   -4.2100 DU        1 CSI      0.108000
     17 HB          0.0600   -1.1760   -0.2990 h1        1 CSI      0.039700
     18 HG13       -1.6620    0.9560    0.2520 hc        1 CSI      0.074200
     19 HG12       -1.9710   -0.7490    0.4870 hc        1 CSI      0.074200
     20 HG2         1.5630    0.7200   -0.8350 hn        1 CSI      0.500800
     21 H           2.1610   -1.1130    0.7970 hn        1 CSI      0.279500
     22 HCA         0.4260    0.9380    1.5780 h1        1 CSI      0.046700
     23 O3          3.8530   -0.5220    2.5720 o         1 CSI     -0.877300
     24 O4          2.3360    0.9100    3.1940 o         1 CSI     -0.877300
     25 C7          2.7100   -0.0130    2.4310 c         1 CSI      0.993600
@<TRIPOS>BOND
     1    1    2 1   
     2    1    3 1   
     3    1   13 1   
     4    2    4 2   
     5    2    7 1   
     6    3    6 1   
     7    3   14 1   
     8    3   15 1   
     9    5    6 1   
    10    5    7 1   
    11    5    9 1   
    12    5   17 1   
    13    6   18 1   
    14    6   19 1   
    15    7   20 1   
    16    8    9 1   
    17    8   21 1   
    18    8   25 1   
    19    9   10 1   
    20    9   22 1   
    21   10   11 1   
    22   10   12 1   
    23   23   25 1   
    24   24   25 1   
@<TRIPOS>SUBSTRUCTURE
     1 CSI         1 TEMP              0 ****  ****    0 ROOT
