@<TRIPOS>MOLECULE
CSI
   26    24     1     0     0
SMALL
bcc


@<TRIPOS>ATOM
      1 NE         -0.4250   -1.0960   -4.2020 n1        1 CSI     -0.427800
      2 CD2         1.3490    0.2930    1.1200 c2        1 CSI      0.600100
      3 CD1        -0.0270   -0.7470   -3.1680 c1        1 CSI      0.208300
      4 NH          1.0070    0.6830   -0.0700 n2        1 CSI     -0.911100
      5 CB          1.1030   -1.3750    2.8960 c3        1 CSI      0.199500
      6 CG1        -0.3050   -0.9520    3.3160 c3        1 CSI     -0.134100
      7 NG2         1.4190   -1.0550    1.5070 nu        1 CSI     -0.825200
      8 N           3.5150   -0.7770    3.4830 ny        1 CSI     -0.685800
      9 CA          2.1070   -0.8160    3.9400 c3        1 CSI     -0.032500
     10 C           1.9790   -1.7270    5.2360 c         1 CSI      0.916600
     11 O           0.9840   -1.5270    5.9690 o         1 CSI     -0.801300
     12 OXT         2.8960   -2.5710    5.4230 o         1 CSI     -0.801300
     13 HE          1.6980    0.9790    1.9400 h5        1 CSI      0.041800
     14 HD13        0.3400   -0.4210   -2.2110 ha        1 CSI      0.217500
     15 HD12       -1.0700   -1.4700    2.6900 hc        1 CSI      0.053700
     16 HH          1.1220    1.6640   -0.2030 hn        1 CSI      0.386400
     17 HB          1.1670   -2.5060    2.9590 h1        1 CSI      0.068700
     18 HG13       -0.4650   -1.2240    4.3920 hc        1 CSI      0.053700
     19 HG12       -0.4370    0.1510    3.2060 hc        1 CSI      0.053700
     20 HG2         0.9940   -1.7030    0.8740 hn        1 CSI      0.388800
     21 H           4.0870   -1.2210    4.2160 hn        1 CSI      0.429300
     22 HCA         1.8100    0.2350    4.2200 hx        1 CSI      0.109700
     23 O3          3.3280    1.5970    3.1780 o         1 CSI     -0.723800
     24 O4          5.3600    0.5840    3.0170 o         1 CSI     -0.723800
     25 C7          4.1290    0.6450    3.1980 c         1 CSI      0.909600
     26 H2          3.6350   -1.3350    2.6430 hn        1 CSI      0.429300
@<TRIPOS>BOND
     1    1    3 3   
     2    2    4 2   
     3    2    7 1   
     4    2   13 1   
     5    3   14 1   
     6    4   16 1   
     7    5    6 1   
     8    5    7 1   
     9    5    9 1   
    10    5   17 1   
    11    6   15 1   
    12    6   18 1   
    13    6   19 1   
    14    7   20 1   
    15    8    9 1   
    16    8   21 1   
    17    8   25 1   
    18    8   26 1   
    19    9   10 1   
    20    9   22 1   
    21   10   11 1   
    22   10   12 1   
    23   23   25 1   
    24   24   25 1   
@<TRIPOS>SUBSTRUCTURE
     1 CSI         1 TEMP              0 ****  ****    0 ROOT
