@<TRIPOS>MOLECULE
CSI
   25    25     1     0     0
SMALL
bcc


@<TRIPOS>ATOM
      1 NE         -3.5190   -0.1720   -0.2180 nh        1 CSI     -0.797200
      2 CD2        -2.5100   -1.1970   -0.3710 c2        1 CSI      0.767100
      3 CD1        -3.0520    1.1510    0.1360 c3        1 CSI      0.176800
      4 NH         -2.8670   -2.2760   -1.0500 n2        1 CSI     -0.971100
      5 CB         -0.7290    0.2950    0.5210 c3        1 CSI      0.202500
      6 CG1        -1.5730    1.4050   -0.1100 c3        1 CSI     -0.122400
      7 NG2        -1.2960   -1.0360    0.3430 nh        1 CSI     -0.838200
      8 N           1.6400   -0.4740    0.6490 n         1 CSI     -0.594900
      9 CA          0.7400    0.4160   -0.0270 c3        1 CSI     -0.013300
     10 C           1.1450    1.9210    0.0780 c         1 CSI      0.897600
     11 O           1.6740    2.3650    1.1380 o         1 CSI     -0.863300
     12 OXT         0.9070    2.6580   -0.9280 o         1 CSI     -0.863300
     13 HE         -4.1310   -0.1550   -1.0090 hn        1 CSI      0.373800
     14 HD13       -3.6620    1.9220   -0.4160 h1        1 CSI      0.018200
     15 HD12       -3.2630    1.2810    1.2370 h1        1 CSI      0.018200
     16 HH         -2.1590   -2.9770   -1.0930 hn        1 CSI      0.386400
     17 HB         -0.6980    0.4660    1.6390 h1        1 CSI      0.050700
     18 HG13       -1.3520    1.4730   -1.2070 hc        1 CSI      0.075200
     19 HG12       -1.2730    2.3860    0.3420 hc        1 CSI      0.075200
     20 HG2        -0.5900   -1.7220    0.0990 hn        1 CSI      0.469800
     21 H           2.3770   -0.0100    1.1300 hn        1 CSI      0.280500
     22 HCA         0.6970    0.1560   -1.1270 h1        1 CSI      0.042700
     23 O3          1.1580   -2.3280   -0.7000 o         1 CSI     -0.880300
     24 O4          3.0960   -2.2590    0.4170 o         1 CSI     -0.880300
     25 C7          1.9860   -1.7390    0.0750 c         1 CSI      0.992600
@<TRIPOS>BOND
     1    1    2 1   
     2    1    3 1   
     3    1   13 1   
     4    2    4 2   
     5    2    7 1   
     6    3    6 1   
     7    3   14 1   
     8    3   15 1   
     9    4   16 1   
    10    5    6 1   
    11    5    7 1   
    12    5    9 1   
    13    5   17 1   
    14    6   18 1   
    15    6   19 1   
    16    7   20 1   
    17    8    9 1   
    18    8   21 1   
    19    8   25 1   
    20    9   10 1   
    21    9   22 1   
    22   10   11 1   
    23   10   12 1   
    24   23   25 1   
    25   24   25 1   
@<TRIPOS>SUBSTRUCTURE
     1 CSI         1 TEMP              0 ****  ****    0 ROOT
