@<TRIPOS>MOLECULE
CSI
   26    23     1     0     0
SMALL
bcc


@<TRIPOS>ATOM
      1 NE         -0.4020    5.3870    2.5380 n1        1 CSI     -0.468800
      2 CD2         2.0890   -1.3810   -0.6350 c2        1 CSI      0.469700
      3 CD1         0.1200    4.3870    2.8150 c1        1 CSI      0.228300
      4 NH          3.2930   -1.3030   -1.0750 n2        1 CSI     -0.753100
      5 CB          2.4520   -1.1560    1.7330 c2        1 CSI     -0.091800
      6 CG1         0.6720   -2.5040    0.8950 c2        1 CSI     -0.119900
      7 NG2         1.7360   -1.7090    0.7380 nh        1 CSI      0.019800
      8 N           2.5320   -0.0290    3.9130 n4        1 CSI     -0.662800
      9 CA          2.0130   -1.2070    3.1560 c3        1 CSI     -0.024800
     10 C           2.4870   -2.5480    3.8550 c         1 CSI      0.922600
     11 O           1.8280   -3.5750    3.5710 o         1 CSI     -0.807800
     12 OXT         3.4460   -2.4590    4.6660 o         1 CSI     -0.807800
     13 HE          1.1620   -1.2220   -1.2390 h5        1 CSI     -0.003200
     14 HD13       -0.3750   -3.0830    3.9440 ha        1 CSI      0.000000
     15 HD12       -1.0410   -2.9540    3.9100 ha        1 CSI      0.000000
     16 HH          3.3550   -1.0670   -2.0430 hn        1 CSI      0.397400
     17 HB          0.0760   -2.8000    0.0280 h4        1 CSI      0.032800
     18 HG13        0.6070    3.4540    3.0730 ha        1 CSI      0.233500
     19 HG12        0.4740   -2.9320    1.8900 h4        1 CSI      0.032800
     20 HG2         3.4030   -0.6670    1.4790 h4        1 CSI      0.033800
     21 H           2.4450   -0.2650    4.9030 hn        1 CSI      0.428300
     22 HCA         0.8820   -1.1710    3.2320 hx        1 CSI      0.096700
     23 O3          0.5970    1.3470    3.9720 o         1 CSI     -0.739800
     24 O4          2.5100    2.1770    3.0930 o         1 CSI     -0.739800
     25 C7          1.7930    1.2980    3.6190 c         1 CSI      0.896600
     26 H2          3.5240    0.0850    3.7030 hn        1 CSI      0.428300
@<TRIPOS>BOND
     1    1    3 3   
     2    2    4 2   
     3    2    7 1   
     4    2   13 1   
     5    3   18 1   
     6    4   16 1   
     7    5    7 2   
     8    5    9 1   
     9    5   20 1   
    10    6    7 2   
    11    6   17 1   
    12    6   19 1   
    13    8    9 1   
    14    8   21 1   
    15    8   25 1   
    16    8   26 1   
    17    9   10 1   
    18    9   22 1   
    19   10   11 1   
    20   10   12 1   
    21   14   15 1   
    22   23   25 1   
    23   24   25 1   
@<TRIPOS>SUBSTRUCTURE
     1 CSI         1 TEMP              0 ****  ****    0 ROOT
