@<TRIPOS>MOLECULE
CSI
   26    23     1     0     0
SMALL
bcc


@<TRIPOS>ATOM
      1 NE         -1.2040    0.5300   -0.2370 n2        1 CSI     -0.686800
      2 CD2         2.6880   -0.0090    0.3810 c1        1 CSI      0.600800
      3 CD1        -1.0560    0.2690    0.9670 c1        1 CSI      0.258500
      4 NH          2.3250    0.9920   -0.2700 n2        1 CSI     -0.751800
      5 CB          2.5100   -1.8080    1.9290 c3        1 CSI      0.152800
      6 CG1        -1.0370   -0.0570    2.2340 c2        1 CSI     -0.350100
      7 NG2         3.1060   -1.1020    0.8320 n2        1 CSI     -0.603600
      8 N           3.4750   -0.4100    3.7980 n4        1 CSI     -0.686800
      9 CA          2.2500   -1.0010    3.2140 c3        1 CSI     -0.055500
     10 C           1.5260   -1.9710    4.2320 c         1 CSI      0.920600
     11 O           0.4380   -2.4560    3.8370 o         1 CSI     -0.804300
     12 OXT         2.0900   -2.1700    5.3390 o         1 CSI     -0.804300
     13 HE         -0.4130    0.8920   -0.7330 hn        1 CSI      0.427400
     14 HD13       -0.4850   -3.3180    1.9470 ha        1 CSI      0.000500
     15 HD12       -0.5660   -3.5100    1.3010 ha        1 CSI      0.000500
     16 HH          2.6840    1.8770    0.0250 hn        1 CSI      0.462400
     17 HB          1.5110   -2.2560    1.6370 h1        1 CSI      0.078700
     18 HG13       -0.7460   -1.0670    2.5820 ha        1 CSI      0.173500
     19 HG12       -1.3000    0.6650    3.0160 ha        1 CSI      0.173500
     20 HG2         3.2160   -2.6590    2.1510 h1        1 CSI      0.078700
     21 H           3.4100   -0.5170    4.8210 hn        1 CSI      0.426800
     22 HCA         1.5360   -0.1550    2.9910 hx        1 CSI      0.104700
     23 O3          3.2430    1.5350    2.4210 o         1 CSI     -0.727800
     24 O4          4.4490    1.6470    4.3470 o         1 CSI     -0.727800
     25 C7          3.7430    1.1070    3.4780 c         1 CSI      0.914600
     26 H2          4.2870   -0.9390    3.4900 hn        1 CSI      0.426800
@<TRIPOS>BOND
     1    1    3 2   
     2    1   13 1   
     3    2    4 2   
     4    2    7 2   
     5    3    6 2   
     6    4   16 1   
     7    5    7 1   
     8    5    9 1   
     9    5   17 1   
    10    5   20 1   
    11    6   18 1   
    12    6   19 1   
    13    8    9 1   
    14    8   21 1   
    15    8   25 1   
    16    8   26 1   
    17    9   10 1   
    18    9   22 1   
    19   10   11 1   
    20   10   12 1   
    21   14   15 1   
    22   23   25 1   
    23   24   25 1   
@<TRIPOS>SUBSTRUCTURE
     1 CSI         1 TEMP              0 ****  ****    0 ROOT
