@<TRIPOS>MOLECULE
CSJ
   27    27     1     0     0
SMALL
bcc


@<TRIPOS>ATOM
      1 N          -2.4900    1.1370    1.3280 n3        1 CSJ     -0.888800
      2 CA         -2.8010    0.6870   -0.0220 c3        1 CSJ      0.015500
      3 C          -4.2960    0.2420   -0.2340 c         1 CSJ      0.894600
      4 O          -5.1080    0.4600    0.7060 o         1 CSJ     -0.831800
      5 OXT        -4.5910   -0.2820   -1.3430 o         1 CSJ     -0.831800
      6 CB         -1.9060   -0.4380   -0.5050 c3        1 CSJ      0.016700
      7 SG         -0.2680    0.1350   -0.9250 ss        1 CSJ     -0.244700
      8 CO          0.7940   -0.5780    0.2040 c         1 CSJ      0.582300
      9 O2          0.5010   -1.4240    1.0660 o         1 CSJ     -0.584100
     10 C1          2.1760   -0.0780    0.0280 ca        1 CSJ     -0.214600
     11 C2          3.3010   -0.9350    0.1770 ca        1 CSJ      0.198600
     12 C3          4.5970   -0.3750    0.0280 ca        1 CSJ     -0.221000
     13 N2          3.1620   -2.3050    0.3770 nh        1 CSJ     -0.829200
     14 C4          4.7580    0.9700   -0.2710 ca        1 CSJ     -0.080000
     15 C5          3.6490    1.8010   -0.4240 ca        1 CSJ     -0.196000
     16 C6          2.3710    1.2740   -0.2730 ca        1 CSJ     -0.047000
     17 HN         -3.2510    1.7280    1.6240 hn        1 CSJ      0.336300
     18 HNA        -2.4950    0.3410    1.9420 hn        1 CSJ      0.336300
     19 HA         -2.6510    1.5790   -0.7000 h1        1 CSJ      0.053700
     20 HB         -1.8350   -1.2650    0.2400 h1        1 CSJ      0.095700
     21 HBA        -2.3400   -0.8400   -1.4590 h1        1 CSJ      0.095700
     22 H3          5.4840   -1.0140    0.1450 ha        1 CSJ      0.123000
     23 HN2         2.2720   -2.6020    0.7210 hn        1 CSJ      0.405800
     24 HN2A        3.9340   -2.7400    0.8280 hn        1 CSJ      0.405800
     25 H4          5.7720    1.3820   -0.3830 ha        1 CSJ      0.118000
     26 H5          3.7820    2.8660   -0.6590 ha        1 CSJ      0.128000
     27 H6          1.4860    1.9270   -0.3860 ha        1 CSJ      0.162000
@<TRIPOS>BOND
     1    1    2 1   
     2    1   17 1   
     3    1   18 1   
     4    2    3 1   
     5    2    6 1   
     6    2   19 1   
     7    3    4 1   
     8    3    5 1   
     9    6    7 1   
    10    6   20 1   
    11    6   21 1   
    12    7    8 1   
    13    8    9 2   
    14    8   10 1   
    15   10   11 ar  
    16   10   16 ar  
    17   11   12 ar  
    18   11   13 1   
    19   12   14 ar  
    20   12   22 1   
    21   13   23 1   
    22   13   24 1   
    23   14   15 ar  
    24   14   25 1   
    25   15   16 ar  
    26   15   26 1   
    27   16   27 1   
@<TRIPOS>SUBSTRUCTURE
     1 CSJ         1 TEMP              0 ****  ****    0 ROOT
