@<TRIPOS>MOLECULE
CSK
   17    16     1     0     0
SMALL
bcc


@<TRIPOS>ATOM
      1 N          -1.3490   -0.4900    2.7380 n3        1 CSK     -0.885800
      2 CA         -0.9020   -0.7850    1.4140 c3        1 CSK      0.017500
      3 C           0.1880   -1.7980    1.4750 c         1 CSK      0.896600
      4 O           1.1170   -1.6760    2.3220 o         1 CSK     -0.827300
      5 CB         -0.3790    0.4750    0.7670 c3        1 CSK      0.023700
      6 SG          0.5920    0.0490   -0.6380 ss        1 CSK     -0.186100
      7 SE          1.0150    1.8790   -1.8380 ss        1 CSK     -0.259100
      8 CM          1.4280    1.3730   -3.6520 c3        1 CSK     -0.029000
      9 OXT         0.1350   -2.8150    0.7460 o         1 CSK     -0.827300
     10 HN1        -1.8480    0.2780    2.7270 hn        1 CSK      0.335800
     11 HN2        -1.8690   -1.1940    3.0540 hn        1 CSK      0.335800
     12 HA         -1.6650   -1.1470    0.8750 h1        1 CSK      0.063700
     13 HB1C        0.1720    0.9670    1.4080 h1        1 CSK      0.079700
     14 HB2C       -1.1240    1.0280    0.4890 h1        1 CSK      0.079700
     15 HM1C        2.1000    0.6520   -3.6480 h1        1 CSK      0.061367
     16 HM2C        1.7840    2.1500   -4.1370 h1        1 CSK      0.061367
     17 HM3C        0.6040    1.0530   -4.1010 h1        1 CSK      0.061367
@<TRIPOS>BOND
     1    1    2 1   
     2    1   10 1   
     3    1   11 1   
     4    2    3 1   
     5    2    5 1   
     6    2   12 1   
     7    3    4 1   
     8    3    9 1   
     9    5    6 1   
    10    5   13 1   
    11    5   14 1   
    12    6    7 1   
    13    7    8 1   
    14    8   15 1   
    15    8   16 1   
    16    8   17 1   
@<TRIPOS>SUBSTRUCTURE
     1 CSK         1 TEMP              0 ****  ****    0 ROOT
