@<TRIPOS>MOLECULE
CSK
   17    16     1     0     0
SMALL
bcc


@<TRIPOS>ATOM
      1 N           0.5830    1.0830    0.7430 n3        1 CSK     -0.895800
      2 CA          1.3170   -0.1440    0.4660 c3        1 CSK      0.008500
      3 C           2.8770    0.0500    0.3690 c         1 CSK      0.892600
      4 O           3.3500    1.1580    0.7450 o         1 CSK     -0.832800
      5 CB          0.8550   -0.8600   -0.7880 c3        1 CSK      0.026700
      6 SG         -0.6300   -1.8140   -0.6510 ss        1 CSK     -0.220100
      7 SE         -2.3070   -0.5910   -0.9810 ss        1 CSK     -0.227100
      8 CM         -2.8050    0.0510    0.5740 c3        1 CSK     -0.036000
      9 OXT         3.5570   -0.9210   -0.0590 o         1 CSK     -0.832800
     10 HN1         1.0810    1.5650    1.4750 hn        1 CSK      0.336300
     11 HN2         0.6300    1.6760   -0.0670 hn        1 CSK      0.336300
     12 HA          1.1510   -0.8270    1.3510 h1        1 CSK      0.058700
     13 HB1C        0.8030   -0.1670   -1.6590 h1        1 CSK      0.094200
     14 HB2C        1.6140   -1.6650   -1.0150 h1        1 CSK      0.094200
     15 HM1C       -3.1500   -0.7520    1.2610 h1        1 CSK      0.066033
     16 HM2C       -1.9930    0.6270    1.0710 h1        1 CSK      0.066033
     17 HM3C       -3.6570    0.7340    0.3470 h1        1 CSK      0.066033
@<TRIPOS>BOND
     1    1    2 1   
     2    1   10 1   
     3    1   11 1   
     4    2    3 1   
     5    2    5 1   
     6    2   12 1   
     7    3    4 1   
     8    3    9 1   
     9    5    6 1   
    10    5   13 1   
    11    5   14 1   
    12    6    7 1   
    13    7    8 1   
    14    8   15 1   
    15    8   16 1   
    16    8   17 1   
@<TRIPOS>SUBSTRUCTURE
     1 CSK         1 TEMP              0 ****  ****    0 ROOT
