@<TRIPOS>MOLECULE
CSL
   36    37     1     0     0
SMALL
bcc


@<TRIPOS>ATOM
      1 P           3.1100    0.7230   -0.2920 p5        1 CSL      1.341900
      2 O2P         4.3770    1.4560   -0.0020 o         1 CSL     -0.923833
      3 O1P         3.1370   -0.5270   -1.1400 o         1 CSL     -0.923833
      4 O5'         2.6620   -0.0410    1.1980 os        1 CSL     -0.570200
      5 C5'         1.4010    0.1660    1.6820 c3        1 CSL      0.223400
      6 C4'         0.4100   -0.9530    1.2760 c3        1 CSL      0.065100
      7 O4'        -0.9260   -0.5390    1.6470 os        1 CSL     -0.430600
      8 C1'        -1.7880   -0.5120    0.5090 c3        1 CSL      0.307500
      9 N1         -2.1220    0.8710    0.1390 n         1 CSL     -0.372000
     10 C2         -3.4860    1.3180    0.2400 c         1 CSL      0.822900
     11 O2         -4.3670    0.5030    0.6100 o         1 CSL     -0.680500
     12 N3         -3.8370    2.6340   -0.0960 nc        1 CSL     -0.763100
     13 C4         -2.8550    3.4830   -0.4590 cd        1 CSL      0.707500
     14 N4         -3.1690    4.8300   -0.7120 nh        1 CSL     -0.897800
     15 C5         -1.4780    3.0710   -0.5590 cd        1 CSL     -0.459600
     16 C6         -1.1550    1.7640   -0.2450 cc        1 CSL      0.085600
     17 C2'        -1.0860   -1.2950   -0.6320 c3        1 CSL     -0.009600
     18 SE2'       -1.9540   -2.8560   -0.7190 ss        1 CSL     -0.338200
     19 CA'        -1.1430   -3.7370   -2.0000 c3        1 CSL     -0.031000
     20 C3'         0.3940   -1.2470   -0.2380 c3        1 CSL      0.114100
     21 O3'         1.1020   -2.4200   -0.5490 oh        1 CSL     -0.657800
     22 O3P         1.8680    1.5450   -0.5820 o         1 CSL     -0.923833
     23 H5'1        1.4380    0.1580    2.8120 h1        1 CSL     -0.000300
     24 H5'2        0.9880    1.1590    1.3490 h1        1 CSL     -0.000300
     25 H4'         0.6130   -1.8900    1.8570 h1        1 CSL      0.051700
     26 H1'        -2.7490   -1.0120    0.8390 h2        1 CSL      0.112700
     27 HN41       -4.1240    5.0290   -0.9030 hn        1 CSL      0.390800
     28 HN42       -2.5280    5.2730   -1.3310 hn        1 CSL      0.390800
     29 H5         -0.6770    3.7600   -0.8510 ha        1 CSL      0.170000
     30 H6         -0.0680    1.4280   -0.3190 h4        1 CSL      0.302000
     31 H2'        -1.2060   -0.8060   -1.6290 h1        1 CSL      0.076700
     32 HA'1       -0.0330   -3.6880   -1.8920 h1        1 CSL      0.059367
     33 HA'2       -1.4790   -4.7950   -1.9170 h1        1 CSL      0.059367
     34 HA'3       -1.4210   -3.3400   -3.0010 h1        1 CSL      0.059367
     35 H3'         0.8920   -0.3660   -0.7760 h1        1 CSL      0.148700
     36 H3T         2.0180   -2.1090   -0.7550 ho        1 CSL      0.495000
@<TRIPOS>BOND
     1    1    2 1   
     2    1    3 1   
     3    1    4 1   
     4    1   22 1   
     5    4    5 1   
     6    5    6 1   
     7    5   23 1   
     8    5   24 1   
     9    6    7 1   
    10    6   20 1   
    11    6   25 1   
    12    7    8 1   
    13    8    9 1   
    14    8   17 1   
    15    8   26 1   
    16    9   10 1   
    17    9   16 1   
    18   10   11 2   
    19   10   12 1   
    20   12   13 2   
    21   13   14 1   
    22   13   15 1   
    23   14   27 1   
    24   14   28 1   
    25   15   16 2   
    26   15   29 1   
    27   16   30 1   
    28   17   18 1   
    29   17   20 1   
    30   17   31 1   
    31   18   19 1   
    32   19   32 1   
    33   19   33 1   
    34   19   34 1   
    35   20   21 1   
    36   20   35 1   
    37   21   36 1   
@<TRIPOS>SUBSTRUCTURE
     1 CSL         1 TEMP              0 ****  ****    0 ROOT
