@<TRIPOS>MOLECULE
CSL
   36    35     1     0     0
SMALL
bcc


@<TRIPOS>ATOM
      1 P           3.4200    2.0780    1.8210 p3        1 CSL      2.519000
      2 O2P         2.9760    2.0240    3.2610 os        1 CSL     -1.265000
      3 O1P         2.8250    3.2970    1.1570 o         1 CSL     -1.230500
      4 O5'         2.9280    0.7720    1.0660 os        1 CSL     -0.741000
      5 C5'         1.5490    0.5340    0.9730 c3        1 CSL      0.056000
      6 C4'         1.2620   -0.9390    1.2870 c3        1 CSL     -0.046000
      7 O4'        -0.2560   -1.1150    1.7410 os        1 CSL     -0.287000
      8 C1'        -0.9500   -1.1680    0.6560 c3        1 CSL      0.158000
      9 N1         -1.4180    0.1810    0.2770 n         1 CSL     -0.265000
     10 C2         -1.7970    1.1390    1.3190 c2        1 CSL      0.343000
     11 O2         -1.7630    0.8070    2.4890 o         1 CSL     -0.398000
     12 N3         -2.3220    2.4660    0.9450 n2        1 CSL     -0.332000
     13 C4         -2.6170    2.7580   -0.4160 c1        1 CSL      0.186000
     14 N4         -3.2960    3.9950   -0.7650 n2        1 CSL     -0.336000
     15 C5         -2.2980    1.7710   -1.4660 c2        1 CSL     -0.371000
     16 C6         -1.6860    0.4800   -1.0980 c2        1 CSL      0.092000
     17 C2'         0.0080   -1.7140   -0.4060 c3        1 CSL     -0.229000
     18 SE2'       -0.4290   -3.4670   -0.8280 ss        1 CSL      0.010000
     19 CA'        -0.1690   -3.7560   -2.7060 c3        1 CSL     -0.308000
     20 C3'         1.4080   -1.6530    0.2300 c3        1 CSL      0.010000
     21 O3'         1.8740   -3.0420    0.5980 oh        1 CSL     -0.389000
     22 O3P         4.9320    2.1570    1.7610 o         1 CSL     -1.230500
     23 H5'1        1.2410    0.7410    0.0620 h1        1 CSL      0.055500
     24 H5'2        1.0760    1.1020    1.6150 h1        1 CSL      0.055500
     25 H4'         1.8620   -1.2550    1.9910 h1        1 CSL      0.081000
     26 H1'        -1.7150   -1.7750    0.7680 h2        1 CSL      0.151000
     27 HN41       -3.5850    4.5710   -0.0950 hn        1 CSL      0.189500
     28 HN42       -3.4520    4.1970   -1.6390 hn        1 CSL      0.189500
     29 H5         -2.4800    1.9740   -2.3950 ha        1 CSL      0.169000
     30 H6         -1.4740   -0.1750   -1.7900 h4        1 CSL      0.272000
     31 H2'        -0.0230   -1.1540   -1.2090 h1        1 CSL      0.118000
     32 HA'1       -0.7030   -3.1130   -3.2120 h1        1 CSL      0.096000
     33 HA'2        0.7820   -3.6400   -2.9280 h1        1 CSL      0.096000
     34 HA'3       -0.4490   -4.6640   -2.9370 h1        1 CSL      0.096000
     35 H3'         2.0430   -1.2300   -0.3830 h1        1 CSL      0.198000
     36 H3T         2.6960   -3.1830    0.2560 ho        1 CSL      0.290000
@<TRIPOS>BOND
     1    1    3 1   
     2    1    4 1   
     3    1   22 1   
     4    4    5 1   
     5    5    6 1   
     6    5   23 1   
     7    5   24 1   
     8    6    7 1   
     9    6   20 1   
    10    6   25 1   
    11    7    8 1   
    12    8    9 1   
    13    8   17 1   
    14    8   26 1   
    15    9   10 1   
    16    9   16 1   
    17   10   11 1   
    18   10   12 1   
    19   12   13 1   
    20   13   15 1   
    21   14   27 1   
    22   14   28 1   
    23   15   16 1   
    24   15   29 1   
    25   16   30 1   
    26   17   18 1   
    27   17   20 1   
    28   17   31 1   
    29   18   19 1   
    30   19   32 1   
    31   19   33 1   
    32   19   34 1   
    33   20   21 1   
    34   20   35 1   
    35   21   36 1   
@<TRIPOS>SUBSTRUCTURE
     1 CSL         1 TEMP              0 ****  ****    0 ROOT
