@<TRIPOS>MOLECULE
CSM
   40    42     1     0     0
SMALL
bcc


@<TRIPOS>ATOM
      1 P          -3.8000   -0.7560   -0.9090 p5        1 CSM      1.329900
      2 N1          2.9070    0.0650    0.2660 n         1 CSM     -0.363000
      3 C2          4.2290    0.5590    0.3580 c         1 CSM      0.801500
      4 O2          4.4870    1.7720    0.5320 o         1 CSM     -0.662500
      5 N3          5.2940   -0.3560    0.2470 n         1 CSM     -0.595500
      6 C4          5.1020   -1.7400    0.0870 c         1 CSM      0.720700
      7 O4          6.1110   -2.4710    0.0060 o         1 CSM     -0.671500
      8 C5          3.7160   -2.1900    0.0390 cc        1 CSM     -0.376200
      9 C6          2.6920   -1.2920    0.1360 cd        1 CSM      0.094600
     10 C1'         1.7890    1.0120    0.4160 c3        1 CSM      0.252500
     11 C2'         1.2580    1.6400   -0.9270 c3        1 CSM      0.085100
     12 O2A         0.3630    2.6630   -0.4790 os        1 CSM     -0.430600
     13 C3'         0.3160    0.4780   -1.4000 c3        1 CSM      0.134100
     14 O3'        -0.3710    0.8320   -2.5530 oh        1 CSM     -0.642800
     15 C4'        -0.4670    0.4870   -0.0380 c3        1 CSM      0.069800
     16 O4'         0.6400    0.3310    0.9370 os        1 CSM     -0.440600
     17 C5'        -1.4660   -0.6420    0.2560 c3        1 CSM      0.262400
     18 O5'        -2.7500   -0.2080    0.3830 os        1 CSM     -0.552200
     19 C6'        -0.8320    1.9940    0.0650 c3        1 CSM      0.116100
     20 C7'        -2.0430    2.4440   -0.7460 c3        1 CSM      0.107400
     21 O8'        -2.7970    3.3940    0.0010 os        1 CSM     -0.463600
     22 C9'        -3.8450    2.7930    0.7560 c3        1 CSM      0.097700
     23 OP1        -5.0000    0.1050   -0.6670 o         1 CSM     -0.920167
     24 OP2        -2.9100   -0.3260   -2.0580 o         1 CSM     -0.920167
     25 OP3        -3.8760   -2.2320   -0.6760 o         1 CSM     -0.920167
     26 H5          3.5400   -3.2640   -0.0770 ha        1 CSM      0.170000
     27 H6          1.6220   -1.6010    0.1230 h4        1 CSM      0.210000
     28 H1'         2.1040    1.7980    1.1580 h2        1 CSM      0.096700
     29 H2'         1.9940    2.0730   -1.6210 h1        1 CSM      0.094700
     30 H3'         0.8640   -0.4840   -1.5650 h1        1 CSM      0.024700
     31 HO3'       -1.2980    0.4810   -2.4820 ho        1 CSM      0.523000
     32 H5'        -1.3640   -1.3940   -0.5800 h1        1 CSM      0.010200
     33 H5'A       -1.1220   -1.1190    1.2250 h1        1 CSM      0.010200
     34 H6'        -0.9110    2.3190    1.1330 h1        1 CSM      0.068700
     35 H7'        -1.7010    2.9970   -1.6610 h1        1 CSM      0.104200
     36 H7'A       -2.6710    1.5470   -1.0450 h1        1 CSM      0.104200
     37 H9'        -3.4320    2.0070    1.4360 h1        1 CSM      0.045700
     38 H9'A       -4.2850    3.6390    1.3420 h1        1 CSM      0.045700
     39 H9'B       -4.6040    2.3250    0.0770 h1        1 CSM      0.045700
     40 HN3         6.2150    0.0170    0.2940 hn        1 CSM      0.332500
@<TRIPOS>BOND
     1    1   18 1   
     2    1   23 1   
     3    1   24 1   
     4    1   25 1   
     5    2    3 1   
     6    2    9 1   
     7    2   10 1   
     8    3    4 2   
     9    3    5 1   
    10    5    6 1   
    11    5   40 1   
    12    6    7 2   
    13    6    8 1   
    14    8    9 2   
    15    8   26 1   
    16    9   27 1   
    17   10   11 1   
    18   10   16 1   
    19   10   28 1   
    20   11   12 1   
    21   11   13 1   
    22   11   29 1   
    23   12   19 1   
    24   13   14 1   
    25   13   15 1   
    26   13   30 1   
    27   14   31 1   
    28   15   16 1   
    29   15   17 1   
    30   15   19 1   
    31   17   18 1   
    32   17   32 1   
    33   17   33 1   
    34   19   20 1   
    35   19   34 1   
    36   20   21 1   
    37   20   35 1   
    38   20   36 1   
    39   21   22 1   
    40   22   37 1   
    41   22   38 1   
    42   22   39 1   
@<TRIPOS>SUBSTRUCTURE
     1 CSM         1 TEMP              0 ****  ****    0 ROOT
