@<TRIPOS>MOLECULE
CSM
   40    41     1     0     0
SMALL
bcc


@<TRIPOS>ATOM
      1 P          -4.2170    0.1080    1.2200 p4        1 CSM      1.724200
      2 N1          1.7300   -1.0750    1.6590 n         1 CSM     -0.344000
      3 C2          0.8100   -1.8930    2.4510 c         1 CSM      0.799500
      4 O2         -0.2570   -1.4340    2.8050 o         1 CSM     -0.655500
      5 N3          1.1730   -3.2630    2.8130 n         1 CSM     -0.598500
      6 C4          2.4450   -3.7790    2.4570 c         1 CSM      0.722700
      7 O4          2.7430   -4.9200    2.7510 o         1 CSM     -0.687500
      8 C5          3.3710   -2.9610    1.6620 cc        1 CSM     -0.396200
      9 C6          3.0020   -1.5880    1.2940 cd        1 CSM      0.096600
     10 C1'         1.3090    0.2870    1.1920 c3        1 CSM      0.261500
     11 C2'         1.6360    0.4430   -0.1680 c3        1 CSM     -0.024900
     12 O2A         1.2690    1.6140   -0.7340 os        1 CSM     -0.431600
     13 C3'         0.3940   -0.3220   -0.6590 c3        1 CSM      0.321100
     14 O3'         0.2600   -0.2780   -1.9500 oh        1 CSM     -0.911800
     15 C4'        -0.5630    0.6580    0.0720 c3        1 CSM     -0.009200
     16 O4'        -0.0250    0.4180    1.3230 os        1 CSM     -0.432600
     17 C5'        -2.0320    0.3380   -0.1120 c3        1 CSM      0.234400
     18 O5'        -2.6390    0.1790    1.1480 os        1 CSM     -0.590200
     19 C6'        -0.0860    1.7570   -0.5860 c3        1 CSM      0.134100
     20 C7'        -0.7790    1.8610   -2.0340 c3        1 CSM      0.134400
     21 O8'         0.1620    2.3260   -2.9720 os        1 CSM     -0.457600
     22 C9'        -0.3370    3.3260   -3.8350 c3        1 CSM      0.104700
     23 OP1        -4.6330   -0.5220    2.5280 o         1 CSM     -0.848000
     24 OP2        -4.7880    1.5030    1.1300 o         1 CSM     -0.896800
     25 OP3        -4.7370   -0.7240    0.0720 os        1 CSM     -0.848000
     26 H5          4.2560   -3.3060    1.4350 ha        1 CSM      0.160000
     27 H6          3.6150   -1.0430    0.7660 h4        1 CSM      0.206000
     28 H1'         1.7630    0.9740    1.7230 h2        1 CSM      0.078700
     29 H2'         2.4840    0.0580   -0.4630 h1        1 CSM      0.064700
     30 H3'         0.3470   -1.2290   -0.2980 h1        1 CSM     -0.080300
     31 HO3'        0.5940   -1.0220   -2.3070 ho        1 CSM      0.475000
     32 H5'        -2.1230   -0.4910   -0.6260 h1        1 CSM      0.026200
     33 H5'A       -2.4680    1.0710   -0.5950 h1        1 CSM      0.026200
     34 H6'        -0.2800    2.5640   -0.0670 h1        1 CSM      0.047700
     35 H7'        -1.5330    2.4850   -1.9910 h1        1 CSM      0.081700
     36 H7'A       -1.1020    0.9780   -2.3060 h1        1 CSM      0.081700
     37 H9'        -0.9870    2.9280   -4.4550 h1        1 CSM      0.034033
     38 H9'A       -0.7760    4.0260   -3.3050 h1        1 CSM      0.034033
     39 H9'B        0.4040    3.7180   -4.3450 h1        1 CSM      0.034033
     40 HN3         0.5980   -3.7700    3.3060 hn        1 CSM      0.328500
@<TRIPOS>BOND
     1    1   18 1   
     2    1   23 1   
     3    1   24 2   
     4    2    3 1   
     5    2    9 1   
     6    2   10 1   
     7    3    4 2   
     8    3    5 1   
     9    5    6 1   
    10    5   40 1   
    11    6    7 2   
    12    6    8 1   
    13    8    9 2   
    14    8   26 1   
    15    9   27 1   
    16   10   11 1   
    17   10   16 1   
    18   10   28 1   
    19   11   12 1   
    20   11   13 1   
    21   11   29 1   
    22   12   19 1   
    23   13   14 1   
    24   13   15 1   
    25   13   30 1   
    26   14   31 1   
    27   15   16 1   
    28   15   17 1   
    29   15   19 1   
    30   17   18 1   
    31   17   32 1   
    32   17   33 1   
    33   19   20 1   
    34   19   34 1   
    35   20   21 1   
    36   20   35 1   
    37   20   36 1   
    38   21   22 1   
    39   22   37 1   
    40   22   38 1   
    41   22   39 1   
@<TRIPOS>SUBSTRUCTURE
     1 CSM         1 TEMP              0 ****  ****    0 ROOT
