@<TRIPOS>MOLECULE
CSN
   19    19     1     0     0
SMALL
bcc


@<TRIPOS>ATOM
      1 S1         -0.1570   -0.0670   -0.5060 s6        1 CSN      1.716300
      2 O4          1.4710    0.1290    0.1800 os        1 CSN     -0.524800
      3 O3         -0.9420   -0.2190    0.6190 o         1 CSN     -0.730200
      4 O2          0.0360   -1.1730   -1.3060 o         1 CSN     -0.730200
      5 O1         -0.2110    1.1710   -1.1390 o         1 CSN     -0.730200
      6 O7          1.9600    2.8950   -0.2050 oh        1 CSN     -0.513100
      7 O6          2.7020   -0.6390    4.9980 o         1 CSN     -0.242500
      8 O5          3.3220    1.2350    5.7060 o         1 CSN     -0.242500
      9 C6          2.1050    0.3290    2.4630 ca        1 CSN     -0.105000
     10 N1          2.9000    0.5350    4.8160 no        1 CSN      0.317200
     11 C3          2.6800    3.0540    2.0340 ca        1 CSN     -0.178000
     12 C1          1.8690    0.8920    1.2040 ca        1 CSN      0.179100
     13 C4          2.9220    2.4900    3.2800 ca        1 CSN     -0.089000
     14 C2          2.1560    2.2730    0.9940 ca        1 CSN      0.126100
     15 C5          2.6350    1.1310    3.4900 ca        1 CSN     -0.199200
     16 HO7         1.4540    2.2930   -0.7900 ho        1 CSN      0.479000
     17 H6          1.8750   -0.7350    2.6320 ha        1 CSN      0.175000
     18 H3          2.8960    4.1160    1.8510 ha        1 CSN      0.143000
     19 H4          3.3330    3.1050    4.0960 ha        1 CSN      0.149000
@<TRIPOS>BOND
     1    1    2 1   
     2    1    3 1   
     3    1    4 1   
     4    1    5 1   
     5    2   12 1   
     6    6   14 1   
     7    6   16 1   
     8    7   10 1   
     9    8   10 1   
    10    9   12 ar  
    11    9   15 ar  
    12    9   17 1   
    13   10   15 1   
    14   11   13 ar  
    15   11   14 ar  
    16   11   18 1   
    17   12   14 ar  
    18   13   15 ar  
    19   13   19 1   
@<TRIPOS>SUBSTRUCTURE
     1 CSN         1 TEMP              0 ****  ****    0 ROOT
