@<TRIPOS>MOLECULE
CSN
   19    15     1     0     0
SMALL
bcc


@<TRIPOS>ATOM
      1 S1         -1.5770   -1.1790    2.0360 ss        1 CSN      2.899000
      2 O4         -0.1330   -0.7470    2.0070 o         1 CSN     -0.690000
      3 O3         -1.7590   -2.4270    2.8660 o         1 CSN     -1.049500
      4 O2         -2.4290   -0.1920    2.7990 o         1 CSN     -1.049500
      5 O1         -2.0930   -1.3750    0.6310 os        1 CSN     -1.053000
      6 O7          1.7540   -2.0790    0.4390 oh        1 CSN     -0.265000
      7 O6         -0.8250    2.9400   -2.2440 o         1 CSN     -0.519200
      8 O5         -1.7740    0.9900   -1.6740 o         1 CSN     -0.519200
      9 C6         -0.1500    1.0770    0.4200 c1        1 CSN     -0.145000
     10 N1         -0.7720    1.9130   -1.5840 no        1 CSN      0.832400
     11 C3          1.7520   -0.2280   -1.1170 c1        1 CSN     -0.167000
     12 C1          0.3130   -0.1720    0.8040 c2        1 CSN      0.152000
     13 C4          1.2880    1.0210   -1.5010 c1        1 CSN     -0.106000
     14 C2          1.2640   -0.8240    0.0360 c2        1 CSN      0.061000
     15 C5          0.3370    1.6730   -0.7320 c1        1 CSN     -0.134000
     16 HO7         1.5620   -2.6860   -0.1810 ho        1 CSN      0.253000
     17 H6         -0.8240    1.5350    0.9590 ha        1 CSN      0.210000
     18 H3          2.4320   -0.6810   -1.6510 ha        1 CSN      0.140000
     19 H4          1.6320    1.4410   -2.3120 ha        1 CSN      0.150000
@<TRIPOS>BOND
     1    1    3 1   
     2    1    4 1   
     3    2   12 1   
     4    6   14 1   
     5    6   16 1   
     6    7   10 2   
     7    8   10 2   
     8    9   12 1   
     9    9   17 1   
    10   10   15 1   
    11   11   14 1   
    12   11   18 1   
    13   12   14 1   
    14   13   15 1   
    15   13   19 1   
@<TRIPOS>SUBSTRUCTURE
     1 CSN         1 TEMP              0 ****  ****    0 ROOT
