@<TRIPOS>MOLECULE
CSN
   19    19     1     0     0
SMALL
bcc


@<TRIPOS>ATOM
      1 S1         -0.1560   -0.4460   -0.2190 s6        1 CSN      1.721300
      2 O4          1.2390    0.6520   -0.0140 os        1 CSN     -0.525800
      3 O3          0.0500   -1.3310    0.8230 o         1 CSN     -0.727867
      4 O2          0.1220   -0.8880   -1.4970 o         1 CSN     -0.727867
      5 O1         -1.1940    0.4530   -0.0780 o         1 CSN     -0.727867
      6 O7          2.3710    3.1110   -0.2850 oh        1 CSN     -0.511100
      7 O6          2.0840   -0.5490    4.8740 o         1 CSN     -0.237500
      8 O5          3.0750    1.1320    5.6380 o         1 CSN     -0.237500
      9 C6          1.8350    0.5520    2.3300 ca        1 CSN     -0.145000
     10 N1          2.5470    0.5500    4.7200 no        1 CSN      0.314200
     11 C3          3.0220    3.0990    1.9970 ca        1 CSN     -0.167000
     12 C1          1.7820    1.1840    1.0820 ca        1 CSN      0.197100
     13 C4          3.0680    2.4710    3.2380 ca        1 CSN     -0.106000
     14 C2          2.3880    2.4670    0.9250 ca        1 CSN      0.106100
     15 C5          2.4790    1.2070    3.3950 ca        1 CSN     -0.179200
     16 HO7         1.8800    2.5430   -0.9070 ho        1 CSN      0.454000
     17 H6          1.3690   -0.4450    2.4580 ha        1 CSN      0.210000
     18 H3          3.4790    4.0870    1.8520 ha        1 CSN      0.140000
     19 H4          3.5650    2.9660    4.0870 ha        1 CSN      0.150000
@<TRIPOS>BOND
     1    1    2 1   
     2    1    3 1   
     3    1    4 1   
     4    1    5 1   
     5    2   12 1   
     6    6   14 1   
     7    6   16 1   
     8    7   10 1   
     9    8   10 1   
    10    9   12 ar  
    11    9   15 ar  
    12    9   17 1   
    13   10   15 1   
    14   11   13 ar  
    15   11   14 ar  
    16   11   18 1   
    17   12   14 ar  
    18   13   15 ar  
    19   13   19 1   
@<TRIPOS>SUBSTRUCTURE
     1 CSN         1 TEMP              0 ****  ****    0 ROOT
