@<TRIPOS>MOLECULE
CSN
   19    19     1     0     0
SMALL
bcc


@<TRIPOS>ATOM
      1 S1          2.7080   -0.7490   -0.0700 s6        1 CSN      1.716300
      2 O4          1.3110   -0.2000    0.8820 os        1 CSN     -0.524800
      3 O3          2.1160   -1.4760   -1.0830 o         1 CSN     -0.730200
      4 O2          3.4120   -1.4440    0.8900 o         1 CSN     -0.730200
      5 O1          3.1760    0.5170   -0.4060 o         1 CSN     -0.730200
      6 O7          1.1670    2.5510    0.2140 oh        1 CSN     -0.513100
      7 O6         -3.4180   -1.8180    0.2950 o         1 CSN     -0.242500
      8 O5         -4.4990   -0.1270   -0.3110 o         1 CSN     -0.242500
      9 C6         -1.0050   -0.4450    0.3970 ca        1 CSN     -0.105000
     10 N1         -3.4580   -0.6480    0.0110 no        1 CSN      0.317200
     11 C3         -1.1480    2.3120   -0.1670 ca        1 CSN     -0.178000
     12 C1          0.1580    0.3310    0.4600 ca        1 CSN      0.179100
     13 C4         -2.3010    1.5400   -0.2200 ca        1 CSN     -0.089000
     14 C2          0.0810    1.7250    0.1680 ca        1 CSN      0.126100
     15 C5         -2.2260    0.1670    0.0620 ca        1 CSN     -0.199200
     16 HO7         1.9740    2.0020    0.3030 ho        1 CSN      0.479000
     17 H6         -0.9470   -1.5240    0.6130 ha        1 CSN      0.175000
     18 H3         -1.1850    3.3880   -0.3870 ha        1 CSN      0.143000
     19 H4         -3.2650    2.0030   -0.4830 ha        1 CSN      0.149000
@<TRIPOS>BOND
     1    1    2 1   
     2    1    3 1   
     3    1    4 1   
     4    1    5 1   
     5    2   12 1   
     6    6   14 1   
     7    6   16 1   
     8    7   10 1   
     9    8   10 1   
    10    9   12 ar  
    11    9   15 ar  
    12    9   17 1   
    13   10   15 1   
    14   11   13 ar  
    15   11   14 ar  
    16   11   18 1   
    17   12   14 ar  
    18   13   15 ar  
    19   13   19 1   
@<TRIPOS>SUBSTRUCTURE
     1 CSN         1 TEMP              0 ****  ****    0 ROOT
