@<TRIPOS>MOLECULE
CSO
   14    13     1     0     0
SMALL
bcc


@<TRIPOS>ATOM
      1 N          -0.1960    1.5130    0.3730 n3        1 CSO     -0.903800
      2 CA          0.3300    0.1530    0.3840 c3        1 CSO      0.010500
      3 CB         -0.4860   -0.8010   -0.4720 c3        1 CSO     -0.017300
      4 SG         -2.1070   -1.1440    0.1410 ss        1 CSO     -0.102300
      5 C           1.8350    0.0360   -0.0490 c         1 CSO      0.893600
      6 O           2.4800    1.1080   -0.2230 o         1 CSO     -0.836300
      7 OXT         2.3120   -1.1240   -0.1750 o         1 CSO     -0.836300
      8 OD         -2.9630    0.3000   -0.1880 oh        1 CSO     -0.532800
      9 H           0.4670    2.0910    0.8630 hn        1 CSO      0.337300
     10 HN2        -0.2060    1.8420   -0.5770 hn        1 CSO      0.337300
     11 HA          0.2880   -0.2020    1.4550 h1        1 CSO      0.052700
     12 HB2        -0.5470   -0.4330   -1.5230 h1        1 CSO      0.087200
     13 HB3         0.0440   -1.7910   -0.4750 h1        1 CSO      0.087200
     14 HD         -2.6560    0.9460    0.4550 ho        1 CSO      0.423000
@<TRIPOS>BOND
     1    1    2 1   
     2    1    9 1   
     3    1   10 1   
     4    2    3 1   
     5    2    5 1   
     6    2   11 1   
     7    3    4 1   
     8    3   12 1   
     9    3   13 1   
    10    4    8 1   
    11    5    6 1   
    12    5    7 1   
    13    8   14 1   
@<TRIPOS>SUBSTRUCTURE
     1 CSO         1 TEMP              0 ****  ****    0 ROOT
