@<TRIPOS>MOLECULE
CSP
   16    14     1     0     0
SMALL
bcc


@<TRIPOS>ATOM
      1 N           1.8820   -0.0410    2.1640 n3        1 CSP     -0.348000
      2 CA          0.4990    0.4150    2.1300 c3        1 CSP     -0.086000
      3 CB         -0.2680    0.0090    0.8620 c3        1 CSP     -0.095000
      4 SG          0.6470    0.3810   -0.6300 s         1 CSP     -0.934000
      5 C          -0.2820   -0.0410    3.3940 c2        1 CSP      0.329000
      6 O          -0.1870   -1.2370    3.8080 o         1 CSP     -0.625500
      7 OXT        -0.9860    0.8180    4.0130 o         1 CSP     -0.625500
      8 P          -0.3130   -0.1550   -2.8180 p3        1 CSP      2.521000
      9 O1P        -1.6080    0.5890   -2.8520 o         1 CSP     -1.204000
     10 O2P         0.7730    0.3970   -3.6850 o         1 CSP     -1.204000
     11 O3P        -0.4360   -1.6440   -2.8160 o         1 CSP     -1.204000
     12 H           2.2420    0.0270    1.2210 hn        1 CSP      0.133500
     13 H2          1.8810   -1.0140    2.4180 hn        1 CSP      0.133500
     14 HA          0.5400    1.5440    2.1530 h1        1 CSP      0.077000
     15 HB2        -0.4770   -1.0850    0.8810 h1        1 CSP      0.066000
     16 HB3        -1.2360    0.5590    0.8350 h1        1 CSP      0.066000
@<TRIPOS>BOND
     1    1    2 1   
     2    1   12 1   
     3    1   13 1   
     4    2    3 1   
     5    2    5 1   
     6    2   14 1   
     7    3    4 1   
     8    3   15 1   
     9    3   16 1   
    10    5    6 1   
    11    5    7 1   
    12    8    9 1   
    13    8   10 1   
    14    8   11 1   
@<TRIPOS>SUBSTRUCTURE
     1 CSP         1 TEMP              0 ****  ****    0 ROOT
