@<TRIPOS>MOLECULE
CSS
   14    13     1     0     0
SMALL
bcc


@<TRIPOS>ATOM
      1 N          -1.9530   -0.4980    1.5960 n3        1 CSS     -0.886800
      2 CA         -0.8990   -0.2580    0.6150 c3        1 CSS      0.012500
      3 CB         -1.1980    0.9800   -0.2240 c3        1 CSS      0.016700
      4 SG         -0.2850    1.1630   -1.7310 ss        1 CSS     -0.184100
      5 SD          0.4160   -0.7350   -2.3500 sh        1 CSS     -0.399800
      6 C           0.5120   -0.1160    1.2810 c         1 CSS      0.886600
      7 O           0.5910    0.5540    2.3460 o         1 CSS     -0.831800
      8 OXT         1.4810   -0.7150    0.7320 o         1 CSS     -0.831800
      9 H          -1.7210   -1.3410    2.0890 hn        1 CSS      0.335800
     10 HN2        -1.9250    0.2490    2.2700 hn        1 CSS      0.335800
     11 HA         -0.8710   -1.1540   -0.0740 h1        1 CSS      0.060700
     12 HB2        -2.2840    1.0220   -0.4870 h1        1 CSS      0.068200
     13 HB3        -0.9280    1.8960    0.3630 h1        1 CSS      0.068200
     14 HD          1.2520   -0.9900   -1.2860 hs        1 CSS      0.348800
@<TRIPOS>BOND
     1    1    2 1   
     2    1    9 1   
     3    1   10 1   
     4    2    3 1   
     5    2    6 1   
     6    2   11 1   
     7    3    4 1   
     8    3   12 1   
     9    3   13 1   
    10    4    5 1   
    11    5   14 1   
    12    6    7 1   
    13    6    8 1   
@<TRIPOS>SUBSTRUCTURE
     1 CSS         1 TEMP              0 ****  ****    0 ROOT
