@<TRIPOS>MOLECULE
CSU
   16    14     1     0     0
SMALL
bcc


@<TRIPOS>ATOM
      1 N           3.1670   -1.3110   -0.6500 n3        1 CSU     -0.335000
      2 CA          1.7230   -1.2000   -0.7560 c3        1 CSU     -0.096000
      3 CB          1.1400    0.1460   -0.3300 c3        1 CSU     -0.095000
      4 SG          1.7090    0.6400    1.3150 s         1 CSU     -0.891000
      5 S           0.8330    2.6830    1.9640 s4        1 CSU      2.790000
      6 C           1.2220   -1.4770   -2.2120 c2        1 CSU      0.333000
      7 O           1.8310   -0.9340   -3.1800 o         1 CSU     -0.595000
      8 OXT         0.2210   -2.2360   -2.3550 o         1 CSU     -0.595000
      9 OD1        -0.5530    2.5420    1.8830 o         1 CSU     -1.017000
     10 OD2         1.3590    3.6180    1.0730 o         1 CSU     -1.017000
     11 OD3         1.3240    2.7980    3.2680 o         1 CSU     -1.017000
     12 H           3.5810   -0.8880   -1.4630 hn        1 CSU      0.134000
     13 H2          3.4710   -0.7980    0.1600 hn        1 CSU      0.134000
     14 HA          1.2890   -1.9960   -0.0840 h1        1 CSU      0.092000
     15 HB2         0.0300    0.0760   -0.2980 h1        1 CSU      0.087000
     16 HB3         1.4490    0.9490   -1.0390 h1        1 CSU      0.087000
@<TRIPOS>BOND
     1    1    2 1   
     2    1   12 1   
     3    1   13 1   
     4    2    3 1   
     5    2    6 1   
     6    2   14 1   
     7    3    4 1   
     8    3   15 1   
     9    3   16 1   
    10    5    9 1   
    11    5   10 1   
    12    5   11 1   
    13    6    7 1   
    14    6    8 1   
@<TRIPOS>SUBSTRUCTURE
     1 CSU         1 TEMP              0 ****  ****    0 ROOT
