@<TRIPOS>MOLECULE
CSW
   15    14     1     0     0
SMALL
bcc


@<TRIPOS>ATOM
      1 N          -2.0110   -0.5310    1.5130 n3        1 CSW     -0.885800
      2 CA         -0.7180   -1.1740    1.6860 c3        1 CSW      0.049500
      3 CB          0.4040   -0.5210    0.8800 c3        1 CSW     -0.272600
      4 SG          1.9320   -1.2880    1.0170 s6        1 CSW      1.339000
      5 C          -0.2340   -1.2570    3.1700 c         1 CSW      0.883600
      6 O          -1.0840   -1.2930    4.0920 o         1 CSW     -0.831800
      7 OD1         2.3060   -1.6200   -0.3230 o         1 CSW     -0.693800
      8 OD2         2.9050   -0.4970    1.6390 o         1 CSW     -0.693800
      9 OXT         1.0270   -1.2890    3.3190 o         1 CSW     -0.831800
     10 H          -1.9070    0.4570    1.6540 hn        1 CSW      0.338800
     11 H2         -2.6130   -0.8720    2.2470 hn        1 CSW      0.338800
     12 HA         -0.8470   -2.2360    1.3230 h1        1 CSW      0.048700
     13 HB2         0.5050    0.5420    1.2270 h1        1 CSW      0.104200
     14 HB3         0.1010   -0.4810   -0.2000 h1        1 CSW      0.104200
     15 HG          1.6910   -2.3680    1.5280 hs        1 CSW      0.001800
@<TRIPOS>BOND
     1    1    2 1   
     2    1   10 1   
     3    1   11 1   
     4    2    3 1   
     5    2    5 1   
     6    2   12 1   
     7    3    4 1   
     8    3   13 1   
     9    3   14 1   
    10    4    7 2   
    11    4    8 2   
    12    4   15 1   
    13    5    6 1   
    14    5    9 1   
@<TRIPOS>SUBSTRUCTURE
     1 CSW         1 TEMP              0 ****  ****    0 ROOT
