@<TRIPOS>MOLECULE
CSX
   14    14     1     0     0
SMALL
bcc


@<TRIPOS>ATOM
      1 N           0.9580   -2.1990    1.4260 n3        1 CSX     -0.886800
      2 CA          1.3660   -0.8050    1.4840 c3        1 CSX      0.055500
      3 CB          1.2230   -0.0530    0.1650 c3        1 CSX     -0.018600
      4 SG          1.1130    1.7000    0.4970 s6        1 CSX      0.114900
      5 C           0.6490    0.0250    2.5800 c         1 CSX      0.715600
      6 O           0.1530   -0.5130    3.5950 o         1 CSX     -0.773500
      7 OXT         0.5990    1.2980    2.3630 os        1 CSX     -0.457800
      8 OD          2.5140    2.1400    0.7760 o         1 CSX     -0.563800
      9 H           0.0530   -2.2630    0.9970 hn        1 CSX      0.334300
     10 H2          0.8630   -2.5310    2.3720 hn        1 CSX      0.334300
     11 HA          2.4610   -0.8070    1.7700 h1        1 CSX      0.071700
     12 HB2         2.0830   -0.2950   -0.5000 h1        1 CSX      0.057200
     13 HB3         0.2900   -0.3490   -0.3700 h1        1 CSX      0.057200
     14 HG          1.0270    2.0080   -0.7920 hs        1 CSX     -0.040200
@<TRIPOS>BOND
     1    1    2 1   
     2    1    9 1   
     3    1   10 1   
     4    2    3 1   
     5    2    5 1   
     6    2   11 1   
     7    3    4 1   
     8    3   12 1   
     9    3   13 1   
    10    4    7 1   
    11    4    8 2   
    12    4   14 1   
    13    5    6 2   
    14    5    7 1   
@<TRIPOS>SUBSTRUCTURE
     1 CSX         1 TEMP              0 ****  ****    0 ROOT
