@<TRIPOS>MOLECULE
CSY
   40    41     1     0     0
SMALL
bcc


@<TRIPOS>ATOM
      1 C1         -0.4650    1.0410   -1.4220 c3        1 CSY      0.289900
      2 N2         -0.2880    1.1220    0.0590 n3        1 CSY     -0.810200
      3 CA2         1.1000    0.7410    0.3570 c3        1 CSY      0.077500
      4 C2          1.7900    0.5200   -1.0200 c         1 CSY      0.668500
      5 O2          2.9960    0.2580   -1.1620 o         1 CSY     -0.654500
      6 N3          0.8400    0.6880   -2.0080 n         1 CSY     -0.447800
      7 CA3         1.1200    0.7820   -3.4120 c3        1 CSY     -0.031000
      8 C3          0.0470    0.1340   -4.3360 c         1 CSY      0.902600
      9 O3          0.0260   -1.1240   -4.4240 o         1 CSY     -0.825300
     10 OXT        -0.7240    0.9200   -4.9510 o         1 CSY     -0.825300
     11 CA1        -1.6170    0.0400   -1.8080 c3        1 CSY      0.133500
     12 N1         -1.2940   -1.3620   -1.7240 n3        1 CSY     -0.929800
     13 CB1        -2.8530    0.3900   -0.9560 c3        1 CSY      0.150400
     14 OG2        -4.0510   -0.1110   -1.5200 oh        1 CSY     -0.624800
     15 CB2         1.2210   -0.5360    1.1930 c3        1 CSY     -0.019100
     16 CG          0.7390   -0.3410    2.5860 ca        1 CSY     -0.100300
     17 CD1        -0.6310   -0.3910    2.8700 ca        1 CSY     -0.086500
     18 CD2         1.6490   -0.1180    3.6270 ca        1 CSY     -0.086500
     19 CE1        -1.0910   -0.2220    4.1730 ca        1 CSY     -0.190500
     20 CE2         1.2090    0.0530    4.9370 ca        1 CSY     -0.190500
     21 CZ         -0.1670   -0.0000    5.2040 ca        1 CSY      0.107100
     22 OH         -0.5500    0.1740    6.5180 oh        1 CSY     -0.509100
     23 H1         -0.7770    2.0490   -1.8380 h2        1 CSY      0.052700
     24 HN2        -0.4590    2.0610    0.3630 hn        1 CSY      0.352800
     25 HA2         1.6500    1.5670    0.8900 h1        1 CSY      0.059700
     26 HA31        1.2180    1.8700   -3.6910 h1        1 CSY      0.042700
     27 HA32        2.1030    0.2660   -3.5980 h1        1 CSY      0.042700
     28 HA1        -1.8710    0.2720   -2.8930 h1        1 CSY      0.120700
     29 HN11       -0.8140   -1.6570   -2.5610 hn        1 CSY      0.373800
     30 HN12       -0.7240   -1.5520   -0.9250 hn        1 CSY      0.373800
     31 HB11       -2.7570   -0.0060    0.0910 h1        1 CSY      0.029200
     32 HB12       -2.9940    1.5030   -0.9240 h1        1 CSY      0.029200
     33 HOG        -3.8600   -0.9840   -1.8860 ho        1 CSY      0.419000
     34 HB21        0.6430   -1.3680    0.7090 hc        1 CSY      0.066200
     35 HB22        2.3060   -0.8300    1.1880 hc        1 CSY      0.066200
     36 HD1        -1.3490   -0.5570    2.0500 ha        1 CSY      0.146500
     37 HD2         2.7270   -0.0780    3.4090 ha        1 CSY      0.146500
     38 HE1        -2.1670   -0.2600    4.3920 ha        1 CSY      0.134500
     39 HE2         1.9170    0.2280    5.7580 ha        1 CSY      0.134500
     40 HO         -1.5150    0.1190    6.5500 ho        1 CSY      0.413000
@<TRIPOS>BOND
     1    1    2 1   
     2    1    6 1   
     3    1   11 1   
     4    1   23 1   
     5    2    3 1   
     6    2   24 1   
     7    3    4 1   
     8    3   15 1   
     9    3   25 1   
    10    4    5 2   
    11    4    6 1   
    12    6    7 1   
    13    7    8 1   
    14    7   26 1   
    15    7   27 1   
    16    8    9 1   
    17    8   10 1   
    18   11   12 1   
    19   11   13 1   
    20   11   28 1   
    21   12   29 1   
    22   12   30 1   
    23   13   14 1   
    24   13   31 1   
    25   13   32 1   
    26   14   33 1   
    27   15   16 1   
    28   15   34 1   
    29   15   35 1   
    30   16   17 ar  
    31   16   18 ar  
    32   17   19 ar  
    33   17   36 1   
    34   18   20 ar  
    35   18   37 1   
    36   19   21 ar  
    37   19   38 1   
    38   20   21 ar  
    39   20   39 1   
    40   21   22 1   
    41   22   40 1   
@<TRIPOS>SUBSTRUCTURE
     1 CSY         1 TEMP              0 ****  ****    0 ROOT
