@<TRIPOS>MOLECULE
CSY
   40    39     1     0     0
SMALL
bcc


@<TRIPOS>ATOM
      1 C1         -1.3710   -0.4210   -1.3280 c3        1 CSY      0.061000
      2 N2         -0.0740   -0.3230   -1.2760 n3        1 CSY     -0.288000
      3 CA2         0.2660   -0.3530    0.1960 c3        1 CSY     -0.071000
      4 C2         -1.1340   -0.1860    0.8630 c2        1 CSY      0.277000
      5 O2         -1.3570   -0.1320    2.0430 o         1 CSY     -0.373000
      6 N3         -1.8950    0.1850   -0.0480 n         1 CSY     -0.290000
      7 CA3        -2.9250    1.2270    0.0590 c3        1 CSY     -0.119000
      8 C3         -3.7150    1.0430    1.3880 c2        1 CSY      0.316000
      9 O3         -4.5510    0.1230    1.4930 o         1 CSY     -0.563000
     10 OXT        -3.4640    1.7820    2.3800 o         1 CSY     -0.563000
     11 CA1        -1.9140    0.3480   -2.5420 c3        1 CSY     -0.048000
     12 N1         -0.8220    0.8850   -3.3010 n3        1 CSY     -0.337000
     13 CB1        -2.7190   -0.5900   -3.4130 c3        1 CSY     -0.048000
     14 OG2        -3.9100    0.0780   -3.8670 oh        1 CSY     -0.347000
     15 CB2         1.2750    0.6750    0.6160 c3        1 CSY     -0.107000
     16 CG          2.3900   -0.0040    1.4880 c2        1 CSY     -0.091000
     17 CD1         3.3600   -0.7790    0.8820 c2        1 CSY     -0.082000
     18 CD2         2.4770    0.2850    2.8500 c1        1 CSY     -0.096000
     19 CE1         4.4280   -1.2730    1.6330 c1        1 CSY     -0.161000
     20 CE2         3.5300   -0.2020    3.5900 c1        1 CSY     -0.218000
     21 CZ          4.5140   -0.9870    2.9780 c1        1 CSY      0.062000
     22 OH          5.5020   -1.5400    3.7260 oh        1 CSY     -0.261000
     23 H1         -1.6370   -1.3700   -1.3850 h2        1 CSY      0.158000
     24 HN2         0.3090   -1.0570   -1.6970 hn        1 CSY      0.167000
     25 HA2         0.6970   -1.1740    0.4540 h1        1 CSY      0.109000
     26 HA31       -2.4960    2.1150    0.0530 h1        1 CSY      0.086000
     27 HA32       -3.5320    1.1580   -0.6900 h1        1 CSY      0.086000
     28 HA1        -2.4990    1.0950   -2.2300 h1        1 CSY      0.049000
     29 HN11       -0.5350    1.6590   -2.9140 hn        1 CSY      0.141500
     30 HN12       -1.1110    1.0610   -4.1880 hn        1 CSY      0.141500
     31 HB11       -2.9680   -1.3910   -2.8900 h1        1 CSY      0.125500
     32 HB12       -2.1680   -0.8670   -4.2030 h1        1 CSY      0.125500
     33 HOG        -4.3980   -0.4870   -4.3860 ho        1 CSY      0.189000
     34 HB21        1.6890    1.0850   -0.1930 hc        1 CSY      0.099500
     35 HB22        0.8150    1.3980    1.1620 hc        1 CSY      0.099500
     36 HD1         3.2540   -1.0500   -0.0360 ha        1 CSY      0.154000
     37 HD2         1.7830    0.8390    3.2840 ha        1 CSY      0.134000
     38 HE1         5.1240   -1.8280    1.2000 ha        1 CSY      0.144000
     39 HE2         3.5880   -0.0060    4.5250 ha        1 CSY      0.124000
     40 HO          6.1910   -1.0200    3.7220 ho        1 CSY      0.210000
@<TRIPOS>BOND
     1    1    2 1   
     2    1    6 1   
     3    1   11 1   
     4    1   23 1   
     5    2    3 1   
     6    2   24 1   
     7    3    4 1   
     8    3   15 1   
     9    3   25 1   
    10    4    5 1   
    11    4    6 1   
    12    6    7 1   
    13    7    8 1   
    14    7   26 1   
    15    7   27 1   
    16    8    9 1   
    17    8   10 1   
    18   11   12 1   
    19   11   13 1   
    20   11   28 1   
    21   12   29 1   
    22   12   30 1   
    23   13   14 1   
    24   13   31 1   
    25   13   32 1   
    26   14   33 1   
    27   15   16 1   
    28   15   34 1   
    29   15   35 1   
    30   16   17 1   
    31   16   18 1   
    32   17   19 1   
    33   17   36 1   
    34   18   37 1   
    35   19   38 1   
    36   20   21 1   
    37   20   39 1   
    38   21   22 1   
    39   22   40 1   
@<TRIPOS>SUBSTRUCTURE
     1 CSY         1 TEMP              0 ****  ****    0 ROOT
