@<TRIPOS>MOLECULE
CSZ
   14    13     1     0     0
SMALL
bcc


@<TRIPOS>ATOM
      1 N          -1.9450   -0.8570    0.1120 n3        1 CSZ     -0.886800
      2 CA         -0.5240   -0.7950    0.1470 c3        1 CSZ      0.015500
      3 C          -0.0620   -0.6220    1.5750 c         1 CSZ      0.898600
      4 O          -0.5610    0.2830    2.2930 o         1 CSZ     -0.823800
      5 CB         -0.0510    0.3780   -0.6810 c3        1 CSZ      0.016700
      6 SG          1.5510    0.8900   -0.1200 ss        1 CSZ     -0.152100
      7 SE          2.4440    2.2910   -1.6010 sh        1 CSZ     -0.353800
      8 OXT         0.8220   -1.3840    2.0470 o         1 CSZ     -0.823800
      9 H          -2.2300   -1.5960    0.5710 hn        1 CSZ      0.336300
     10 H2         -2.2280   -0.9100   -0.7580 hn        1 CSZ      0.336300
     11 HA         -0.1530   -1.6220   -0.2190 h1        1 CSZ      0.064700
     12 HB2         0.0020    0.1140   -1.6210 h1        1 CSZ      0.081200
     13 HB3        -0.6820    1.1200   -0.5860 h1        1 CSZ      0.081200
     14 HE          3.6180    2.7100   -1.1600 hs        1 CSZ      0.207800
@<TRIPOS>BOND
     1    1    2 1   
     2    1    9 1   
     3    1   10 1   
     4    2    3 1   
     5    2    5 1   
     6    2   11 1   
     7    3    4 1   
     8    3    8 1   
     9    5    6 1   
    10    5   12 1   
    11    5   13 1   
    12    6    7 1   
    13    7   14 1   
@<TRIPOS>SUBSTRUCTURE
     1 CSZ         1 TEMP              0 ****  ****    0 ROOT
