@<TRIPOS>MOLECULE
CSZ
   14    13     1     0     0
SMALL
bcc


@<TRIPOS>ATOM
      1 N          37.7580   72.3340   44.1390 n3        1 CSZ     -0.894800
      2 CA         37.6180   72.2090   42.6980 c3        1 CSZ      0.022500
      3 C          37.5480   73.5740   41.9250 c         1 CSZ      0.889600
      4 O          37.1400   73.5450   40.7300 o         1 CSZ     -0.836300
      5 CB         36.4770   71.3050   42.2530 c3        1 CSZ      0.004700
      6 SG         34.9470   71.4220   43.1320 ss        1 CSZ     -0.144100
      7 SE         34.9270   69.8800   44.5830 sh        1 CSZ     -0.305800
      8 OXT        37.9400   74.6110   42.5280 o         1 CSZ     -0.836300
      9 H          36.8590   72.5490   44.5360 hn        1 CSZ      0.342800
     10 H2         38.3500   73.1320   44.3110 hn        1 CSZ      0.342800
     11 HA         38.5750   71.7240   42.3330 h1        1 CSZ      0.046700
     12 HB2        36.1830   71.6290   41.2100 h1        1 CSZ      0.089700
     13 HB3        36.8110   70.2420   42.2220 h1        1 CSZ      0.089700
     14 HE         34.2860   68.9670   43.8720 hs        1 CSZ      0.187800
@<TRIPOS>BOND
     1    1    2 1   
     2    1    9 1   
     3    1   10 1   
     4    2    3 1   
     5    2    5 1   
     6    2   11 1   
     7    3    4 1   
     8    3    8 1   
     9    5    6 1   
    10    5   12 1   
    11    5   13 1   
    12    6    7 1   
    13    7   14 1   
@<TRIPOS>SUBSTRUCTURE
     1 CSZ         1 TEMP              0 ****  ****    0 ROOT
