@<TRIPOS>MOLECULE
CT0
   31    32     1     0     0
SMALL
bcc


@<TRIPOS>ATOM
      1 O           2.9690   -1.7240   -0.6250 o         1 CT0     -0.316100
      2 C1          2.6890   -0.6390   -0.1530 c         1 CT0      0.482100
      3 N2          2.7730   -0.4250    1.3320 n4        1 CT0     -0.578500
      4 C3          1.4550   -0.1930    1.9010 cc        1 CT0      0.213300
      5 N           0.4150    0.2290    1.0970 nd        1 CT0     -0.692000
      6 S           1.0360   -0.3730    3.5350 ss        1 CT0      0.369700
      7 C5         -0.4880    0.0930    3.2380 cc        1 CT0     -0.253400
      8 C4         -0.6860    0.3900    1.8660 cd        1 CT0      0.394200
      9 O2          2.7510    1.6940   -0.7530 o         1 CT0     -0.333100
     10 C6          2.2610    0.5940   -0.9430 c         1 CT0      0.498100
     11 N7          1.2190    0.3730   -1.9650 n4        1 CT0     -0.652800
     12 C8          1.7870   -0.1970   -3.2700 c3        1 CT0      0.131500
     13 C9          0.6390   -0.5780   -4.2200 c3        1 CT0     -0.111900
     14 C10         2.5990    0.8580   -4.0360 c3        1 CT0     -0.111900
     15 C11         1.6330    1.5260   -5.0070 c3        1 CT0     -0.099400
     16 C12         0.4110    0.6240   -5.1270 c3        1 CT0     -0.099400
     17 HN2         3.1950   -1.2630    1.7720 hn        1 CT0      0.497300
     18 H5         -1.2920    0.1800    3.9850 h4        1 CT0      0.251000
     19 H4         -1.6370    0.7290    1.4220 h4        1 CT0      0.098100
     20 HN7         0.7760    1.2830   -2.1900 hn        1 CT0      0.489800
     21 H8          2.4050   -1.0920   -2.9740 hx        1 CT0      0.111700
     22 H91        -0.2980   -0.8920   -3.6960 hc        1 CT0      0.095450
     23 H92         0.9900   -1.4620   -4.8210 hc        1 CT0      0.095450
     24 H101        3.1020    1.6030   -3.3700 hc        1 CT0      0.095450
     25 H102        3.4060    0.3150   -4.6000 hc        1 CT0      0.095450
     26 H111        1.3410    2.5430   -4.6410 hc        1 CT0      0.086200
     27 H112        2.1260    1.6690   -6.0040 hc        1 CT0      0.086200
     28 H121       -0.5180    1.1740   -4.8340 hc        1 CT0      0.086200
     29 H122        0.2670    0.2850   -6.1870 hc        1 CT0      0.086200
     30 H22         3.3710    0.4020    1.5170 hn        1 CT0      0.497300
     31 H72         0.4960   -0.2650   -1.6040 hn        1 CT0      0.489800
@<TRIPOS>BOND
     1    1    2 2   
     2    2    3 1   
     3    2   10 1   
     4    3    4 1   
     5    3   17 1   
     6    3   30 1   
     7    4    5 2   
     8    4    6 1   
     9    5    8 1   
    10    6    7 1   
    11    7    8 2   
    12    7   18 1   
    13    8   19 1   
    14    9   10 2   
    15   10   11 1   
    16   11   12 1   
    17   11   20 1   
    18   11   31 1   
    19   12   13 1   
    20   12   14 1   
    21   12   21 1   
    22   13   16 1   
    23   13   22 1   
    24   13   23 1   
    25   14   15 1   
    26   14   24 1   
    27   14   25 1   
    28   15   16 1   
    29   15   26 1   
    30   15   27 1   
    31   16   28 1   
    32   16   29 1   
@<TRIPOS>SUBSTRUCTURE
     1 CT0         1 TEMP              0 ****  ****    0 ROOT
