@<TRIPOS>MOLECULE
CT0
   29    30     1     0     0
SMALL
bcc


@<TRIPOS>ATOM
      1 O          -0.4970    1.3100    0.8470 o         1 CT0     -0.567100
      2 C1         -0.4380    0.3520    0.0590 c         1 CT0      0.585100
      3 N2         -1.5400   -0.3880   -0.3530 n         1 CT0     -0.495400
      4 C3         -2.8530    0.0720   -0.1690 cc        1 CT0      0.465300
      5 N          -3.7200    0.3410   -1.1740 nd        1 CT0     -0.653000
      6 S          -3.5460    0.2510    1.4130 ss        1 CT0     -0.008300
      7 C5         -5.0020    0.6930    0.7510 cc        1 CT0     -0.279400
      8 C4         -4.9390    0.6870   -0.6390 cd        1 CT0      0.344200
      9 O2          0.9740   -0.8400   -1.5150 o         1 CT0     -0.593100
     10 C6          0.9210   -0.1610   -0.4720 c         1 CT0      0.597100
     11 N7          2.0100    0.1690    0.2870 n         1 CT0     -0.530900
     12 C8          3.3600   -0.1550   -0.1060 c3        1 CT0      0.092700
     13 C9          4.2120    1.0700   -0.5090 c3        1 CT0     -0.094400
     14 C10         4.1690   -0.8570    1.0080 c3        1 CT0     -0.094400
     15 C11         5.6230   -0.4780    0.7780 c3        1 CT0     -0.079900
     16 C12         5.6500    0.7220   -0.1610 c3        1 CT0     -0.079900
     17 HN2        -1.3940   -0.9800   -1.1520 hn        1 CT0      0.350500
     18 H5         -5.8820    0.9610    1.3320 h4        1 CT0      0.184000
     19 H4         -5.7590    0.9360   -1.3240 h4        1 CT0      0.048100
     20 HN7         1.8880    0.7910    1.0550 hn        1 CT0      0.332500
     21 H8          3.2990   -0.8530   -0.9950 h1        1 CT0      0.090700
     22 H91         4.0950    1.2790   -1.6010 hc        1 CT0      0.051200
     23 H92         3.8910    1.9870    0.0470 hc        1 CT0      0.051200
     24 H101        3.8380   -0.5200    2.0230 hc        1 CT0      0.051200
     25 H102        4.0200   -1.9620    0.9550 hc        1 CT0      0.051200
     26 H111        6.1820   -1.3360    0.3260 hc        1 CT0      0.045700
     27 H112        6.1220   -0.2340    1.7500 hc        1 CT0      0.045700
     28 H121        6.2260    0.4750   -1.0880 hc        1 CT0      0.045700
     29 H122        6.1570    1.5930    0.3230 hc        1 CT0      0.045700
@<TRIPOS>BOND
     1    1    2 2   
     2    2    3 1   
     3    2   10 1   
     4    3    4 1   
     5    3   17 1   
     6    4    5 2   
     7    4    6 1   
     8    5    8 1   
     9    6    7 1   
    10    7    8 2   
    11    7   18 1   
    12    8   19 1   
    13    9   10 2   
    14   10   11 1   
    15   11   12 1   
    16   11   20 1   
    17   12   13 1   
    18   12   14 1   
    19   12   21 1   
    20   13   16 1   
    21   13   22 1   
    22   13   23 1   
    23   14   15 1   
    24   14   24 1   
    25   14   25 1   
    26   15   16 1   
    27   15   26 1   
    28   15   27 1   
    29   16   28 1   
    30   16   29 1   
@<TRIPOS>SUBSTRUCTURE
     1 CT0         1 TEMP              0 ****  ****    0 ROOT
