@<TRIPOS>MOLECULE
CT0
   29    27     1     0     0
SMALL
bcc


@<TRIPOS>ATOM
      1 O          -1.1560   -0.1200    1.5180 o         1 CT0     -0.348000
      2 C1          0.0530   -0.0100    1.5630 c1        1 CT0      0.278000
      3 N2          0.7190   -0.0150    2.8150 n2        1 CT0     -0.262000
      4 C3         -0.0260   -0.1490    4.0150 c2        1 CT0     -0.180000
      5 N          -1.4430   -0.2970    4.1110 n2        1 CT0     -0.150000
      6 S           0.5590   -0.2430    5.4410 ss        1 CT0      0.600000
      7 C5         -0.6060   -0.4580    6.4010 c1        1 CT0     -0.515000
      8 C4         -1.8200   -0.4940    5.6220 c1        1 CT0     -0.111000
      9 O2          2.0410    0.3670    0.3350 o         1 CT0     -0.357000
     10 C6          0.8430    0.1730    0.2850 c2        1 CT0      0.297000
     11 N7          0.1790    0.1550   -0.9690 n         1 CT0     -0.342000
     12 C8          0.9330    0.3710   -2.1940 c3        1 CT0      0.022000
     13 C9          0.7760   -0.9330   -3.1910 c3        1 CT0     -0.175500
     14 C10         0.4470    1.3870   -2.8440 c3        1 CT0     -0.175500
     15 C11        -0.6290    0.7620   -3.8510 c3        1 CT0     -0.162000
     16 C12        -0.3850   -0.7810   -3.8220 c3        1 CT0     -0.162000
     17 HN2         1.6270    0.0740    2.8490 hn        1 CT0      0.280000
     18 H5         -0.5410   -0.5540    7.3700 DU        1 CT0      0.182500
     19 H4         -2.7220   -0.6190    5.9750 DU        1 CT0      0.182500
     20 HN7        -0.7210    0.0110   -1.0060 hn        1 CT0      0.250000
     21 H8          1.8760    0.5240   -1.9870 h1        1 CT0      0.130000
     22 H91         0.7680   -1.7600   -2.6660 hc        1 CT0      0.095000
     23 H92         1.5110   -0.9530   -3.8390 hc        1 CT0      0.095000
     24 H101        1.1570    1.8410   -3.3440 hc        1 CT0      0.095000
     25 H102        0.0130    2.0100   -2.2250 hc        1 CT0      0.095000
     26 H111       -1.5360    0.9660   -3.5460 hc        1 CT0      0.084250
     27 H112       -0.4890    1.1100   -4.7540 hc        1 CT0      0.084250
     28 H121       -1.1020   -1.2300   -3.3280 hc        1 CT0      0.084250
     29 H122       -0.3260   -1.1330   -4.7340 hc        1 CT0      0.084250
@<TRIPOS>BOND
     1    1    2 1   
     2    2   10 1   
     3    3    4 1   
     4    3   17 1   
     5    4    5 1   
     6    4    6 1   
     7    5    8 1   
     8    6    7 1   
     9    7    8 1   
    10    9   10 1   
    11   10   11 1   
    12   11   12 1   
    13   11   20 1   
    14   12   13 1   
    15   12   14 1   
    16   12   21 1   
    17   13   16 1   
    18   13   22 1   
    19   13   23 1   
    20   14   15 1   
    21   14   24 1   
    22   14   25 1   
    23   15   16 1   
    24   15   26 1   
    25   15   27 1   
    26   16   28 1   
    27   16   29 1   
@<TRIPOS>SUBSTRUCTURE
     1 CT0         1 TEMP              0 ****  ****    0 ROOT
