@<TRIPOS>MOLECULE
CT0
   30    31     1     0     0
SMALL
bcc


@<TRIPOS>ATOM
      1 O           0.4070   -0.6080   -0.4120 o         1 CT0     -0.511100
      2 C1          1.0620    0.4170   -0.1870 c         1 CT0      0.620100
      3 N2          1.6690    0.7810    0.9930 ns        1 CT0     -0.449400
      4 C3          1.1830    0.2480    2.2090 cc        1 CT0      0.362300
      5 N          -0.1070    0.3420    2.6170 nd        1 CT0     -0.619000
      6 S           2.2120   -0.5980    3.2980 ss        1 CT0      0.077700
      7 C5          0.9490   -0.8320    4.3390 cc        1 CT0     -0.253400
      8 C4         -0.2310   -0.2790    3.8340 cd        1 CT0      0.350200
      9 O2          2.0030    2.3940   -1.3600 o         1 CT0     -0.392100
     10 C6          1.3440    1.3680   -1.3780 c         1 CT0      0.439100
     11 N7          0.7000    0.9690   -2.6700 ny        1 CT0     -0.665800
     12 C8          1.4940   -0.1040   -3.3860 c3        1 CT0      0.129500
     13 C9          0.7290   -0.6230   -4.6180 c3        1 CT0     -0.107400
     14 C10         2.8200    0.4380   -3.9450 c3        1 CT0     -0.107400
     15 C11         2.5570    0.8220   -5.3940 c3        1 CT0     -0.095400
     16 C12         1.2490    0.1620   -5.8140 c3        1 CT0     -0.095400
     17 HN2         2.0540    1.7060    1.0590 hn        1 CT0      0.349500
     18 H5          1.0250   -1.3480    5.2980 h4        1 CT0      0.206000
     19 H4         -1.2150   -0.3000    4.3230 h4        1 CT0      0.068100
     20 HN7        -0.2360    0.5910   -2.4650 hn        1 CT0      0.470800
     21 H8          1.6530   -0.9250   -2.6280 hx        1 CT0      0.120700
     22 H91         0.9730   -1.7130   -4.7280 hc        1 CT0      0.085450
     23 H92        -0.3820   -0.5440   -4.5180 hc        1 CT0      0.085450
     24 H101        3.2250    1.2980   -3.3560 hc        1 CT0      0.085450
     25 H102        3.5740   -0.3910   -3.8900 hc        1 CT0      0.085450
     26 H111        2.4890    1.9350   -5.5020 hc        1 CT0      0.072950
     27 H112        3.4030    0.4820   -6.0450 hc        1 CT0      0.072950
     28 H121        1.4080   -0.5220   -6.6860 hc        1 CT0      0.072950
     29 H122        0.5040    0.9340   -6.1350 hc        1 CT0      0.072950
     30 H72         0.6140    1.7840   -3.2890 hn        1 CT0      0.470800
@<TRIPOS>BOND
     1    1    2 2   
     2    2    3 1   
     3    2   10 1   
     4    3    4 1   
     5    3   17 1   
     6    4    5 2   
     7    4    6 1   
     8    5    8 1   
     9    6    7 1   
    10    7    8 2   
    11    7   18 1   
    12    8   19 1   
    13    9   10 2   
    14   10   11 1   
    15   11   12 1   
    16   11   20 1   
    17   11   30 1   
    18   12   13 1   
    19   12   14 1   
    20   12   21 1   
    21   13   16 1   
    22   13   22 1   
    23   13   23 1   
    24   14   15 1   
    25   14   24 1   
    26   14   25 1   
    27   15   16 1   
    28   15   26 1   
    29   15   27 1   
    30   16   28 1   
    31   16   29 1   
@<TRIPOS>SUBSTRUCTURE
     1 CT0         1 TEMP              0 ****  ****    0 ROOT
