@<TRIPOS>MOLECULE
CT0
   30    31     1     0     0
SMALL
bcc


@<TRIPOS>ATOM
      1 O           0.5080    0.7090   -0.6290 o         1 CT0     -0.513100
      2 C1          1.2920   -0.1860   -0.2920 c         1 CT0      0.620100
      3 N2          1.8430   -0.3920    0.9520 n         1 CT0     -0.449400
      4 C3          1.1770    0.1110    2.0920 cc        1 CT0      0.363300
      5 N          -0.1150   -0.1680    2.4020 nd        1 CT0     -0.619000
      6 S           1.9620    1.1600    3.2070 ss        1 CT0      0.078700
      7 C5          0.5920    1.2360    4.1300 cc        1 CT0     -0.253400
      8 C4         -0.4390    0.4790    3.5660 cd        1 CT0      0.350200
      9 O2          2.6540   -2.0150   -1.2720 o         1 CT0     -0.392100
     10 C6          1.8230   -1.1310   -1.4010 c         1 CT0      0.439100
     11 N7          1.2140   -0.9250   -2.7540 n4        1 CT0     -0.669800
     12 C8          2.1800   -0.2690   -3.7170 c3        1 CT0      0.129500
     13 C9          1.7410   -0.4730   -5.1780 c3        1 CT0     -0.106900
     14 C10         2.2270    1.2580   -3.5260 c3        1 CT0     -0.106900
     15 C11         1.2860    1.8590   -4.5600 c3        1 CT0     -0.094900
     16 C12         0.9710    0.7750   -5.5830 c3        1 CT0     -0.094900
     17 HN2         2.3680   -1.2350    1.1020 hn        1 CT0      0.350500
     18 H5          0.5030    1.8010    5.0590 h4        1 CT0      0.206000
     19 H4         -1.4530    0.3650    3.9730 h4        1 CT0      0.068100
     20 HN7         0.9300   -1.8340   -3.1410 hn        1 CT0      0.473300
     21 H8          3.1840   -0.7460   -3.5260 hx        1 CT0      0.112700
     22 H91         2.6720   -0.5770   -5.7960 hc        1 CT0      0.084950
     23 H92         1.1380   -1.4020   -5.3380 hc        1 CT0      0.084950
     24 H101        1.9500    1.5770   -2.4880 hc        1 CT0      0.084950
     25 H102        3.2820    1.5920   -3.7110 hc        1 CT0      0.084950
     26 H111        1.7660    2.7440   -5.0510 hc        1 CT0      0.073450
     27 H112        0.3470    2.2240   -4.0720 hc        1 CT0      0.073450
     28 H121        1.2720    1.0980   -6.6130 hc        1 CT0      0.073450
     29 H122       -0.1290    0.5700   -5.6130 hc        1 CT0      0.073450
     30 H72         0.3820   -0.3220   -2.6580 hn        1 CT0      0.473300
@<TRIPOS>BOND
     1    1    2 2   
     2    2    3 1   
     3    2   10 1   
     4    3    4 1   
     5    3   17 1   
     6    4    5 2   
     7    4    6 1   
     8    5    8 1   
     9    6    7 1   
    10    7    8 2   
    11    7   18 1   
    12    8   19 1   
    13    9   10 2   
    14   10   11 1   
    15   11   12 1   
    16   11   20 1   
    17   11   30 1   
    18   12   13 1   
    19   12   14 1   
    20   12   21 1   
    21   13   16 1   
    22   13   22 1   
    23   13   23 1   
    24   14   15 1   
    25   14   24 1   
    26   14   25 1   
    27   15   16 1   
    28   15   26 1   
    29   15   27 1   
    30   16   28 1   
    31   16   29 1   
@<TRIPOS>SUBSTRUCTURE
     1 CT0         1 TEMP              0 ****  ****    0 ROOT
