@<TRIPOS>MOLECULE
CT1
   50    49     1     0     0
SMALL
bcc


@<TRIPOS>ATOM
      1 C1          1.6430   -1.5540   -2.0090 c3        1 CT1     -0.215000
      2 C2          2.7980   -1.2060   -1.1060 c3        1 CT1     -0.157000
      3 C3          2.3140   -0.7600    0.2600 c3        1 CT1     -0.170000
      4 C4          3.4850   -0.4570    1.1690 c3        1 CT1     -0.168000
      5 N8          2.1420   -0.5530    3.2920 n4        1 CT1     -0.154000
      6 C9          1.5530    0.2610    4.4940 c2        1 CT1      0.377000
      7 O10         2.3300    0.3450    5.4690 o         1 CT1     -0.450500
      8 O11         0.4080    0.7020    4.3110 o         1 CT1     -0.450500
      9 C12         3.5380    3.2920    8.0320 c2        1 CT1     -0.065000
     10 C13         2.4240    3.9370    7.6730 c2        1 CT1     -0.220000
     11 C14         1.0540    3.4330    8.0210 c3        1 CT1     -0.123000
     12 C15         0.1520    4.5330    8.4240 c2        1 CT1      0.060500
     13 C16        -1.0950    4.6760    7.8810 c2        1 CT1     -0.225000
     14 C17        -1.5450    3.7950    6.8700 c2        1 CT1      0.132000
     15 C18        -0.7290    2.7520    6.4140 c2        1 CT1     -0.225000
     16 C19         0.5290    2.5690    6.9450 c2        1 CT1      0.060500
     17 C20         4.9240    3.7220    7.6970 c3        1 CT1     -0.092000
     18 C21         5.7020    2.5440    7.1360 c3        1 CT1     -0.213500
     19 C22         4.9880    4.8970    6.7460 c3        1 CT1     -0.213500
     20 C6          4.3200    0.8370    3.0580 c1        1 CT1      0.069000
     21 C5          3.0600    0.2750    2.4540 c3        1 CT1     -0.191000
     22 H11         1.6740   -1.5720    0.6980 hc        1 CT1      0.079500
     23 H12A        1.0420   -2.3920   -1.5790 hc        1 CT1      0.081333
     24 H13         2.0220   -1.8710   -3.0110 hc        1 CT1      0.081333
     25 H21         0.9710   -0.6740   -2.1490 hc        1 CT1      0.081333
     26 H22         3.4720   -2.0960   -0.9910 hc        1 CT1      0.089500
     27 H31         3.4080   -0.3860   -1.5710 hc        1 CT1      0.089500
     28 H32         1.6700    0.1520    0.1470 hc        1 CT1      0.079500
     29 H41         4.0290   -1.4030    1.4270 hc        1 CT1      0.121000
     30 H42         4.2130    0.2130    0.6350 hc        1 CT1      0.121000
     31 HN8         1.3650   -0.8760    2.7120 hn        1 CT1      0.225000
     32 H12         1.1910    1.7540    6.5730 ha        1 CT1      0.203000
     33 H131        3.4900    2.3570    8.6220 ha        1 CT1      0.130000
     34 H132        2.4370    4.8640    7.0790 ha        1 CT1      0.156000
     35 H15         1.1470    2.7520    8.9430 hc        1 CT1      0.210000
     36 H16         0.5310    5.2310    9.1930 ha        1 CT1      0.203000
     37 H17        -1.7640    5.4910    8.2130 ha        1 CT1      0.200000
     38 H18        -2.5510    3.9410    6.4310 ha        1 CT1      0.182000
     39 H19        -1.0760    2.0770    5.6030 ha        1 CT1      0.200000
     40 H20         5.4080    4.0320    8.6720 hc        1 CT1      0.115000
     41 H211        5.7170    1.7000    7.8670 hc        1 CT1      0.085667
     42 H212        5.2450    2.1820    6.1810 hc        1 CT1      0.085667
     43 H213        6.7550    2.8520    6.9280 hc        1 CT1      0.085667
     44 H221        4.4840    4.6550    5.7790 hc        1 CT1      0.085667
     45 H222        4.4990    5.7960    7.1920 hc        1 CT1      0.085667
     46 H223        6.0550    5.1500    6.5300 hc        1 CT1      0.085667
     47 H6          4.2370    0.0940    4.8750 ho        1 CT1      0.211000
     48 H5          2.4610    1.1960    2.1550 hx        1 CT1      0.170000
     49 H82         2.6420   -1.3630    3.6520 hn        1 CT1      0.225000
     50 O7          4.7520    0.6510    4.2450 oh        1 CT1     -0.138000
@<TRIPOS>BOND
     1    1    2 1   
     2    1   23 1   
     3    1   24 1   
     4    1   25 1   
     5    2    3 1   
     6    2   26 1   
     7    2   27 1   
     8    3    4 1   
     9    3   22 1   
    10    3   28 1   
    11    4   21 1   
    12    4   29 1   
    13    4   30 1   
    14    5    6 1   
    15    5   21 1   
    16    5   31 1   
    17    5   49 1   
    18    6    7 1   
    19    6    8 1   
    20    9   10 1   
    21    9   17 1   
    22    9   33 1   
    23   10   11 1   
    24   10   34 1   
    25   11   12 1   
    26   11   16 1   
    27   11   35 1   
    28   12   13 1   
    29   12   36 1   
    30   13   14 1   
    31   13   37 1   
    32   14   15 1   
    33   14   38 1   
    34   15   16 1   
    35   15   39 1   
    36   16   32 1   
    37   17   18 1   
    38   17   19 1   
    39   17   40 1   
    40   18   41 1   
    41   18   42 1   
    42   18   43 1   
    43   19   44 1   
    44   19   45 1   
    45   19   46 1   
    46   20   21 1   
    47   20   50 1   
    48   21   48 1   
    49   47   50 1   
@<TRIPOS>SUBSTRUCTURE
     1 CT1         1 TEMP              0 ****  ****    0 ROOT
