@<TRIPOS>MOLECULE
CT1
   50    68     1     0     0
SMALL
bcc


@<TRIPOS>ATOM
      1 C1          0.0000    0.0000    0.0000 DU        1 CT1      0.383000
      2 C2          1.5300    0.0000    0.0000 DU        1 CT1      0.105000
      3 C3          2.0400    0.0000    1.4430 DU        1 CT1     -0.117000
      4 C4          3.5690   -0.0000    1.4430 c3        1 CT1     -0.351000
      5 N8          3.6910    1.2510    3.5410 ny        1 CT1     -0.444000
      6 C9          3.5630    1.2990    4.8820 c2        1 CT1      0.342000
      7 O10         3.7700    0.3030    5.5480 o         1 CT1     -0.404000
      8 O11         3.2070    2.4490    5.4850 os        1 CT1     -0.081000
      9 C12         3.0690    2.5000    6.9290 DU        1 CT1     -0.294000
     10 C13         2.0130    3.5410    7.3040 c3        1 CT1     -0.467000
     11 C14         0.6670    3.0970    6.7920 c3        1 CT1     -0.088000
     12 C15         0.2490    3.4760    5.5290 c3        1 CT1     -0.314000
     13 C16        -0.9830    3.0660    5.0570 c3        1 CT1     -0.185000
     14 C17        -1.8020    2.2840    5.8500 c3        1 CT1     -0.227000
     15 C18        -1.3880    1.9110    7.1150 c3        1 CT1     -0.270000
     16 C19        -0.1520    2.3170    7.5850 c2        1 CT1     -0.391000
     17 C20         4.4110    2.8870    7.5550 DU        1 CT1      0.012000
     18 C21         5.4680    1.8460    7.1790 c3        1 CT1     -0.319000
     19 C22         4.8400    4.2600    7.0350 c3        1 CT1     -0.319000
     20 C6          5.5810   -0.1240    2.8890 c3        1 CT1      0.265000
     21 C5          4.0780   -0.0000    2.8870 DU        1 CT1     -0.387000
     22 H11         1.0290    0.0600    0.3320 DU        1 CT1     -0.075000
     23 H12A       -0.3610   -0.8490    0.5680 ha        1 CT1      0.093000
     24 H13        -0.3610   -0.0670   -1.0190 ha        1 CT1      0.093000
     25 H21         0.5780    0.4630    0.2280 DU        1 CT1     -0.075000
     26 H22         1.8920    0.8850   -0.5110 ha        1 CT1      0.133000
     27 H31         1.9660   -0.4470    0.4590 DU        1 CT1      0.109000
     28 H32         1.6780   -0.8850    1.9540 ha        1 CT1      0.139000
     29 H41         2.6170    0.4470    1.7010 DU        1 CT1      0.153000
     30 H42         3.9300    0.8850    0.9330 hc        1 CT1      0.125000
     31 HN8         3.7630    0.6180    2.7690 DU        1 CT1      0.225000
     32 H12         3.1790    2.2750    5.8750 ha        1 CT1      0.306000
     33 H131        2.3900    2.5250    7.3020 DU        1 CT1      0.244000
     34 H132        1.9730    3.6430    8.3820 hc        1 CT1      0.164000
     35 H15         1.0830    3.8980    6.0770 DU        1 CT1      0.445000
     36 H16        -0.0350    3.5840    4.9800 DU        1 CT1      0.238000
     37 H17        -1.5570    2.8350    4.9500 DU        1 CT1      0.219000
     38 H18        -2.0880    1.9370    6.2890 DU        1 CT1      0.206000
     39 H19        -1.1110    1.8190    7.6710 DU        1 CT1      0.243000
     40 H20         3.3780    2.6760    7.8050 DU        1 CT1      0.123000
     41 H211        4.8850    2.3880    7.9140 DU        1 CT1      0.216500
     42 H212        5.0740    0.8520    7.3520 hc        1 CT1      0.099750
     43 H213        6.3530    1.9940    7.7870 hc        1 CT1      0.099750
     44 H221        5.2060    3.3110    6.6620 DU        1 CT1      0.216500
     45 H222        4.4120    5.0330    7.6620 hc        1 CT1      0.099750
     46 H223        5.9210    4.3330    7.0590 hc        1 CT1      0.099750
     47 H6          5.3700    0.7490    3.4940 DU        1 CT1      0.199000
     48 H5          5.0360   -0.3490    3.2530 DU        1 CT1      0.185000
     49 H82         3.4840    0.2750    3.4670 DU        1 CT1      0.225000
     50 O7          6.2570    0.7440    3.3860 oh        1 CT1      0.005000
@<TRIPOS>BOND
     1    1    2 1   
     2    1   22 1   
     3    1   23 1   
     4    1   24 1   
     5    1   25 1   
     6    2    3 1   
     7    2   22 1   
     8    2   25 1   
     9    2   26 1   
    10    2   27 1   
    11    3    4 1   
    12    3   27 1   
    13    3   28 1   
    14    3   29 1   
    15    4   21 1   
    16    4   29 1   
    17    4   30 1   
    18    5    6 1   
    19    5   21 1   
    20    5   31 1   
    21    5   49 1   
    22    6    7 1   
    23    6    8 1   
    24    8    9 1   
    25    9   10 1   
    26    9   17 1   
    27    9   32 1   
    28    9   33 1   
    29    9   40 1   
    30   10   11 1   
    31   10   33 1   
    32   10   34 1   
    33   11   12 1   
    34   11   16 1   
    35   11   35 1   
    36   12   13 1   
    37   12   35 1   
    38   12   36 1   
    39   13   14 1   
    40   13   36 1   
    41   13   37 1   
    42   14   15 1   
    43   14   37 1   
    44   14   38 1   
    45   15   16 1   
    46   15   38 1   
    47   15   39 1   
    48   16   39 1   
    49   17   18 1   
    50   17   19 1   
    51   17   40 1   
    52   17   41 1   
    53   17   44 1   
    54   18   41 1   
    55   18   42 1   
    56   18   43 1   
    57   19   44 1   
    58   19   45 1   
    59   19   46 1   
    60   20   21 1   
    61   20   47 1   
    62   20   48 1   
    63   20   50 1   
    64   21   31 1   
    65   21   48 1   
    66   21   49 1   
    67   22   25 1   
    68   47   50 1   
@<TRIPOS>SUBSTRUCTURE
     1 CT1         1 TEMP              0 ****  ****    0 ROOT
