@<TRIPOS>MOLECULE
CT1
   49    46     1     0     0
SMALL
bcc


@<TRIPOS>ATOM
      1 C1         -4.7240   -3.2700   -4.4860 c3        1 CT1     -0.212000
      2 C2         -3.2780   -2.7590   -4.2690 c3        1 CT1     -0.158000
      3 C3         -3.0990   -2.3510   -2.8230 c3        1 CT1     -0.162000
      4 C4         -1.6250   -1.9880   -2.5710 c3        1 CT1     -0.161000
      5 O7         -0.6770   -3.8520   -0.4420 o         1 CT1     -0.279000
      6 N8         -0.1000   -1.1570   -0.8580 n         1 CT1     -0.321000
      7 C9          0.1760   -0.3850    0.3460 c2        1 CT1      0.385000
      8 O10        -0.7340    0.1660    0.9360 o         1 CT1     -0.406000
      9 O11         1.5220   -0.2300    0.8070 os        1 CT1     -0.274000
     10 C12         1.6590    0.7160    1.7590 c3        1 CT1      0.053000
     11 C13         2.8230    1.6680    1.3840 c3        1 CT1     -0.145000
     12 C14         2.2740    3.0590    1.1130 c2        1 CT1     -0.078000
     13 C15         2.6320    4.1210    1.9510 c2        1 CT1     -0.127000
     14 C16         2.2510    5.4090    1.6370 c1        1 CT1     -0.132000
     15 C17         1.5080    5.6540    0.4820 c1        1 CT1     -0.130500
     16 C18         1.1480    4.5930   -0.3590 c1        1 CT1     -0.130500
     17 C19         1.5300    3.3020   -0.0430 c1        1 CT1     -0.124000
     18 C20         1.9660    0.0290    3.1450 c3        1 CT1     -0.103000
     19 C21         0.6140   -0.2600    3.9100 c3        1 CT1     -0.208000
     20 C22         2.7030   -1.2920    2.9080 c3        1 CT1     -0.208000
     21 C6         -1.5250   -2.9920   -0.3120 c1        1 CT1      0.160000
     22 C5         -1.4100   -1.7180   -1.0660 c2        1 CT1     -0.048000
     23 H11        -5.3450   -2.5530   -4.3200 hc        1 CT1      0.075000
     24 H12A       -4.9000   -3.9910   -3.8830 hc        1 CT1      0.075000
     25 H13        -4.8250   -3.5810   -5.4010 hc        1 CT1      0.075000
     26 H21        -3.1130   -1.9890   -4.8480 hc        1 CT1      0.082000
     27 H22        -2.6260   -3.4930   -4.4940 hc        1 CT1      0.082000
     28 H31        -3.6820   -1.5550   -2.6260 hc        1 CT1      0.082000
     29 H32        -3.3480   -3.0760   -2.2560 hc        1 CT1      0.082000
     30 H41        -1.3930   -1.1760   -3.0890 hc        1 CT1      0.099500
     31 H42        -1.0670   -2.7130   -2.8470 hc        1 CT1      0.099500
     32 HN8         0.5420   -1.3200   -1.4300 hn        1 CT1      0.240000
     33 H12         0.8570    1.2110    1.8240 h1        1 CT1      0.120000
     34 H131        3.4640    1.7100    2.1290 hc        1 CT1      0.102000
     35 H132        3.2700    1.3370    0.5940 hc        1 CT1      0.102000
     36 H15         3.1570    3.9490    2.7680 ha        1 CT1      0.129000
     37 H16         2.5030    6.1510    2.2250 ha        1 CT1      0.129000
     38 H17         1.2370    6.5720    0.2590 ha        1 CT1      0.130500
     39 H18         0.6110    4.7690   -1.1920 ha        1 CT1      0.130500
     40 H19         1.2730    2.5400   -0.6460 ha        1 CT1      0.155000
     41 H20         2.5100    0.6080    3.6720 hc        1 CT1      0.100000
     42 H211       -0.0150    0.4980    3.7740 hc        1 CT1      0.078000
     43 H212        0.2090   -1.0930    3.5600 hc        1 CT1      0.078000
     44 H213        0.7990   -0.3660    4.8790 hc        1 CT1      0.078000
     45 H221        2.0820   -1.9540    2.6410 hc        1 CT1      0.078000
     46 H222        3.1530   -1.5790    3.7500 hc        1 CT1      0.078000
     47 H223        3.3560   -1.1740    2.2220 hc        1 CT1      0.078000
     48 H6         -2.2500   -3.1140    0.3320 ha        1 CT1      0.104000
     49 H5         -2.0950   -1.0820   -0.7440 h4        1 CT1      0.148000
@<TRIPOS>BOND
     1    1    2 1   
     2    1   23 1   
     3    1   24 1   
     4    1   25 1   
     5    2    3 1   
     6    2   26 1   
     7    2   27 1   
     8    3    4 1   
     9    3   28 1   
    10    3   29 1   
    11    4   22 1   
    12    4   30 1   
    13    4   31 1   
    14    5   21 1   
    15    6    7 1   
    16    6   22 1   
    17    6   32 1   
    18    7    8 1   
    19    7    9 1   
    20    9   10 1   
    21   10   11 1   
    22   10   18 1   
    23   10   33 1   
    24   11   12 1   
    25   11   34 1   
    26   11   35 1   
    27   12   13 1   
    28   12   17 1   
    29   13   14 1   
    30   13   36 1   
    31   14   37 1   
    32   15   16 1   
    33   15   38 1   
    34   16   39 1   
    35   17   40 1   
    36   18   19 1   
    37   18   20 1   
    38   18   41 1   
    39   19   42 1   
    40   19   43 1   
    41   19   44 1   
    42   20   45 1   
    43   20   46 1   
    44   20   47 1   
    45   21   48 1   
    46   22   49 1   
@<TRIPOS>SUBSTRUCTURE
     1 CT1         1 TEMP              0 ****  ****    0 ROOT
