@<TRIPOS>MOLECULE
CT1
   49    49     1     0     0
SMALL
bcc


@<TRIPOS>ATOM
      1 C1         -4.1960    3.7850    0.3670 c3        1 CT1     -0.093100
      2 C2         -4.5490    2.4280   -0.1850 c3        1 CT1     -0.080400
      3 C3         -3.4870    1.4020    0.1540 c3        1 CT1     -0.080400
      4 C4         -3.8490    0.0450   -0.4070 c3        1 CT1     -0.073400
      5 N8         -1.5420   -0.8440   -0.6070 n         1 CT1     -0.507900
      6 C9         -0.4000   -1.0330    0.1600 c         1 CT1      0.734100
      7 O10        -0.3100   -1.0220    1.3990 o         1 CT1     -0.588000
      8 O11         0.7270   -1.1890   -0.6170 os        1 CT1     -0.435900
      9 C12         2.0040   -1.1430    0.0580 c3        1 CT1      0.161100
     10 C13         2.8930   -0.2310   -0.7910 c3        1 CT1     -0.047100
     11 C14         2.7650    1.2040   -0.4200 ca        1 CT1     -0.082300
     12 C15         2.2180    2.1240   -1.3210 ca        1 CT1     -0.123000
     13 C16         2.1220    3.4720   -0.9790 ca        1 CT1     -0.128500
     14 C17         2.5700    3.9130    0.2650 ca        1 CT1     -0.130000
     15 C18         3.1160    3.0010    1.1690 ca        1 CT1     -0.128500
     16 C19         3.2150    1.6530    0.8280 ca        1 CT1     -0.123000
     17 C20         2.5730   -2.5650    0.1510 c3        1 CT1     -0.079700
     18 C21         1.7620   -3.3940    1.1240 c3        1 CT1     -0.091100
     19 C22         2.6370   -3.2370   -1.2020 c3        1 CT1     -0.091100
     20 C6         -3.4800   -2.3870   -0.2850 c         1 CT1      0.538900
     21 C5         -2.8360   -1.0360    0.0120 c3        1 CT1     -0.023300
     22 H11        -3.2260    4.1420   -0.0560 hc        1 CT1      0.035033
     23 H12A       -4.9890    4.5280    0.1070 hc        1 CT1      0.035033
     24 H13        -4.1000    3.7470    1.4790 hc        1 CT1      0.035033
     25 H21        -5.5380    2.0980    0.2320 hc        1 CT1      0.037200
     26 H22        -4.6650    2.4930   -1.2990 hc        1 CT1      0.037200
     27 H31        -2.4990    1.7360   -0.2580 hc        1 CT1      0.053700
     28 H32        -3.3740    1.3330    1.2690 hc        1 CT1      0.053700
     29 H41        -4.8570   -0.2630   -0.0240 hc        1 CT1      0.049200
     30 H42        -3.9140    0.1010   -1.5250 hc        1 CT1      0.049200
     31 HN8        -1.4760   -1.0900   -1.5710 hn        1 CT1      0.323500
     32 H12         1.8790   -0.7210    1.0950 h1        1 CT1      0.089700
     33 H131        3.9610   -0.5510   -0.6510 hc        1 CT1      0.064700
     34 H132        2.6330   -0.3790   -1.8730 hc        1 CT1      0.064700
     35 H15         1.8590    1.7800   -2.3030 ha        1 CT1      0.132000
     36 H16         1.6900    4.1880   -1.6930 ha        1 CT1      0.130500
     37 H17         2.4930    4.9760    0.5350 ha        1 CT1      0.130000
     38 H18         3.4690    3.3440    2.1520 ha        1 CT1      0.130500
     39 H19         3.6450    0.9360    1.5430 ha        1 CT1      0.132000
     40 H20         3.6200   -2.4660    0.5560 hc        1 CT1      0.050700
     41 H211        2.1910   -4.4200    1.2110 hc        1 CT1      0.039533
     42 H212        1.7550   -2.9160    2.1340 hc        1 CT1      0.039533
     43 H213        0.7040   -3.4730    0.7730 hc        1 CT1      0.039533
     44 H221        3.3030   -2.6640   -1.8920 hc        1 CT1      0.039533
     45 H222        3.0370   -4.2750   -1.0990 hc        1 CT1      0.039533
     46 H223        1.6180   -3.2900   -1.6580 hc        1 CT1      0.039533
     47 H6         -4.3630   -2.6130    0.3520 h4        1 CT1      0.008200
     48 H5         -2.6960   -0.9730    1.1370 h1        1 CT1      0.110700
     49 O7         -3.0820   -3.1640   -1.1510 o         1 CT1     -0.518100
@<TRIPOS>BOND
     1    1    2 1   
     2    1   22 1   
     3    1   23 1   
     4    1   24 1   
     5    2    3 1   
     6    2   25 1   
     7    2   26 1   
     8    3    4 1   
     9    3   27 1   
    10    3   28 1   
    11    4   21 1   
    12    4   29 1   
    13    4   30 1   
    14    5    6 1   
    15    5   21 1   
    16    5   31 1   
    17    6    7 2   
    18    6    8 1   
    19    8    9 1   
    20    9   10 1   
    21    9   17 1   
    22    9   32 1   
    23   10   11 1   
    24   10   33 1   
    25   10   34 1   
    26   11   12 ar  
    27   11   16 ar  
    28   12   13 ar  
    29   12   35 1   
    30   13   14 ar  
    31   13   36 1   
    32   14   15 ar  
    33   14   37 1   
    34   15   16 ar  
    35   15   38 1   
    36   16   39 1   
    37   17   18 1   
    38   17   19 1   
    39   17   40 1   
    40   18   41 1   
    41   18   42 1   
    42   18   43 1   
    43   19   44 1   
    44   19   45 1   
    45   19   46 1   
    46   20   21 1   
    47   20   47 1   
    48   20   49 2   
    49   21   48 1   
@<TRIPOS>SUBSTRUCTURE
     1 CT1         1 TEMP              0 ****  ****    0 ROOT
