@<TRIPOS>MOLECULE
CT2
   51    52     1     0     0
SMALL
bcc


@<TRIPOS>ATOM
      1 C1         -0.2800   -1.3740    1.1580 c3        1 CT2     -0.098100
      2 C2          0.8960   -0.5500    0.6990 c3        1 CT2     -0.080400
      3 C3          1.8220   -0.2280    1.8560 c3        1 CT2     -0.094400
      4 C4          2.9470    0.6760    1.4040 c3        1 CT2     -0.104400
      5 C5          3.9330    0.9880    2.5360 c3        1 CT2     -0.011500
      6 N8          3.3320    1.8950    3.5720 n4        1 CT2     -0.648800
      7 C9          3.6420    1.4850    4.9870 c         1 CT2      0.640100
      8 O10         3.8170    0.3160    5.3000 o         1 CT2     -0.435000
      9 O11         3.7250    2.5770    5.7580 os        1 CT2     -0.403900
     10 C12         3.3870    2.4600    7.1990 c3        1 CT2      0.191800
     11 C13         2.0120    1.8160    7.3540 c3        1 CT2     -0.077100
     12 C14         0.9910    2.2720    6.3700 ca        1 CT2     -0.093300
     13 C15         0.2990    3.4750    6.5520 ca        1 CT2     -0.155000
     14 C16        -0.6720    3.8750    5.6340 ca        1 CT2     -0.125000
     15 C17        -0.9700    3.0730    4.5320 ca        1 CT2     -0.115000
     16 C18        -0.2980    1.8630    4.3540 ca        1 CT2     -0.125000
     17 C19         0.6780    1.4650    5.2670 ca        1 CT2     -0.155000
     18 C20         4.4810    1.6780    7.9340 c3        1 CT2     -0.094400
     19 C21         5.3960    2.7000    8.5910 c3        1 CT2     -0.083400
     20 C22         4.6250    4.0110    8.6600 c3        1 CT2     -0.083400
     21 C23         3.4780    3.9230    7.6630 c3        1 CT2     -0.094400
     22 C6          5.2080    1.5780    1.9240 c         1 CT2      0.561900
     23 O7          5.5670    2.7270    2.1580 o         1 CT2     -0.479100
     24 H11        -0.8750   -0.8210    1.9250 hc        1 CT2      0.046033
     25 H12         0.0620   -2.3390    1.6060 hc        1 CT2      0.046033
     26 H13        -0.9470   -1.6050    0.2930 hc        1 CT2      0.046033
     27 H21         0.5300    0.4030    0.2330 hc        1 CT2      0.052200
     28 H22         1.4640   -1.1090   -0.0910 hc        1 CT2      0.052200
     29 H31         2.2420   -1.1820    2.2730 hc        1 CT2      0.048200
     30 H32         1.2260    0.2570    2.6750 hc        1 CT2      0.048200
     31 H41         2.5360    1.6250    0.9670 hc        1 CT2      0.086200
     32 H42         3.5260    0.1610    0.5890 hc        1 CT2      0.086200
     33 H5          4.2120    0.0150    3.0540 hx        1 CT2      0.148700
     34 HN8         3.6800    2.8580    3.4260 hn        1 CT2      0.483300
     35 H131        2.1340    0.6990    7.2730 hc        1 CT2      0.089200
     36 H132        1.6540    2.0350    8.3980 hc        1 CT2      0.089200
     37 H15         0.5080    4.1040    7.4310 ha        1 CT2      0.139500
     38 H16        -1.2160    4.8210    5.7900 ha        1 CT2      0.149000
     39 H17        -1.7480    3.3840    3.8170 ha        1 CT2      0.154000
     40 H18        -0.5690    1.2050    3.5130 ha        1 CT2      0.149000
     41 H19         1.1550    0.4770    5.1610 ha        1 CT2      0.139500
     42 H201        5.0450    1.0170    7.2300 hc        1 CT2      0.074700
     43 H202        4.0080    1.0200    8.7090 hc        1 CT2      0.074700
     44 H211        6.3290    2.8300    7.9870 hc        1 CT2      0.064200
     45 H212        5.7020    2.3600    9.6110 hc        1 CT2      0.064200
     46 H221        4.2240    4.1730    9.6930 hc        1 CT2      0.064200
     47 H222        5.2910    4.8770    8.4210 hc        1 CT2      0.064200
     48 H231        2.5100    4.2330    8.1300 hc        1 CT2      0.074700
     49 H232        3.6620    4.5960    6.7860 hc        1 CT2      0.074700
     50 H6          5.7500    0.8700    1.2620 h4        1 CT2      0.072200
     51 H82         2.3010    1.8980    3.4860 hn        1 CT2      0.483300
@<TRIPOS>BOND
     1    1    2 1   
     2    1   24 1   
     3    1   25 1   
     4    1   26 1   
     5    2    3 1   
     6    2   27 1   
     7    2   28 1   
     8    3    4 1   
     9    3   29 1   
    10    3   30 1   
    11    4    5 1   
    12    4   31 1   
    13    4   32 1   
    14    5    6 1   
    15    5   22 1   
    16    5   33 1   
    17    6    7 1   
    18    6   34 1   
    19    6   51 1   
    20    7    8 2   
    21    7    9 1   
    22    9   10 1   
    23   10   11 1   
    24   10   18 1   
    25   10   21 1   
    26   11   12 1   
    27   11   35 1   
    28   11   36 1   
    29   12   13 ar  
    30   12   17 ar  
    31   13   14 ar  
    32   13   37 1   
    33   14   15 ar  
    34   14   38 1   
    35   15   16 ar  
    36   15   39 1   
    37   16   17 ar  
    38   16   40 1   
    39   17   41 1   
    40   18   19 1   
    41   18   42 1   
    42   18   43 1   
    43   19   20 1   
    44   19   44 1   
    45   19   45 1   
    46   20   21 1   
    47   20   46 1   
    48   20   47 1   
    49   21   48 1   
    50   21   49 1   
    51   22   23 2   
    52   22   50 1   
@<TRIPOS>SUBSTRUCTURE
     1 CT2         1 TEMP              0 ****  ****    0 ROOT
