@<TRIPOS>MOLECULE
CT2
   50    49     1     0     0
SMALL
bcc


@<TRIPOS>ATOM
      1 C1          4.5310   -0.1750   -5.1950 c3        1 CT2     -0.212000
      2 C2          3.0080   -0.1030   -4.9780 c3        1 CT2     -0.158000
      3 C3          2.5720   -1.2190   -3.9930 c3        1 CT2     -0.162000
      4 C4          1.1390   -0.9360   -3.4930 c3        1 CT2     -0.160000
      5 C5          0.9180   -1.6450   -2.1470 c3        1 CT2     -0.049000
      6 N8         -0.3100   -1.2020   -1.5730 n         1 CT2     -0.324000
      7 C9         -0.5800   -1.4370   -0.1700 c2        1 CT2      0.389000
      8 O10         0.1440   -2.1260    0.4660 o         1 CT2     -0.395000
      9 O11        -1.6800   -0.7610    0.4720 os        1 CT2     -0.282000
     10 C12        -1.5530   -0.6530    1.9290 c3        1 CT2      0.118000
     11 C13        -2.7880   -0.0120    2.5110 c3        1 CT2     -0.114000
     12 C14        -2.7080    1.5480    2.3260 c2        1 CT2     -0.074000
     13 C15        -3.2930    2.3970    3.2760 c2        1 CT2     -0.130000
     14 C16        -3.2890    3.8010    3.0730 c1        1 CT2     -0.132000
     15 C17        -2.6960    4.3440    1.9130 c1        1 CT2     -0.130000
     16 C18        -2.1080    3.4920    0.9570 c1        1 CT2     -0.130000
     17 C19        -2.1120    2.0970    1.1590 c1        1 CT2     -0.113000
     18 C20        -1.3540   -1.8820    2.4820 c3        1 CT2     -0.177000
     19 C21        -0.3520   -1.6500    3.7770 c3        1 CT2     -0.154000
     20 C22         0.5390   -0.6700    3.4060 c3        1 CT2     -0.154000
     21 C23        -0.2260    0.2010    2.3180 c3        1 CT2     -0.177000
     22 C6          2.0380   -1.3240   -1.2330 c2        1 CT2      0.161000
     23 O7          2.2190   -0.1610   -0.8640 o         1 CT2     -0.281000
     24 H11         4.9870    0.1200   -4.3900 hc        1 CT2      0.074667
     25 H12         4.7880   -1.0950   -5.3960 hc        1 CT2      0.074667
     26 H13         4.7820    0.4070   -5.9470 hc        1 CT2      0.074667
     27 H21         2.5440   -0.2300   -5.8480 hc        1 CT2      0.081500
     28 H22         2.7720    0.7720   -4.6080 hc        1 CT2      0.081500
     29 H31         3.2000   -1.2420   -3.2120 hc        1 CT2      0.082000
     30 H32         2.5920   -2.0810   -4.4510 hc        1 CT2      0.082000
     31 H41         0.4790   -1.2760   -4.1620 hc        1 CT2      0.099000
     32 H42         1.0180    0.0190   -3.3790 hc        1 CT2      0.099000
     33 H5          0.8810   -2.6390   -2.2930 h1        1 CT2      0.147000
     34 HN8        -0.9430   -0.8140   -2.0990 hn        1 CT2      0.236000
     35 H131       -3.5990   -0.3630    2.0350 hc        1 CT2      0.101500
     36 H132       -2.8530   -0.2360    3.5050 hc        1 CT2      0.101500
     37 H15        -3.6930    2.0320    4.0570 ha        1 CT2      0.129000
     38 H16        -3.7010    4.3960    3.7420 ha        1 CT2      0.130000
     39 H17        -2.6940    5.3160    1.7720 ha        1 CT2      0.131500
     40 H18        -1.6860    3.8800    0.1310 ha        1 CT2      0.131500
     41 H19        -1.7000    1.5010    0.4880 ha        1 CT2      0.141000
     42 H201       -0.9330   -2.4800    1.8330 hc        1 CT2      0.098750
     43 H202       -2.2190   -2.2630    2.7860 hc        1 CT2      0.098750
     44 H211       -0.8670   -1.3600    4.5490 hc        1 CT2      0.085500
     45 H212        0.1250   -2.4710    3.9810 hc        1 CT2      0.085500
     46 H221        0.7820   -0.1030    4.1990 hc        1 CT2      0.085500
     47 H222        1.3600   -1.0800    3.0070 hc        1 CT2      0.085500
     48 H231        0.3390    0.3250    1.5310 hc        1 CT2      0.098750
     49 H232       -0.4800    1.0750    2.6980 hc        1 CT2      0.098750
     50 H6          2.6620   -2.0360   -0.9490 h4        1 CT2      0.103000
@<TRIPOS>BOND
     1    1    2 1   
     2    1   24 1   
     3    1   25 1   
     4    1   26 1   
     5    2    3 1   
     6    2   27 1   
     7    2   28 1   
     8    3    4 1   
     9    3   29 1   
    10    3   30 1   
    11    4    5 1   
    12    4   31 1   
    13    4   32 1   
    14    5    6 1   
    15    5   22 1   
    16    5   33 1   
    17    6    7 1   
    18    6   34 1   
    19    7    8 1   
    20    7    9 1   
    21    9   10 1   
    22   10   11 1   
    23   10   18 1   
    24   10   21 1   
    25   11   12 1   
    26   11   35 1   
    27   11   36 1   
    28   12   13 1   
    29   12   17 1   
    30   13   14 1   
    31   13   37 1   
    32   14   38 1   
    33   15   16 1   
    34   15   39 1   
    35   16   40 1   
    36   17   41 1   
    37   18   19 1   
    38   18   42 1   
    39   18   43 1   
    40   19   20 1   
    41   19   44 1   
    42   19   45 1   
    43   20   21 1   
    44   20   46 1   
    45   20   47 1   
    46   21   48 1   
    47   21   49 1   
    48   22   23 1   
    49   22   50 1   
@<TRIPOS>SUBSTRUCTURE
     1 CT2         1 TEMP              0 ****  ****    0 ROOT
