@<TRIPOS>MOLECULE
CT2
   51    52     1     0     0
SMALL
bcc


@<TRIPOS>ATOM
      1 C1         -0.2930   -1.3530    1.1490 c3        1 CT2     -0.098100
      2 C2          0.8970   -0.5470    0.6960 c3        1 CT2     -0.080400
      3 C3          1.8180   -0.2340    1.8590 c3        1 CT2     -0.094400
      4 C4          2.9600    0.6530    1.4140 c3        1 CT2     -0.104400
      5 C5          3.9410    0.9550    2.5520 c3        1 CT2     -0.011500
      6 N8          3.3440    1.8760    3.5790 ny        1 CT2     -0.648800
      7 C9          3.6360    1.4680    4.9990 c         1 CT2      0.640100
      8 O10         3.7920    0.2980    5.3180 o         1 CT2     -0.435000
      9 O11         3.7290    2.5630    5.7640 os        1 CT2     -0.403900
     10 C12         3.3770    2.4570    7.2030 c3        1 CT2      0.191800
     11 C13         1.9920    1.8340    7.3500 c3        1 CT2     -0.077100
     12 C14         0.9860    2.3000    6.3560 ca        1 CT2     -0.093300
     13 C15         0.3110    3.5140    6.5260 ca        1 CT2     -0.155000
     14 C16        -0.6480    3.9240    5.5990 ca        1 CT2     -0.125000
     15 C17        -0.9480    3.1210    4.4980 ca        1 CT2     -0.115000
     16 C18        -0.2920    1.9000    4.3320 ca        1 CT2     -0.125000
     17 C19         0.6700    1.4920    5.2540 ca        1 CT2     -0.155000
     18 C20         4.4550    1.6640    7.9510 c3        1 CT2     -0.094400
     19 C21         5.3790    2.6760    8.6100 c3        1 CT2     -0.083400
     20 C22         4.6270    3.9980    8.6660 c3        1 CT2     -0.083400
     21 C23         3.4860    3.9210    7.6620 c3        1 CT2     -0.094400
     22 C6          5.2290    1.5240    1.9480 c         1 CT2      0.561900
     23 O7          5.6030    2.6690    2.1800 o         1 CT2     -0.479100
     24 H11        -0.8880   -0.7890    1.9090 hc        1 CT2      0.046033
     25 H12         0.0310   -2.3200    1.6040 hc        1 CT2      0.046033
     26 H13        -0.9570   -1.5780    0.2790 hc        1 CT2      0.046033
     27 H21         1.4640   -1.1180   -0.0860 hc        1 CT2      0.052200
     28 H22         0.5480    0.4080    0.2230 hc        1 CT2      0.052200
     29 H31         2.2210   -1.1920    2.2840 hc        1 CT2      0.048200
     30 H32         1.2220    0.2640    2.6720 hc        1 CT2      0.048200
     31 H41         2.5660    1.6050    0.9680 hc        1 CT2      0.086200
     32 H42         3.5380    0.1250    0.6050 hc        1 CT2      0.086200
     33 H5          4.2010   -0.0190    3.0760 hx        1 CT2      0.148700
     34 HN8         2.3130    1.8930    3.4850 hn        1 CT2      0.483300
     35 H131        1.6300    2.0640    8.3900 hc        1 CT2      0.089200
     36 H132        2.0990    0.7160    7.2760 hc        1 CT2      0.089200
     37 H15         0.5210    4.1440    7.4050 ha        1 CT2      0.139500
     38 H16        -1.1790    4.8780    5.7450 ha        1 CT2      0.149000
     39 H17        -1.7160    3.4390    3.7760 ha        1 CT2      0.154000
     40 H18        -0.5660    1.2420    3.4920 ha        1 CT2      0.149000
     41 H19         1.1340    0.4970    5.1570 ha        1 CT2      0.139500
     42 H201        5.0150    0.9910    7.2550 hc        1 CT2      0.074700
     43 H202        3.9660    1.0170    8.7260 hc        1 CT2      0.074700
     44 H211        6.3190    2.7890    8.0120 hc        1 CT2      0.064200
     45 H212        5.6730    2.3370    9.6340 hc        1 CT2      0.064200
     46 H221        5.3070    4.8540    8.4280 hc        1 CT2      0.064200
     47 H222        4.2210    4.1710    9.6950 hc        1 CT2      0.064200
     48 H231        2.5190    4.2480    8.1190 hc        1 CT2      0.074700
     49 H232        3.6870    4.5880    6.7820 hc        1 CT2      0.074700
     50 H6          5.7660    0.8060    1.2940 h4        1 CT2      0.072200
     51 H82         3.7060    2.8340    3.4320 hn        1 CT2      0.483300
@<TRIPOS>BOND
     1    1    2 1   
     2    1   24 1   
     3    1   25 1   
     4    1   26 1   
     5    2    3 1   
     6    2   27 1   
     7    2   28 1   
     8    3    4 1   
     9    3   29 1   
    10    3   30 1   
    11    4    5 1   
    12    4   31 1   
    13    4   32 1   
    14    5    6 1   
    15    5   22 1   
    16    5   33 1   
    17    6    7 1   
    18    6   34 1   
    19    6   51 1   
    20    7    8 2   
    21    7    9 1   
    22    9   10 1   
    23   10   11 1   
    24   10   18 1   
    25   10   21 1   
    26   11   12 1   
    27   11   35 1   
    28   11   36 1   
    29   12   13 ar  
    30   12   17 ar  
    31   13   14 ar  
    32   13   37 1   
    33   14   15 ar  
    34   14   38 1   
    35   15   16 ar  
    36   15   39 1   
    37   16   17 ar  
    38   16   40 1   
    39   17   41 1   
    40   18   19 1   
    41   18   42 1   
    42   18   43 1   
    43   19   20 1   
    44   19   44 1   
    45   19   45 1   
    46   20   21 1   
    47   20   46 1   
    48   20   47 1   
    49   21   48 1   
    50   21   49 1   
    51   22   23 2   
    52   22   50 1   
@<TRIPOS>SUBSTRUCTURE
     1 CT2         1 TEMP              0 ****  ****    0 ROOT
