@<TRIPOS>MOLECULE
CT2
   51    52     1     0     0
SMALL
bcc


@<TRIPOS>ATOM
      1 C1         -0.3030   -1.3250    1.1330 c3        1 CT2     -0.098100
      2 C2          0.8950   -0.5260    0.6860 c3        1 CT2     -0.080400
      3 C3          1.8130   -0.2220    1.8530 c3        1 CT2     -0.094400
      4 C4          2.9630    0.6580    1.4130 c3        1 CT2     -0.104400
      5 C5          3.9420    0.9500    2.5560 c3        1 CT2     -0.011500
      6 N8          3.3490    1.8720    3.5830 n4        1 CT2     -0.648800
      7 C9          3.6330    1.4570    5.0030 c         1 CT2      0.640100
      8 O10         3.7780    0.2850    5.3190 o         1 CT2     -0.435000
      9 O11         3.7310    2.5490    5.7730 os        1 CT2     -0.403900
     10 C12         3.3740    2.4420    7.2100 c3        1 CT2      0.191800
     11 C13         1.9830    1.8290    7.3490 c3        1 CT2     -0.077100
     12 C14         0.9840    2.3060    6.3530 ca        1 CT2     -0.093300
     13 C15         0.3180    3.5240    6.5240 ca        1 CT2     -0.155000
     14 C16        -0.6340    3.9440    5.5940 ca        1 CT2     -0.125000
     15 C17        -0.9360    3.1460    4.4900 ca        1 CT2     -0.115000
     16 C18        -0.2890    1.9210    4.3230 ca        1 CT2     -0.125000
     17 C19         0.6660    1.5030    5.2480 ca        1 CT2     -0.155000
     18 C20         4.4420    1.6370    7.9590 c3        1 CT2     -0.094400
     19 C21         5.3720    2.6410    8.6250 c3        1 CT2     -0.083400
     20 C22         4.6300    3.9680    8.6820 c3        1 CT2     -0.083400
     21 C23         3.4920    3.9030    7.6730 c3        1 CT2     -0.094400
     22 C6          5.2370    1.5120    1.9580 c         1 CT2      0.561900
     23 O7          5.6170    2.6530    2.1940 o         1 CT2     -0.479100
     24 H11         0.0130   -2.2950    1.5860 hc        1 CT2      0.046033
     25 H12        -0.8960   -0.7580    1.8910 hc        1 CT2      0.046033
     26 H13        -0.9650   -1.5430    0.2600 hc        1 CT2      0.046033
     27 H21         1.4610   -1.0990   -0.0960 hc        1 CT2      0.052200
     28 H22         0.5540    0.4330    0.2140 hc        1 CT2      0.052200
     29 H31         2.2080   -1.1840    2.2770 hc        1 CT2      0.048200
     30 H32         1.2190    0.2780    2.6650 hc        1 CT2      0.048200
     31 H41         2.5780    1.6140    0.9700 hc        1 CT2      0.086200
     32 H42         3.5410    0.1280    0.6060 hc        1 CT2      0.086200
     33 H5          4.1940   -0.0280    3.0780 hx        1 CT2      0.148700
     34 HN8         3.7190    2.8270    3.4410 hn        1 CT2      0.483300
     35 H131        2.0820    0.7100    7.2730 hc        1 CT2      0.089200
     36 H132        1.6180    2.0590    8.3890 hc        1 CT2      0.089200
     37 H15         0.5300    4.1500    7.4050 ha        1 CT2      0.139500
     38 H16        -1.1580    4.9020    5.7420 ha        1 CT2      0.149000
     39 H17        -1.6980    3.4730    3.7660 ha        1 CT2      0.154000
     40 H18        -0.5650    1.2680    3.4800 ha        1 CT2      0.149000
     41 H19         1.1230    0.5040    5.1490 ha        1 CT2      0.139500
     42 H201        3.9450    0.9920    8.7300 hc        1 CT2      0.074700
     43 H202        4.9990    0.9620    7.2630 hc        1 CT2      0.074700
     44 H211        5.6590    2.2960    9.6490 hc        1 CT2      0.064200
     45 H212        6.3150    2.7480    8.0310 hc        1 CT2      0.064200
     46 H221        5.3170    4.8190    8.4490 hc        1 CT2      0.064200
     47 H222        4.2210    4.1410    9.7100 hc        1 CT2      0.064200
     48 H231        3.7010    4.5710    6.7960 hc        1 CT2      0.074700
     49 H232        2.5260    4.2360    8.1280 hc        1 CT2      0.074700
     50 H6          5.7710    0.7920    1.3040 h4        1 CT2      0.072200
     51 H82         2.3190    1.8970    3.4860 hn        1 CT2      0.483300
@<TRIPOS>BOND
     1    1    2 1   
     2    1   24 1   
     3    1   25 1   
     4    1   26 1   
     5    2    3 1   
     6    2   27 1   
     7    2   28 1   
     8    3    4 1   
     9    3   29 1   
    10    3   30 1   
    11    4    5 1   
    12    4   31 1   
    13    4   32 1   
    14    5    6 1   
    15    5   22 1   
    16    5   33 1   
    17    6    7 1   
    18    6   34 1   
    19    6   51 1   
    20    7    8 2   
    21    7    9 1   
    22    9   10 1   
    23   10   11 1   
    24   10   18 1   
    25   10   21 1   
    26   11   12 1   
    27   11   35 1   
    28   11   36 1   
    29   12   13 ar  
    30   12   17 ar  
    31   13   14 ar  
    32   13   37 1   
    33   14   15 ar  
    34   14   38 1   
    35   15   16 ar  
    36   15   39 1   
    37   16   17 ar  
    38   16   40 1   
    39   17   41 1   
    40   18   19 1   
    41   18   42 1   
    42   18   43 1   
    43   19   20 1   
    44   19   44 1   
    45   19   45 1   
    46   20   21 1   
    47   20   46 1   
    48   20   47 1   
    49   21   48 1   
    50   21   49 1   
    51   22   23 2   
    52   22   50 1   
@<TRIPOS>SUBSTRUCTURE
     1 CT2         1 TEMP              0 ****  ****    0 ROOT
