@<TRIPOS>MOLECULE
CT2
   50    51     1     0     0
SMALL
bcc


@<TRIPOS>ATOM
      1 C1          4.4420   -3.4360    1.0080 c3        1 CT2     -0.093100
      2 C2          4.7370   -2.2390    0.1410 c3        1 CT2     -0.080400
      3 C3          3.6890   -1.1590    0.3150 c3        1 CT2     -0.079400
      4 C4          3.9940    0.0360   -0.5600 c3        1 CT2     -0.074400
      5 C5          2.9900    1.1820   -0.3330 c3        1 CT2     -0.023300
      6 N8          1.6620    0.8460   -0.7990 n         1 CT2     -0.514900
      7 C9          0.5710    1.1410    0.0090 c         1 CT2      0.733100
      8 O10         0.5850    1.3780    1.2290 o         1 CT2     -0.594000
      9 O11        -0.6120    1.0890   -0.6890 os        1 CT2     -0.433900
     10 C12        -1.8560    1.1510    0.0480 c3        1 CT2      0.189800
     11 C13        -2.0220   -0.0680    0.9570 c3        1 CT2     -0.062100
     12 C14        -2.1200   -1.3720    0.2480 ca        1 CT2     -0.075300
     13 C15        -3.3570   -2.0170    0.1200 ca        1 CT2     -0.123500
     14 C16        -3.4440   -3.2560   -0.5130 ca        1 CT2     -0.130500
     15 C17        -2.2970   -3.8640   -1.0240 ca        1 CT2     -0.131000
     16 C18        -1.0620   -3.2280   -0.9000 ca        1 CT2     -0.130500
     17 C19        -0.9730   -1.9900   -0.2660 ca        1 CT2     -0.123500
     18 C20        -1.9540    2.4560    0.8580 c3        1 CT2     -0.088900
     19 C21        -3.3000    3.0770    0.5280 c3        1 CT2     -0.080400
     20 C22        -3.7340    2.5070   -0.8140 c3        1 CT2     -0.080400
     21 C23        -2.9360    1.2330   -1.0500 c3        1 CT2     -0.088900
     22 C6          3.5840    2.4300   -0.9780 c         1 CT2      0.539900
     23 O7          3.1080    2.9890   -1.9640 o         1 CT2     -0.516100
     24 H11         5.2250   -4.2190    0.8670 hc        1 CT2      0.035367
     25 H12         4.4230   -3.1460    2.0870 hc        1 CT2      0.035367
     26 H13         3.4500   -3.8770    0.7480 hc        1 CT2      0.035367
     27 H21         5.7480   -1.8260    0.4000 hc        1 CT2      0.037700
     28 H22         4.7750   -2.5540   -0.9350 hc        1 CT2      0.037700
     29 H31         2.6790   -1.5740    0.0570 hc        1 CT2      0.051700
     30 H32         3.6510   -0.8420    1.3900 hc        1 CT2      0.051700
     31 H41         5.0190    0.4250   -0.3190 hc        1 CT2      0.050200
     32 H42         3.9920   -0.2700   -1.6380 hc        1 CT2      0.050200
     33 H5          2.9290    1.3810    0.7840 h1        1 CT2      0.109700
     34 HN8         1.5160    0.8990   -1.7840 hn        1 CT2      0.326500
     35 H131       -1.1500   -0.0980    1.6680 hc        1 CT2      0.071700
     36 H132       -2.9510    0.1000    1.5670 hc        1 CT2      0.071700
     37 H15        -4.2650   -1.5440    0.5230 ha        1 CT2      0.133000
     38 H16        -4.4200   -3.7540   -0.6080 ha        1 CT2      0.130000
     39 H17        -2.3670   -4.8410   -1.5220 ha        1 CT2      0.130000
     40 H18        -0.1560   -3.7040   -1.3020 ha        1 CT2      0.130000
     41 H19         0.0010   -1.4840   -0.1730 ha        1 CT2      0.133000
     42 H201       -1.8400    2.2570    1.9520 hc        1 CT2      0.064700
     43 H202       -1.1200    3.1410    0.5570 hc        1 CT2      0.064700
     44 H211       -4.0500    2.8180    1.3190 hc        1 CT2      0.044200
     45 H212       -3.2270    4.1920    0.4890 hc        1 CT2      0.044200
     46 H221       -4.8310    2.2940   -0.8220 hc        1 CT2      0.044200
     47 H222       -3.5300    3.2450   -1.6310 hc        1 CT2      0.044200
     48 H231       -2.4540    1.2420   -2.0600 hc        1 CT2      0.064700
     49 H232       -3.5940    0.3290   -0.9960 hc        1 CT2      0.064700
     50 H6          4.5090    2.7960   -0.4790 h4        1 CT2      0.008200
@<TRIPOS>BOND
     1    1    2 1   
     2    1   24 1   
     3    1   25 1   
     4    1   26 1   
     5    2    3 1   
     6    2   27 1   
     7    2   28 1   
     8    3    4 1   
     9    3   29 1   
    10    3   30 1   
    11    4    5 1   
    12    4   31 1   
    13    4   32 1   
    14    5    6 1   
    15    5   22 1   
    16    5   33 1   
    17    6    7 1   
    18    6   34 1   
    19    7    8 2   
    20    7    9 1   
    21    9   10 1   
    22   10   11 1   
    23   10   18 1   
    24   10   21 1   
    25   11   12 1   
    26   11   35 1   
    27   11   36 1   
    28   12   13 ar  
    29   12   17 ar  
    30   13   14 ar  
    31   13   37 1   
    32   14   15 ar  
    33   14   38 1   
    34   15   16 ar  
    35   15   39 1   
    36   16   17 ar  
    37   16   40 1   
    38   17   41 1   
    39   18   19 1   
    40   18   42 1   
    41   18   43 1   
    42   19   20 1   
    43   19   44 1   
    44   19   45 1   
    45   20   21 1   
    46   20   46 1   
    47   20   47 1   
    48   21   48 1   
    49   21   49 1   
    50   22   23 2   
    51   22   50 1   
@<TRIPOS>SUBSTRUCTURE
     1 CT2         1 TEMP              0 ****  ****    0 ROOT
