@<TRIPOS>MOLECULE
CT4
   23    23     1     0     0
SMALL
bcc


@<TRIPOS>ATOM
      1 N          -0.0090    1.0260    0.7620 nh        1 CT4     -0.779200
      2 C           1.1560    0.2330    0.4490 c2        1 CT4      0.861100
      3 N1          2.0560   -0.0070    1.4670 nh        1 CT4     -0.830200
      4 N2          1.2520   -0.1830   -0.8430 n2        1 CT4     -0.819100
      5 C1         -1.0120    0.3860    1.5960 c3        1 CT4      0.257100
      6 C2         -2.2350   -0.0680    0.8900 cc        1 CT4     -0.269700
      7 C3          1.9850    0.6120    2.7570 c3        1 CT4      0.197100
      8 S          -3.7860    0.1450    1.4940 ss        1 CT4     -0.038300
      9 C4         -4.4510   -0.6630    0.1310 cc        1 CT4      0.455400
     10 N4         -3.5470   -1.0820   -0.7660 nd        1 CT4     -0.611000
     11 C5         -2.2840   -0.7410   -0.3310 cd        1 CT4      0.361200
     12 CL         -6.1070   -0.8920   -0.0270 cl        1 CT4     -0.082000
     13 N5          2.3600   -0.7870   -1.3910 no        1 CT4      0.481400
     14 O1          3.3740   -1.0060   -0.7530 o         1 CT4     -0.235000
     15 O2          2.2750   -1.0930   -2.5500 o         1 CT4     -0.235000
     16 HN         -0.4170    1.4190   -0.0710 hn        1 CT4      0.426800
     17 HN1         2.9140   -0.4700    1.2330 hn        1 CT4      0.483800
     18 H1         -0.5740   -0.4980    2.1460 h1        1 CT4      0.072200
     19 H1A        -1.2960    1.1620    2.3690 h1        1 CT4      0.072200
     20 H3          1.0880    0.2440    3.3240 h1        1 CT4      0.052700
     21 H3A         1.9190    1.7300    2.6720 h1        1 CT4      0.052700
     22 H3B         2.9110    0.3420    3.3320 h1        1 CT4      0.052700
     23 H5         -1.4250   -1.0120   -0.9610 h4        1 CT4      0.072100
@<TRIPOS>BOND
     1    1    2 1   
     2    1    5 1   
     3    1   16 1   
     4    2    3 1   
     5    2    4 2   
     6    3    7 1   
     7    3   17 1   
     8    4   13 1   
     9    5    6 1   
    10    5   18 1   
    11    5   19 1   
    12    6    8 1   
    13    6   11 2   
    14    7   20 1   
    15    7   21 1   
    16    7   22 1   
    17    8    9 1   
    18    9   10 2   
    19    9   12 1   
    20   10   11 1   
    21   11   23 1   
    22   13   14 1   
    23   13   15 1   
@<TRIPOS>SUBSTRUCTURE
     1 CT4         1 TEMP              0 ****  ****    0 ROOT
