@<TRIPOS>MOLECULE
CT4
   23    20     1     0     0
SMALL
bcc


@<TRIPOS>ATOM
      1 N           0.1410    0.3450   -0.1850 n3        1 CT4     -0.345000
      2 C           1.5240    0.4420   -0.0520 c2        1 CT4      0.291000
      3 N1          2.1180    0.4350    1.2380 n3        1 CT4     -0.292000
      4 N2          2.2590    0.5380   -1.0930 n1        1 CT4     -0.345000
      5 C1         -0.5510   -0.7540    0.3960 c3        1 CT4      0.048000
      6 C2         -2.0630   -0.6430    0.0810 c2        1 CT4     -0.460000
      7 C3          3.3070    1.2410    1.4950 c3        1 CT4     -0.088000
      8 S          -2.6390   -1.3350   -1.1540 ss        1 CT4      0.586000
      9 C4         -4.1770   -1.4640   -0.9440 c1        1 CT4     -0.293000
     10 N4         -4.4950   -0.8960    0.3160 n2        1 CT4     -0.092000
     11 C5         -3.1560   -0.3680    0.9810 c1        1 CT4     -0.095000
     12 CL         -5.3360   -2.1800   -2.0890 cl        1 CT4      0.089000
     13 N5          1.6790    0.5450   -2.3530 n2        1 CT4      0.496400
     14 O1          1.3380    1.7350   -2.9420 o         1 CT4     -0.337700
     15 O2          1.5400   -0.5130   -2.9750 o         1 CT4     -0.337700
     16 HN         -0.3360    1.0510   -0.5540 hn        1 CT4      0.278000
     17 HN1         1.8090   -0.1010    1.8600 hn        1 CT4      0.218000
     18 H1         -0.1840   -1.6360    0.0070 h1        1 CT4      0.096500
     19 H1A        -0.4130   -0.7420    1.4090 h1        1 CT4      0.096500
     20 H3          3.4740    1.2850    2.4710 h1        1 CT4      0.098000
     21 H3A         3.1780    2.0980    1.1660 h1        1 CT4      0.098000
     22 H3B         4.0680    0.8410    1.0580 h1        1 CT4      0.098000
     23 H5         -3.0830    0.0750    1.8620 DU        1 CT4      0.191000
@<TRIPOS>BOND
     1    1    2 1   
     2    1    5 1   
     3    1   16 1   
     4    2    3 1   
     5    2    4 1   
     6    3    7 1   
     7    3   17 1   
     8    5    6 1   
     9    5   18 1   
    10    5   19 1   
    11    6    8 1   
    12    6   11 1   
    13    7   20 1   
    14    7   21 1   
    15    7   22 1   
    16    8    9 1   
    17    9   10 1   
    18   10   11 1   
    19   13   14 2   
    20   13   15 2   
@<TRIPOS>SUBSTRUCTURE
     1 CT4         1 TEMP              0 ****  ****    0 ROOT
