@<TRIPOS>MOLECULE
CT4
   23    23     1     0     0
SMALL
bcc


@<TRIPOS>ATOM
      1 N          -0.9170    0.5710    0.8750 nh        1 CT4     -0.779200
      2 C          -2.1210    0.4220    0.0920 c2        1 CT4      0.861100
      3 N1         -2.8750    1.5550   -0.1370 nh        1 CT4     -0.830200
      4 N2         -2.3970   -0.8430   -0.3240 n2        1 CT4     -0.819100
      5 C1          0.1860    1.2610    0.2270 c3        1 CT4      0.257100
      6 C2          1.2960    0.3960   -0.2390 cc        1 CT4     -0.269700
      7 C3         -2.6230    2.8200    0.4830 c3        1 CT4      0.197100
      8 S           2.9170    0.7820   -0.0400 ss        1 CT4     -0.038300
      9 C4          3.3820   -0.6570   -0.8570 cc        1 CT4      0.455400
     10 N4          2.3600   -1.4210   -1.2680 nd        1 CT4     -0.611000
     11 C5          1.1710   -0.8180   -0.9140 cd        1 CT4      0.361200
     12 CL          4.9980   -1.0400   -1.1020 cl        1 CT4     -0.082000
     13 N5         -3.5740   -1.2330   -0.9200 no        1 CT4      0.481400
     14 O1         -4.4930   -0.4620   -1.1280 o         1 CT4     -0.235000
     15 O2         -3.6510   -2.3910   -1.2280 o         1 CT4     -0.235000
     16 HN         -0.6230   -0.3120    1.2630 hn        1 CT4      0.426800
     17 HN1        -3.7610    1.4420   -0.5930 hn        1 CT4      0.483800
     18 H1         -0.1810    1.8690   -0.6520 h1        1 CT4      0.072200
     19 H1A         0.5800    1.9860    1.0020 h1        1 CT4      0.072200
     20 H3         -3.4630    3.5180    0.2230 h1        1 CT4      0.052700
     21 H3A        -2.5590    2.7240    1.6010 h1        1 CT4      0.052700
     22 H3B        -1.6590    3.2610    0.1080 h1        1 CT4      0.052700
     23 H5          0.2310   -1.3240   -1.1790 h4        1 CT4      0.072100
@<TRIPOS>BOND
     1    1    2 1   
     2    1    5 1   
     3    1   16 1   
     4    2    3 1   
     5    2    4 2   
     6    3    7 1   
     7    3   17 1   
     8    4   13 1   
     9    5    6 1   
    10    5   18 1   
    11    5   19 1   
    12    6    8 1   
    13    6   11 2   
    14    7   20 1   
    15    7   21 1   
    16    7   22 1   
    17    8    9 1   
    18    9   10 2   
    19    9   12 1   
    20   10   11 1   
    21   11   23 1   
    22   13   14 1   
    23   13   15 1   
@<TRIPOS>SUBSTRUCTURE
     1 CT4         1 TEMP              0 ****  ****    0 ROOT
