@<TRIPOS>MOLECULE
CT5
   46    41     1     0     0
SMALL
bcc


@<TRIPOS>ATOM
      1 C15         0.8990   -1.6800    0.7780 c1        1 CT5     -0.116000
      2 C12         2.2900   -1.7410    0.7820 c1        1 CT5      0.007000
      3 O17         3.0580   -2.6360   -0.1150 os        1 CT5     -0.200000
      4 O18         4.5240   -1.0590    1.7550 os        1 CT5     -0.200000
      5 C16         3.0630   -0.8520    1.6830 c2        1 CT5      0.006000
      6 C22         2.3960    0.0380    2.5190 c2        1 CT5     -0.123000
      7 C20         0.9830    0.0930    2.5090 c1        1 CT5     -0.125000
      8 C8          0.2280   -0.7740    1.6310 c1        1 CT5      0.002000
      9 C4         -1.2040   -0.7430    1.6550 c1        1 CT5     -0.141000
     10 C1         -2.0220   -1.5010    2.4770 c1        1 CT5     -0.101000
     11 C7         -1.5590   -2.6420    3.4190 c2        1 CT5     -0.149000
     12 N5         -3.3110   -1.1620    2.2140 n2        1 CT5     -0.082000
     13 C2         -2.0100    0.0620    0.8870 c2        1 CT5      0.003000
     14 N3         -3.3100   -0.1940    1.2290 n2        1 CT5     -0.139000
     15 C6         -1.5760    0.9390   -0.1410 c1        1 CT5     -0.081000
     16 C10        -1.7520    0.5790   -1.4890 c1        1 CT5     -0.045000
     17 C14        -1.4430    1.4820   -2.4940 c1        1 CT5     -0.120000
     18 C26        -1.5670    1.0410   -4.0340 c2        1 CT5     -0.115000
     19 C27        -2.8200    1.7060   -4.6660 c3        1 CT5     -0.207000
     20 C13        -0.9530    2.7590   -2.1660 c2        1 CT5      0.127000
     21 C17         4.3640   -2.4730   -0.1470 c3        1 CT5     -0.059000
     22 O25        -0.2470    3.6240   -3.0890 oh        1 CT5     -0.243000
     23 C11        -0.7780    3.1170   -0.8320 c1        1 CT5     -0.301000
     24 C18         5.0150   -2.1030    1.1190 c3        1 CT5     -0.060000
     25 C9         -1.0890    2.2090    0.1830 c1        1 CT5      0.122000
     26 O24        -0.9720    2.6050    1.5480 oh        1 CT5     -0.265000
     27 H15         0.3810   -2.2700    0.1810 ha        1 CT5      0.156000
     28 H22         2.9170    0.6410    3.1300 ha        1 CT5      0.150000
     29 H20         0.5230    0.7090    3.0880 ha        1 CT5      0.144000
     30 H7C1       -0.9090   -3.1990    2.9580 ha        1 CT5      0.091000
     31 H7C2       -1.1520   -2.2600    4.2190 ha        1 CT5      0.091000
     32 H7C3       -2.3410   -3.1940    3.6780 ha        1 CT5      0.091000
     33 H3         -4.0510    0.2070    0.8690 DU        1 CT5      0.282000
     34 H10        -2.0740   -0.3050   -1.7150 ha        1 CT5      0.160000
     35 H261       -1.6550    0.0470   -4.0900 ha        1 CT5      0.096000
     36 H262       -0.7680    1.3230   -4.5190 ha        1 CT5      0.096000
     37 H271       -3.2910    1.0480   -5.2320 hc        1 CT5      0.075333
     38 H272       -2.5440    2.4720   -5.2150 hc        1 CT5      0.075333
     39 H273       -3.4130    2.0100   -3.9630 hc        1 CT5      0.075333
     40 H171        4.7640   -3.3080   -0.4580 h1        1 CT5      0.108000
     41 H172        4.5660   -1.7710   -0.8090 h1        1 CT5      0.108000
     42 H25        -0.5540    4.4560   -3.0080 ho        1 CT5      0.220000
     43 H11        -0.4290    4.0290   -0.5990 ha        1 CT5      0.137000
     44 H181        5.9610   -1.9240    0.9310 h1        1 CT5      0.108500
     45 H182        4.9640   -2.8840    1.7290 h1        1 CT5      0.108500
     46 H24        -1.1010    3.4810    1.6130 ho        1 CT5      0.228000
@<TRIPOS>BOND
     1    1    8 1   
     2    1   27 1   
     3    2    3 1   
     4    2    5 1   
     5    3   21 1   
     6    4    5 1   
     7    4   24 1   
     8    5    6 1   
     9    6    7 1   
    10    6   28 1   
    11    7   29 1   
    12    9   10 1   
    13    9   13 1   
    14   10   12 1   
    15   11   30 1   
    16   11   31 1   
    17   11   32 1   
    18   12   14 1   
    19   13   14 1   
    20   13   15 1   
    21   15   25 1   
    22   16   17 1   
    23   16   34 1   
    24   17   20 1   
    25   18   19 1   
    26   18   35 1   
    27   18   36 1   
    28   19   37 1   
    29   19   38 1   
    30   19   39 1   
    31   20   22 1   
    32   20   23 1   
    33   21   24 1   
    34   21   40 1   
    35   21   41 1   
    36   22   42 1   
    37   23   43 1   
    38   24   44 1   
    39   24   45 1   
    40   25   26 1   
    41   26   46 1   
@<TRIPOS>SUBSTRUCTURE
     1 CT5         1 TEMP              0 ****  ****    0 ROOT
