@<TRIPOS>MOLECULE
CT5
   46    49     1     0     0
SMALL
bcc


@<TRIPOS>ATOM
      1 C15        -0.1030    0.5430   -0.6460 ca        1 CT5     -0.107000
      2 C12         1.2350    0.3540   -1.0090 ca        1 CT5      0.050100
      3 O17         2.1960    1.0390   -0.2810 os        1 CT5     -0.315900
      4 O18         2.8850   -0.7050   -2.4720 os        1 CT5     -0.316900
      5 C16         1.5710   -0.4720   -2.0960 ca        1 CT5      0.053100
      6 C22         0.5660   -1.1270   -2.8180 ca        1 CT5     -0.126000
      7 C20        -0.7630   -0.9420   -2.4500 ca        1 CT5     -0.126000
      8 C8         -1.1080   -0.1060   -1.3750 ca        1 CT5     -0.001000
      9 C4         -2.4940    0.0560   -1.0020 cc        1 CT5     -0.211300
     10 C1         -3.3720   -0.9920   -0.5080 cc        1 CT5      0.321600
     11 C7         -3.0020   -2.4060   -0.3110 c3        1 CT5     -0.123400
     12 N5         -4.6040   -0.4670   -0.2330 nd        1 CT5     -0.515800
     13 C2         -3.2910    1.2260   -1.0050 cd        1 CT5     -0.019300
     14 N3         -4.5560    0.8220   -0.5500 na        1 CT5      0.004400
     15 C6         -2.9820    2.5750   -1.4360 ca        1 CT5     -0.079000
     16 C10        -2.0380    2.7660   -2.4560 ca        1 CT5     -0.043000
     17 C14        -1.6800    4.0320   -2.9180 ca        1 CT5     -0.126300
     18 C26        -0.6650    4.1790   -3.9950 c3        1 CT5     -0.029100
     19 C27        -1.1830    3.7110   -5.3340 c3        1 CT5     -0.089100
     20 C13        -2.2970    5.1550   -2.3290 ca        1 CT5      0.172100
     21 C17         3.5150    0.5140   -0.4580 c3        1 CT5      0.090400
     22 O25        -1.9260    6.3950   -2.7920 oh        1 CT5     -0.490100
     23 C11        -3.2480    5.0060   -1.3130 ca        1 CT5     -0.301000
     24 C18         3.8070    0.2440   -1.9250 c3        1 CT5      0.091400
     25 C9         -3.5900    3.7200   -0.8770 ca        1 CT5      0.168100
     26 O24        -4.5400    3.5390    0.1030 oh        1 CT5     -0.512100
     27 H15        -0.3500    1.1940    0.2050 ha        1 CT5      0.158000
     28 H22         0.8390   -1.7790   -3.6600 ha        1 CT5      0.150000
     29 H20        -1.5580   -1.4560   -3.0110 ha        1 CT5      0.143000
     30 H7C1       -2.0570   -2.6260   -0.8680 hc        1 CT5      0.051033
     31 H7C2       -3.8060   -3.0910   -0.6770 hc        1 CT5      0.051033
     32 H7C3       -2.8320   -2.6110    0.7760 hc        1 CT5      0.051033
     33 H3         -5.3070    1.4330   -0.3170 hn        1 CT5      0.332700
     34 H10        -1.5570    1.8780   -2.9020 ha        1 CT5      0.159000
     35 H261       -0.3470    5.2540   -4.0740 hc        1 CT5      0.056700
     36 H262        0.2460    3.5820   -3.7190 hc        1 CT5      0.056700
     37 H271       -2.0610    4.3230   -5.6540 hc        1 CT5      0.036033
     38 H272       -1.5010    2.6410   -5.2820 hc        1 CT5      0.036033
     39 H273       -0.3840    3.8070   -6.1070 hc        1 CT5      0.036033
     40 H171        3.6140   -0.4250    0.1460 h1        1 CT5      0.069200
     41 H172        4.1830    1.3170   -0.0490 h1        1 CT5      0.069200
     42 H25        -2.4150    7.0630   -2.2890 ho        1 CT5      0.421000
     43 H11        -3.7230    5.8880   -0.8620 ha        1 CT5      0.137000
     44 H181        4.8080   -0.2420   -2.0610 h1        1 CT5      0.068700
     45 H182        3.7440    1.1900   -2.5220 h1        1 CT5      0.068700
     46 H24        -4.7790    4.4090    0.4570 ho        1 CT5      0.429000
@<TRIPOS>BOND
     1    1    2 ar  
     2    1    8 ar  
     3    1   27 1   
     4    2    3 1   
     5    2    5 ar  
     6    3   21 1   
     7    4    5 1   
     8    4   24 1   
     9    5    6 ar  
    10    6    7 ar  
    11    6   28 1   
    12    7    8 ar  
    13    7   29 1   
    14    8    9 1   
    15    9   10 1   
    16    9   13 2   
    17   10   11 1   
    18   10   12 2   
    19   11   30 1   
    20   11   31 1   
    21   11   32 1   
    22   12   14 1   
    23   13   14 1   
    24   13   15 1   
    25   14   33 1   
    26   15   16 ar  
    27   15   25 ar  
    28   16   17 ar  
    29   16   34 1   
    30   17   18 1   
    31   17   20 ar  
    32   18   19 1   
    33   18   35 1   
    34   18   36 1   
    35   19   37 1   
    36   19   38 1   
    37   19   39 1   
    38   20   22 1   
    39   20   23 ar  
    40   21   24 1   
    41   21   40 1   
    42   21   41 1   
    43   22   42 1   
    44   23   25 ar  
    45   23   43 1   
    46   24   44 1   
    47   24   45 1   
    48   25   26 1   
    49   26   46 1   
@<TRIPOS>SUBSTRUCTURE
     1 CT5         1 TEMP              0 ****  ****    0 ROOT
