@<TRIPOS>MOLECULE
CT5
   46    49     1     0     0
SMALL
bcc


@<TRIPOS>ATOM
      1 C15        -0.0830    0.5650   -0.6280 ca        1 CT5     -0.107000
      2 C12         1.2560    0.3670   -0.9820 ca        1 CT5      0.050100
      3 O17         2.2150    1.0730   -0.2700 os        1 CT5     -0.315900
      4 O18         2.9110   -0.7320   -2.4080 os        1 CT5     -0.316900
      5 C16         1.5960   -0.4900   -2.0430 ca        1 CT5      0.053100
      6 C22         0.5930   -1.1660   -2.7490 ca        1 CT5     -0.126000
      7 C20        -0.7370   -0.9710   -2.3910 ca        1 CT5     -0.126000
      8 C8         -1.0850   -0.1050   -1.3410 ca        1 CT5     -0.001000
      9 C4         -2.4720    0.0670   -0.9760 cc        1 CT5     -0.211300
     10 C1         -3.3520   -0.9680   -0.4570 cc        1 CT5      0.321600
     11 C7         -2.9820   -2.3750   -0.2200 c3        1 CT5     -0.123400
     12 N5         -4.5840   -0.4350   -0.2000 nd        1 CT5     -0.515800
     13 C2         -3.2700    1.2370   -1.0140 cd        1 CT5     -0.019300
     14 N3         -4.5360    0.8440   -0.5520 na        1 CT5      0.004400
     15 C6         -2.9600    2.5730   -1.4810 ca        1 CT5     -0.079000
     16 C10        -2.0130    2.7370   -2.5030 ca        1 CT5     -0.043000
     17 C14        -1.6540    3.9890   -2.9990 ca        1 CT5     -0.126300
     18 C26        -0.6350    4.1070   -4.0770 c3        1 CT5     -0.029100
     19 C27        -1.1500    3.6020   -5.4040 c3        1 CT5     -0.089100
     20 C13        -2.2720    5.1280   -2.4420 ca        1 CT5      0.172100
     21 C17         3.5350    0.5440   -0.4280 c3        1 CT5      0.090400
     22 O25        -1.9000    6.3550   -2.9380 oh        1 CT5     -0.490100
     23 C11        -3.2260    5.0070   -1.4260 ca        1 CT5     -0.301000
     24 C18         3.8310    0.2320   -1.8860 c3        1 CT5      0.091400
     25 C9         -3.5690    3.7320   -0.9560 ca        1 CT5      0.168100
     26 O24        -4.5220    3.5790    0.0270 oh        1 CT5     -0.512100
     27 H15        -0.3320    1.2400    0.2040 ha        1 CT5      0.158000
     28 H22         0.8690   -1.8410   -3.5710 ha        1 CT5      0.150000
     29 H20        -1.5300   -1.5010   -2.9390 ha        1 CT5      0.143000
     30 H7C1       -2.8180   -2.5510    0.8730 hc        1 CT5      0.051033
     31 H7C2       -3.7840   -3.0710   -0.5730 hc        1 CT5      0.051033
     32 H7C3       -2.0340   -2.6100   -0.7660 hc        1 CT5      0.051033
     33 H3         -5.2870    1.4610   -0.3380 hn        1 CT5      0.332700
     34 H10        -1.5300    1.8360   -2.9240 ha        1 CT5      0.159000
     35 H261       -0.3180    5.1800   -4.1840 hc        1 CT5      0.056700
     36 H262        0.2760    3.5180   -3.7820 hc        1 CT5      0.056700
     37 H271       -1.4670    2.5340   -5.3230 hc        1 CT5      0.036033
     38 H272       -2.0270    4.2040   -5.7420 hc        1 CT5      0.036033
     39 H273       -0.3480    3.6770   -6.1770 hc        1 CT5      0.036033
     40 H171        4.2010    1.3580   -0.0400 h1        1 CT5      0.069200
     41 H172        3.6330   -0.3780    0.2030 h1        1 CT5      0.069200
     42 H25        -2.3910    7.0360   -2.4550 ho        1 CT5      0.421000
     43 H11        -3.7020    5.9000   -1.0000 ha        1 CT5      0.137000
     44 H181        4.8320   -0.2580   -2.0050 h1        1 CT5      0.068700
     45 H182        3.7700    1.1610   -2.5100 h1        1 CT5      0.068700
     46 H24        -4.7620    4.4580    0.3560 ho        1 CT5      0.429000
@<TRIPOS>BOND
     1    1    2 ar  
     2    1    8 ar  
     3    1   27 1   
     4    2    3 1   
     5    2    5 ar  
     6    3   21 1   
     7    4    5 1   
     8    4   24 1   
     9    5    6 ar  
    10    6    7 ar  
    11    6   28 1   
    12    7    8 ar  
    13    7   29 1   
    14    8    9 1   
    15    9   10 1   
    16    9   13 2   
    17   10   11 1   
    18   10   12 2   
    19   11   30 1   
    20   11   31 1   
    21   11   32 1   
    22   12   14 1   
    23   13   14 1   
    24   13   15 1   
    25   14   33 1   
    26   15   16 ar  
    27   15   25 ar  
    28   16   17 ar  
    29   16   34 1   
    30   17   18 1   
    31   17   20 ar  
    32   18   19 1   
    33   18   35 1   
    34   18   36 1   
    35   19   37 1   
    36   19   38 1   
    37   19   39 1   
    38   20   22 1   
    39   20   23 ar  
    40   21   24 1   
    41   21   40 1   
    42   21   41 1   
    43   22   42 1   
    44   23   25 ar  
    45   23   43 1   
    46   24   44 1   
    47   24   45 1   
    48   25   26 1   
    49   26   46 1   
@<TRIPOS>SUBSTRUCTURE
     1 CT5         1 TEMP              0 ****  ****    0 ROOT
