@<TRIPOS>MOLECULE
CT5
   46    49     1     0     0
SMALL
bcc


@<TRIPOS>ATOM
      1 C15        -0.7480   -0.3180   -2.6020 ca        1 CT5     -0.116000
      2 C12         0.2700   -0.1130   -3.5390 ca        1 CT5      0.053100
      3 O17         0.1420   -0.7460   -4.7660 os        1 CT5     -0.316900
      4 O18         2.4060    0.9220   -4.1250 os        1 CT5     -0.314900
      5 C16         1.3890    0.6760   -3.2170 ca        1 CT5      0.058100
      6 C22         1.4860    1.2750   -1.9550 ca        1 CT5     -0.120000
      7 C20         0.4690    1.0730   -1.0290 ca        1 CT5     -0.117000
      8 C8         -0.6470    0.2760   -1.3360 ca        1 CT5     -0.013000
      9 C4         -1.6940    0.0840   -0.3640 cc        1 CT5     -0.204300
     10 C1         -3.1300    0.1110   -0.6050 cc        1 CT5      0.324600
     11 C7         -3.7870    0.3120   -1.9100 c3        1 CT5     -0.127400
     12 N5         -3.7960   -0.0710    0.5740 nd        1 CT5     -0.510800
     13 C2         -1.5670   -0.1280    1.0290 cd        1 CT5     -0.045300
     14 N3         -2.8780   -0.2120    1.5220 na        1 CT5     -0.005600
     15 C6         -0.4060   -0.2580    1.8890 ca        1 CT5     -0.159000
     16 C10        -0.2040    0.6580    2.9280 ca        1 CT5     -0.042000
     17 C14         0.8850    0.5610    3.7930 ca        1 CT5     -0.199300
     18 C26         1.0670    1.5680    4.8730 c3        1 CT5     -0.034100
     19 C27         0.6910    1.0320    6.2340 c3        1 CT5     -0.098100
     20 C13         1.7970   -0.5000    3.6030 ca        1 CT5      0.176100
     21 C17         1.0120   -0.2120   -5.7700 c3        1 CT5      0.091400
     22 O25         2.9020   -0.7000    4.3940 oh        1 CT5     -0.493100
     23 C11         1.6290   -1.4310    2.5710 ca        1 CT5     -0.198000
     24 C18         2.4140    0.0060   -5.2260 c3        1 CT5      0.090400
     25 C9          0.5240   -1.3050    1.7160 ca        1 CT5      0.196100
     26 O24         0.4150   -2.2630    0.7440 oh        1 CT5     -0.488100
     27 H15        -1.6110   -0.9460   -2.8660 ha        1 CT5      0.154000
     28 H22         2.3610    1.8960   -1.7150 ha        1 CT5      0.152000
     29 H20         0.5390    1.5380   -0.0330 ha        1 CT5      0.145000
     30 H7C1       -4.7580    0.8560   -1.8020 hc        1 CT5      0.054033
     31 H7C2       -3.1150    0.9020   -2.5820 hc        1 CT5      0.054033
     32 H7C3       -3.9910   -0.6790   -2.3900 hc        1 CT5      0.054033
     33 H3         -3.1420   -0.3660    2.4680 hn        1 CT5      0.325700
     34 H10        -0.9240    1.4820    3.0590 ha        1 CT5      0.139000
     35 H261        0.4410    2.4740    4.6510 hc        1 CT5      0.048700
     36 H262        2.1360    1.9170    4.8860 hc        1 CT5      0.048700
     37 H271        0.8840    1.8040    7.0180 hc        1 CT5      0.038700
     38 H272       -0.3930    0.7620    6.2630 hc        1 CT5      0.038700
     39 H273        1.2820    0.1170    6.4830 hc        1 CT5      0.038700
     40 H171        0.5780    0.7510   -6.1460 h1        1 CT5      0.069700
     41 H172        1.0020   -0.9900   -6.5770 h1        1 CT5      0.069700
     42 H25         2.9260   -0.0100    5.0740 ho        1 CT5      0.427000
     43 H11         2.3490   -2.2490    2.4330 ha        1 CT5      0.172000
     44 H181        3.0750    0.5010   -5.9840 h1        1 CT5      0.070700
     45 H182        2.8620   -0.9630   -4.8840 h1        1 CT5      0.070700
     46 H24        -0.2940   -2.0010    0.1330 ho        1 CT5      0.441000
@<TRIPOS>BOND
     1    1    2 ar  
     2    1    8 ar  
     3    1   27 1   
     4    2    3 1   
     5    2    5 ar  
     6    3   21 1   
     7    4    5 1   
     8    4   24 1   
     9    5    6 ar  
    10    6    7 ar  
    11    6   28 1   
    12    7    8 ar  
    13    7   29 1   
    14    8    9 1   
    15    9   10 1   
    16    9   13 2   
    17   10   11 1   
    18   10   12 2   
    19   11   30 1   
    20   11   31 1   
    21   11   32 1   
    22   12   14 1   
    23   13   14 1   
    24   13   15 1   
    25   14   33 1   
    26   15   16 ar  
    27   15   25 ar  
    28   16   17 ar  
    29   16   34 1   
    30   17   18 1   
    31   17   20 ar  
    32   18   19 1   
    33   18   35 1   
    34   18   36 1   
    35   19   37 1   
    36   19   38 1   
    37   19   39 1   
    38   20   22 1   
    39   20   23 ar  
    40   21   24 1   
    41   21   40 1   
    42   21   41 1   
    43   22   42 1   
    44   23   25 ar  
    45   23   43 1   
    46   24   44 1   
    47   24   45 1   
    48   25   26 1   
    49   26   46 1   
@<TRIPOS>SUBSTRUCTURE
     1 CT5         1 TEMP              0 ****  ****    0 ROOT
