@<TRIPOS>MOLECULE
CT6
   40    43     1     0     0
SMALL
bcc


@<TRIPOS>ATOM
      1 BR1         0.0550    0.4460   -0.0560 br        1 CT6      0.010900
      2 C1          1.9170    0.3330   -0.0710 ca        1 CT6     -0.051900
      3 C2          2.6030   -0.0490    1.0740 ca        1 CT6     -0.048000
      4 C3          4.0170   -0.1340    1.0770 cp        1 CT6     -0.251500
      5 C4          4.7220    0.1990   -0.1060 ca        1 CT6      0.002000
      6 C5          4.0250    0.5740   -1.2500 ca        1 CT6     -0.143000
      7 C6          2.6320    0.6430   -1.2450 ca        1 CT6      0.022000
      8 C7          4.7280   -0.5300    2.2650 cp        1 CT6      0.661800
      9 C8          4.0290   -1.2380    3.3330 ca        1 CT6     -0.233300
     10 C9          4.6930   -1.5820    4.5010 ca        1 CT6      0.111300
     11 N2          6.0000   -1.1170    4.6930 na        1 CT6     -0.213200
     12 N3          6.9320   -1.5690    5.6250 na        1 CT6     -0.141600
     13 C12         8.2120   -1.1250    5.1360 cc        1 CT6     -0.028100
     14 C10         6.6870   -0.6100    3.5140 ca        1 CT6      0.656300
     15 C11         8.1110   -0.5830    3.8720 cd        1 CT6     -0.241800
     16 N1          6.0680   -0.2890    2.3770 nb        1 CT6     -0.637000
     17 N4          4.0230   -2.3800    5.5430 n4        1 CT6     -0.667400
     18 C13         3.5510   -1.5480    6.7230 c3        1 CT6      0.187100
     19 C14         2.7820   -2.4040    7.6640 ca        1 CT6     -0.172300
     20 C15         3.4490   -3.2160    8.5910 ca        1 CT6     -0.222300
     21 C16         2.6750   -3.9640    9.4990 ca        1 CT6      0.431700
     22 N5          1.3280   -3.9380    9.5180 nb        1 CT6     -0.586000
     23 C17         0.7010   -3.1520    8.6240 ca        1 CT6      0.431700
     24 C18         1.3830   -2.3660    7.6700 ca        1 CT6     -0.222300
     25 H2          2.0310   -0.2520    1.9940 ha        1 CT6      0.141000
     26 H4          5.8240    0.1530   -0.1420 ha        1 CT6      0.177000
     27 H5          4.5810    0.8240   -2.1720 ha        1 CT6      0.188000
     28 H6          2.0920    0.9450   -2.1620 ha        1 CT6      0.194000
     29 H8          2.9800   -1.5390    3.1630 ha        1 CT6      0.210000
     30 H3          6.7200   -1.2400    6.5630 hn        1 CT6      0.297700
     31 H12         9.1020   -1.2960    5.7660 h4        1 CT6      0.252000
     32 H11         8.8990   -0.1940    3.2180 ha        1 CT6      0.251000
     33 HA          4.6500   -3.1280    5.8850 hn        1 CT6      0.484800
     34 H131        4.4650   -1.1180    7.2230 hx        1 CT6      0.113200
     35 H132        2.9170   -0.7070    6.3180 hx        1 CT6      0.113200
     36 H15         4.5450   -3.2590    8.6420 ha        1 CT6      0.151000
     37 H16         3.1550   -4.6160   10.2570 h4        1 CT6      0.068100
     38 H17        -0.4070   -3.1460    8.6770 h4        1 CT6      0.068100
     39 H18         0.8140   -1.7280    6.9790 ha        1 CT6      0.151000
     40 H42         3.2000   -2.8400    5.1180 hn        1 CT6      0.484800
@<TRIPOS>BOND
     1    1    2 1   
     2    2    3 ar  
     3    2    7 ar  
     4    3    4 ar  
     5    3   25 1   
     6    4    5 ar  
     7    4    8 1   
     8    5    6 ar  
     9    5   26 1   
    10    6    7 ar  
    11    6   27 1   
    12    7   28 1   
    13    8    9 ar  
    14    8   16 ar  
    15    9   10 ar  
    16    9   29 1   
    17   10   11 1   
    18   10   17 1   
    19   11   12 1   
    20   11   14 2   
    21   12   13 1   
    22   12   30 1   
    23   13   15 2   
    24   13   31 1   
    25   14   15 1   
    26   14   16 ar  
    27   15   32 1   
    28   17   18 1   
    29   17   33 1   
    30   17   40 1   
    31   18   19 1   
    32   18   34 1   
    33   18   35 1   
    34   19   20 ar  
    35   19   24 ar  
    36   20   21 ar  
    37   20   36 1   
    38   21   22 ar  
    39   21   37 1   
    40   22   23 ar  
    41   23   24 ar  
    42   23   38 1   
    43   24   39 1   
@<TRIPOS>SUBSTRUCTURE
     1 CT6         1 TEMP              0 ****  ****    0 ROOT
