@<TRIPOS>MOLECULE
CT6
   39    42     1     0     0
SMALL
bcc


@<TRIPOS>ATOM
      1 Br1         0.1360   -0.0010   -0.4900 br        1 CT6     -0.040100
      2 C1          1.9950   -0.1620   -0.3930 ca        1 CT6     -0.038900
      3 C2          2.6170   -0.2840    0.8500 ca        1 CT6     -0.069000
      4 C3          4.0140   -0.4050    0.9290 cp        1 CT6     -0.211500
      5 C4          4.7840   -0.3870   -0.2450 ca        1 CT6     -0.051000
      6 C5          4.1530   -0.2710   -1.4820 ca        1 CT6     -0.133000
      7 C6          2.7660   -0.1590   -1.5630 ca        1 CT6     -0.050000
      8 C7          4.6530   -0.5440    2.2410 cp        1 CT6      0.621800
      9 C8          3.9950   -1.2240    3.2720 ca        1 CT6     -0.362300
     10 C9          4.5830   -1.3640    4.5840 ca        1 CT6      0.225500
     11 N2          5.8900   -0.8870    4.7100 na        1 CT6     -0.241200
     12 N3          6.6340   -0.6900    5.8710 na        1 CT6     -0.129600
     13 C12         7.8050    0.0470    5.4600 cc        1 CT6     -0.077100
     14 C10         6.4620   -0.1200    3.6130 ca        1 CT6      0.623300
     15 C11         7.7250    0.4370    4.1480 cd        1 CT6     -0.257800
     16 N1          5.9000    0.0270    2.4280 nb        1 CT6     -0.655000
     17 N4          3.8980   -1.9990    5.5710 nu        1 CT6     -0.268200
     18 C13         4.2480   -2.0700    6.9750 c3        1 CT6      0.071600
     19 C14         3.1340   -2.6550    7.7900 ca        1 CT6     -0.110300
     20 C15         2.7810   -4.0020    7.6460 ca        1 CT6     -0.230800
     21 C16         1.7520   -4.5130    8.4600 ca        1 CT6      0.411200
     22 N5          1.0890   -3.7720    9.3690 nb        1 CT6     -0.627000
     23 C17         1.4410   -2.4790    9.4950 ca        1 CT6      0.411200
     24 C18         2.4540   -1.8710    8.7260 ca        1 CT6     -0.230800
     25 H2          2.0120   -0.2610    1.7700 ha        1 CT6      0.147000
     26 H4          5.8810   -0.4690   -0.2000 ha        1 CT6      0.159000
     27 H5          4.7570   -0.2630   -2.4040 ha        1 CT6      0.162000
     28 H6          2.2810   -0.0650   -2.5500 ha        1 CT6      0.169000
     29 H8          3.0000   -1.6620    3.0940 ha        1 CT6      0.192000
     30 H3          6.8590   -1.5780    6.3100 hn        1 CT6      0.275700
     31 H12         8.5700    0.2620    6.2180 h4        1 CT6      0.223000
     32 H11         8.4090    1.0440    3.5550 ha        1 CT6      0.224000
     33 HA          3.0080   -2.3850    5.3140 hn        1 CT6      0.326700
     34 H131        4.4890   -1.0360    7.3600 h1        1 CT6      0.074700
     35 H132        5.1590   -2.7300    7.0900 h1        1 CT6      0.074700
     36 H15         3.2970   -4.6560    6.9310 ha        1 CT6      0.150000
     37 H16         1.4420   -5.5720    8.3830 h4        1 CT6      0.044600
     38 H17         0.8820   -1.8980   10.2520 h4        1 CT6      0.044600
     39 H18         2.6970   -0.8100    8.8740 ha        1 CT6      0.150000
@<TRIPOS>BOND
     1    1    2 1   
     2    2    3 ar  
     3    2    7 ar  
     4    3    4 ar  
     5    3   25 1   
     6    4    5 ar  
     7    4    8 1   
     8    5    6 ar  
     9    5   26 1   
    10    6    7 ar  
    11    6   27 1   
    12    7   28 1   
    13    8    9 ar  
    14    8   16 ar  
    15    9   10 ar  
    16    9   29 1   
    17   10   11 1   
    18   10   17 1   
    19   11   12 1   
    20   11   14 2   
    21   12   13 1   
    22   12   30 1   
    23   13   15 2   
    24   13   31 1   
    25   14   15 1   
    26   14   16 ar  
    27   15   32 1   
    28   17   18 1   
    29   17   33 1   
    30   18   19 1   
    31   18   34 1   
    32   18   35 1   
    33   19   20 ar  
    34   19   24 ar  
    35   20   21 ar  
    36   20   36 1   
    37   21   22 ar  
    38   21   37 1   
    39   22   23 ar  
    40   23   24 ar  
    41   23   38 1   
    42   24   39 1   
@<TRIPOS>SUBSTRUCTURE
     1 CT6         1 TEMP              0 ****  ****    0 ROOT
