@<TRIPOS>MOLECULE
CT6
   39    29     1     0     0
SMALL
bcc


@<TRIPOS>ATOM
      1 BR1         1.5110   -0.9160   -7.0030 br        1 CT6      0.104000
      2 C1          0.5040   -1.2500   -5.4100 c2        1 CT6     -0.182000
      3 C2          1.1240   -1.1730   -4.1670 c2        1 CT6     -0.039000
      4 C3          0.3770   -1.3470   -3.0040 c1        1 CT6     -0.104000
      5 C4         -0.9890   -1.5990   -3.0870 c1        1 CT6     -0.106000
      6 C5         -1.6080   -1.6760   -4.3310 c1        1 CT6     -0.106000
      7 C6         -0.8630   -1.5010   -5.4920 c1        1 CT6     -0.051000
      8 C7          0.9780   -1.1420   -1.7440 c1        1 CT6      0.174500
      9 C8          0.6740   -1.1380   -0.4010 c1        1 CT6     -0.297000
     10 C9          0.3600    0.0400    0.2260 c1        1 CT6      0.295000
     11 N2          0.3480    1.2060   -0.4800 n1        1 CT6     -0.152000
     12 N3         -0.0070    2.5050   -0.1230 n1        1 CT6     -0.107000
     13 C12         0.0780    3.2870   -1.2360 c1        1 CT6     -0.050000
     14 C10         0.6480    1.2010   -1.8060 c1        1 CT6      0.174500
     15 C11         0.4830    2.4910   -2.2860 c1        1 CT6     -0.147000
     16 N1          0.9660    0.0110   -2.4400 n1        1 CT6     -0.152000
     17 N4         -0.0270   -0.2510    1.5840 n3        1 CT6     -0.284000
     18 C13         0.8630    0.0680    2.6710 c3        1 CT6      0.005000
     19 C14         0.0960    0.0060    3.9930 c2        1 CT6     -0.103000
     20 C15        -0.4340    1.1480    4.5300 c2        1 CT6     -0.156000
     21 C16        -1.0410    1.1110    5.7800 c1        1 CT6     -0.054000
     22 N5         -1.1090   -0.0630    6.4720 n1        1 CT6     -0.101000
     23 C17        -0.5810   -1.2050    5.9380 c1        1 CT6     -0.054000
     24 C18         0.0270   -1.1710    4.6880 c1        1 CT6     -0.175000
     25 H2          2.0850   -0.9960   -4.1090 ha        1 CT6      0.167000
     26 H4         -1.5160   -1.7220   -2.2680 ha        1 CT6      0.149500
     27 H5         -2.5730   -1.8530   -4.3890 ha        1 CT6      0.149500
     28 H6         -1.3000   -1.5560   -6.3690 ha        1 CT6      0.169000
     29 H8          0.7190   -1.9690    0.1130 ha        1 CT6      0.191000
     30 H3         -0.2550    2.7850    0.7120 DU        1 CT6      0.224667
     31 H12        -0.1240    4.2440   -1.2840 DU        1 CT6      0.224667
     32 H11         0.6290    2.7850   -3.2070 DU        1 CT6      0.224667
     33 HA         -0.8420   -0.6400    1.7560 hn        1 CT6      0.277000
     34 H131        1.6030   -0.5800    2.6910 h1        1 CT6      0.114000
     35 H132        1.2230    0.9750    2.5440 h1        1 CT6      0.114000
     36 H15        -0.3850    1.9940    4.0330 ha        1 CT6      0.153000
     37 H16        -1.4200    1.9280    6.1640 ha        1 CT6      0.182000
     38 H17        -0.6300   -2.0460    6.4350 ha        1 CT6      0.181000
     39 H18         0.4070   -1.9910    4.3040 ha        1 CT6      0.147000
@<TRIPOS>BOND
     1    1    2 1   
     2    2    3 1   
     3    2    7 1   
     4    3    4 1   
     5    3   25 1   
     6    5    6 1   
     7    5   26 1   
     8    6   27 1   
     9    7   28 1   
    10    8   16 1   
    11    9   10 1   
    12    9   29 1   
    13   10   17 1   
    14   11   14 1   
    15   12   13 1   
    16   13   15 1   
    17   17   18 1   
    18   17   33 1   
    19   18   19 1   
    20   18   34 1   
    21   18   35 1   
    22   19   20 1   
    23   19   24 1   
    24   20   21 1   
    25   20   36 1   
    26   21   37 1   
    27   22   23 1   
    28   23   38 1   
    29   24   39 1   
@<TRIPOS>SUBSTRUCTURE
     1 CT6         1 TEMP              0 ****  ****    0 ROOT
