@<TRIPOS>MOLECULE
CT6
   39    42     1     0     0
SMALL
bcc


@<TRIPOS>ATOM
      1 BR1         0.1600    0.0280   -0.5020 br        1 CT6     -0.040100
      2 C1          2.0170   -0.1470   -0.3990 ca        1 CT6     -0.038900
      3 C2          2.6350   -0.2730    0.8460 ca        1 CT6     -0.069000
      4 C3          4.0310   -0.4040    0.9290 cp        1 CT6     -0.211500
      5 C4          4.8040   -0.3900   -0.2420 ca        1 CT6     -0.051000
      6 C5          4.1780   -0.2700   -1.4810 ca        1 CT6     -0.133000
      7 C6          2.7920   -0.1490   -1.5660 ca        1 CT6     -0.050000
      8 C7          4.6650   -0.5480    2.2430 cp        1 CT6      0.621800
      9 C8          3.9990   -1.2230    3.2720 ca        1 CT6     -0.362300
     10 C9          4.5820   -1.3670    4.5860 ca        1 CT6      0.225500
     11 N2          5.8910   -0.9000    4.7160 na        1 CT6     -0.241200
     12 N3          6.6330   -0.7090    5.8790 na        1 CT6     -0.129600
     13 C12         7.8110    0.0210    5.4710 cc        1 CT6     -0.077100
     14 C10         6.4720   -0.1370    3.6210 ca        1 CT6      0.623300
     15 C11         7.7370    0.4110    4.1600 cd        1 CT6     -0.257800
     16 N1          5.9150    0.0150    2.4340 nb        1 CT6     -0.655000
     17 N4          3.8890   -1.9980    5.5700 nh        1 CT6     -0.268200
     18 C13         4.2350   -2.0720    6.9750 c3        1 CT6      0.071600
     19 C14         3.1140   -2.6500    7.7870 ca        1 CT6     -0.110300
     20 C15         2.7520   -3.9940    7.6410 ca        1 CT6     -0.230800
     21 C16         1.7170   -4.4980    8.4520 ca        1 CT6      0.411200
     22 N5          1.0570   -3.7530    9.3600 nb        1 CT6     -0.627000
     23 C17         1.4180   -2.4620    9.4870 ca        1 CT6      0.411200
     24 C18         2.4380   -1.8610    8.7220 ca        1 CT6     -0.230800
     25 H2          2.0270   -0.2460    1.7650 ha        1 CT6      0.147000
     26 H4          5.9010   -0.4800   -0.1940 ha        1 CT6      0.159000
     27 H5          4.7840   -0.2660   -2.4020 ha        1 CT6      0.162000
     28 H6          2.3100   -0.0510   -2.5550 ha        1 CT6      0.169000
     29 H8          3.0010   -1.6540    3.0910 ha        1 CT6      0.192000
     30 H3          6.8510   -1.5990    6.3190 hn        1 CT6      0.275700
     31 H12         8.5750    0.2290    6.2320 h4        1 CT6      0.223000
     32 H11         8.4280    1.0140    3.5680 ha        1 CT6      0.224000
     33 HA          2.9970   -2.3780    5.3110 hn        1 CT6      0.326700
     34 H131        5.1400   -2.7390    7.0930 h1        1 CT6      0.074700
     35 H132        4.4820   -1.0400    7.3610 h1        1 CT6      0.074700
     36 H15         3.2660   -4.6520    6.9280 ha        1 CT6      0.150000
     37 H16         1.4000   -5.5550    8.3740 h4        1 CT6      0.044600
     38 H17         0.8610   -1.8780   10.2430 h4        1 CT6      0.044600
     39 H18         2.6880   -0.8020    8.8710 ha        1 CT6      0.150000
@<TRIPOS>BOND
     1    1    2 1   
     2    2    3 ar  
     3    2    7 ar  
     4    3    4 ar  
     5    3   25 1   
     6    4    5 ar  
     7    4    8 1   
     8    5    6 ar  
     9    5   26 1   
    10    6    7 ar  
    11    6   27 1   
    12    7   28 1   
    13    8    9 ar  
    14    8   16 ar  
    15    9   10 ar  
    16    9   29 1   
    17   10   11 1   
    18   10   17 1   
    19   11   12 1   
    20   11   14 2   
    21   12   13 1   
    22   12   30 1   
    23   13   15 2   
    24   13   31 1   
    25   14   15 1   
    26   14   16 ar  
    27   15   32 1   
    28   17   18 1   
    29   17   33 1   
    30   18   19 1   
    31   18   34 1   
    32   18   35 1   
    33   19   20 ar  
    34   19   24 ar  
    35   20   21 ar  
    36   20   36 1   
    37   21   22 ar  
    38   21   37 1   
    39   22   23 ar  
    40   23   24 ar  
    41   23   38 1   
    42   24   39 1   
@<TRIPOS>SUBSTRUCTURE
     1 CT6         1 TEMP              0 ****  ****    0 ROOT
