@<TRIPOS>MOLECULE
CT6
   39    42     1     0     0
SMALL
bcc


@<TRIPOS>ATOM
      1 BR1         4.7120   -1.8390   -1.8080 br        1 CT6     -0.040100
      2 C1          4.2050   -0.3540   -0.7930 ca        1 CT6     -0.039900
      3 C2          2.8710    0.0530   -0.7770 ca        1 CT6     -0.069000
      4 C3          2.4840    1.1690   -0.0170 cp        1 CT6     -0.212500
      5 C4          3.4460    1.8830    0.7140 ca        1 CT6     -0.050000
      6 C5          4.7760    1.4650    0.6970 ca        1 CT6     -0.133000
      7 C6          5.1600    0.3530   -0.0510 ca        1 CT6     -0.050000
      8 C7          1.0760    1.5770   -0.0060 cp        1 CT6      0.622800
      9 C8          0.0690    0.6090   -0.0940 ca        1 CT6     -0.362300
     10 C9         -1.3300    0.9700   -0.1030 ca        1 CT6      0.225500
     11 N2         -1.5950    2.3410   -0.1320 na        1 CT6     -0.240200
     12 N3         -2.8120    2.9920    0.0600 na        1 CT6     -0.130600
     13 C12        -2.4850    4.3910    0.2020 cc        1 CT6     -0.076100
     14 C10        -0.4930    3.2680    0.0860 ca        1 CT6      0.622300
     15 C11        -1.1310    4.5920    0.2640 cd        1 CT6     -0.257800
     16 N1          0.7800    2.9230    0.1210 nb        1 CT6     -0.655000
     17 N4         -2.2810    0.0010   -0.1620 nh        1 CT6     -0.267200
     18 C13        -3.7100    0.1660    0.0170 c3        1 CT6      0.071600
     19 C14        -4.4060   -1.1590    0.1230 ca        1 CT6     -0.110300
     20 C15        -4.4860   -2.0090   -0.9860 ca        1 CT6     -0.230800
     21 C16        -5.1810   -3.2250   -0.8450 ca        1 CT6      0.411200
     22 N5         -5.7720   -3.6130    0.3020 nb        1 CT6     -0.627000
     23 C17        -5.6850   -2.7830    1.3580 ca        1 CT6      0.411200
     24 C18        -5.0100   -1.5460    1.3230 ca        1 CT6     -0.230800
     25 H2          2.1240   -0.4900   -1.3790 ha        1 CT6      0.147000
     26 H4          3.1620    2.7660    1.3080 ha        1 CT6      0.160000
     27 H5          5.5310    2.0210    1.2760 ha        1 CT6      0.162000
     28 H6          6.2170    0.0360   -0.0570 ha        1 CT6      0.169000
     29 H8          0.3350   -0.4600   -0.1200 ha        1 CT6      0.193000
     30 H3         -3.4440    2.8090   -0.7140 hn        1 CT6      0.276700
     31 H12        -3.3130    5.1050    0.3020 h4        1 CT6      0.223000
     32 H11        -0.5650    5.5130    0.4170 ha        1 CT6      0.224000
     33 HA         -1.9480   -0.9420   -0.2400 hn        1 CT6      0.326700
     34 H131       -3.9100    0.7690    0.9510 h1        1 CT6      0.075200
     35 H132       -4.1270    0.7170   -0.8760 h1        1 CT6      0.075200
     36 H15        -4.0360   -1.7370   -1.9490 ha        1 CT6      0.150000
     37 H16        -5.2730   -3.9260   -1.6950 h4        1 CT6      0.044600
     38 H17        -6.1830   -3.1270    2.2850 h4        1 CT6      0.044600
     39 H18        -4.9730   -0.9110    2.2180 ha        1 CT6      0.150000
@<TRIPOS>BOND
     1    1    2 1   
     2    2    3 ar  
     3    2    7 ar  
     4    3    4 ar  
     5    3   25 1   
     6    4    5 ar  
     7    4    8 1   
     8    5    6 ar  
     9    5   26 1   
    10    6    7 ar  
    11    6   27 1   
    12    7   28 1   
    13    8    9 ar  
    14    8   16 ar  
    15    9   10 ar  
    16    9   29 1   
    17   10   11 1   
    18   10   17 1   
    19   11   12 1   
    20   11   14 2   
    21   12   13 1   
    22   12   30 1   
    23   13   15 2   
    24   13   31 1   
    25   14   15 1   
    26   14   16 ar  
    27   15   32 1   
    28   17   18 1   
    29   17   33 1   
    30   18   19 1   
    31   18   34 1   
    32   18   35 1   
    33   19   20 ar  
    34   19   24 ar  
    35   20   21 ar  
    36   20   36 1   
    37   21   22 ar  
    38   21   37 1   
    39   22   23 ar  
    40   23   24 ar  
    41   23   38 1   
    42   24   39 1   
@<TRIPOS>SUBSTRUCTURE
     1 CT6         1 TEMP              0 ****  ****    0 ROOT
