@<TRIPOS>MOLECULE
CT7
   32    34     1     0     0
SMALL
bcc


@<TRIPOS>ATOM
      1 O3          0.1950    0.5230    1.3450 o         1 CT7     -0.658800
      2 S1          1.4690    0.3090    0.8000 sy        1 CT7      1.404300
      3 O2          2.5370    0.1290    1.6910 o         1 CT7     -0.658800
      4 C16         1.8340    1.5160   -0.2950 ca        1 CT7     -0.426500
      5 C15         3.1640    1.8630   -0.5700 ca        1 CT7      0.019000
      6 C17         0.8220    2.2370   -0.9410 ca        1 CT7      0.019000
      7 C18         1.1090    3.2580   -1.8340 ca        1 CT7     -0.207500
      8 C14         3.4830    2.8770   -1.4580 ca        1 CT7     -0.207500
      9 C13         2.4510    3.6040   -2.1080 ca        1 CT7      0.219600
     10 N5          2.8140    4.6660   -2.9470 nh        1 CT7     -0.623000
     11 C9          1.8670    5.3550   -3.7300 cc        1 CT7      0.259300
     12 N2          2.0010    5.3960   -5.1340 na        1 CT7      0.005200
     13 C10         1.0540    6.1840   -5.9110 cc        1 CT7      0.375500
     14 N1         -0.0000    6.8610   -5.3440 nc        1 CT7     -0.624000
     15 C11         2.6520    5.2150   -7.1880 cd        1 CT7      0.383500
     16 N3          2.9420    4.8410   -5.9100 nc        1 CT7     -0.573100
     17 C8          0.8100    6.0700   -3.1700 cd        1 CT7     -0.307300
     18 C7         -0.0960    6.7940   -4.0220 cd        1 CT7      0.530300
     19 CL1        -1.3710    7.6170   -3.2360 cl        1 CT7     -0.121000
     20 C12         1.4870    6.0510   -7.2520 cd        1 CT7     -0.294600
     21 C20         1.3980   -1.0250   -0.2420 c3        1 CT7     -0.357300
     22 H15         3.9770    1.3210   -0.0510 ha        1 CT7      0.159500
     23 H17        -0.2340    1.9920   -0.7220 ha        1 CT7      0.159500
     24 H18         0.2800    3.7900   -2.3270 ha        1 CT7      0.150000
     25 H14         4.5400    3.1180   -1.6470 ha        1 CT7      0.150000
     26 HN5         3.7390    4.6080   -3.3280 hn        1 CT7      0.455800
     27 H11         3.2720    4.8820   -8.0240 h4        1 CT7      0.059800
     28 H8          0.6710    6.0960   -2.0790 ha        1 CT7      0.186000
     29 H12         1.0310    6.4940   -8.1300 ha        1 CT7      0.187000
     30 H201        2.3640   -1.2230   -0.7660 h1        1 CT7      0.112700
     31 H202        1.1490   -1.9610    0.3200 h1        1 CT7      0.112700
     32 H203        0.6190   -0.9210   -1.0350 h1        1 CT7      0.112700
@<TRIPOS>BOND
     1    1    2 2   
     2    2    3 2   
     3    2    4 1   
     4    2   21 1   
     5    4    5 ar  
     6    4    6 ar  
     7    5    8 ar  
     8    5   22 1   
     9    6    7 ar  
    10    6   23 1   
    11    7    9 ar  
    12    7   24 1   
    13    8    9 ar  
    14    8   25 1   
    15    9   10 1   
    16   10   11 1   
    17   10   26 1   
    18   11   12 1   
    19   11   17 2   
    20   12   13 1   
    21   12   16 1   
    22   13   14 1   
    23   13   20 2   
    24   14   18 2   
    25   15   16 2   
    26   15   20 1   
    27   15   27 1   
    28   17   18 1   
    29   17   28 1   
    30   18   19 1   
    31   20   29 1   
    32   21   30 1   
    33   21   31 1   
    34   21   32 1   
@<TRIPOS>SUBSTRUCTURE
     1 CT7         1 TEMP              0 ****  ****    0 ROOT
