@<TRIPOS>MOLECULE
CT7
   33    35     1     0     0
SMALL
bcc


@<TRIPOS>ATOM
      1 O3          1.1960    0.1870    1.3830 o         1 CT7     -0.628300
      2 S1          1.8710   -0.0040    0.1780 sy        1 CT7      1.388300
      3 O2          3.1310   -0.5980    0.1710 o         1 CT7     -0.628300
      4 C16         2.0300    1.5450   -0.5700 ca        1 CT7     -0.288500
      5 C15         3.0700    1.7930   -1.4660 ca        1 CT7     -0.008000
      6 C17         1.1560    2.5830   -0.2330 ca        1 CT7     -0.008000
      7 C18         1.3040    3.8540   -0.7820 ca        1 CT7     -0.117000
      8 C14         3.2470    3.0550   -2.0360 ca        1 CT7     -0.117000
      9 C13         2.3590    4.0830   -1.6830 ca        1 CT7     -0.008400
     10 N5          2.5540    5.4340   -2.2370 n4        1 CT7     -0.513800
     11 C9          1.7010    5.6910   -3.4200 cc        1 CT7      0.089300
     12 N2          2.1260    5.2470   -4.6700 na        1 CT7      0.011200
     13 C10         1.2620    5.5180   -5.8280 cc        1 CT7      0.378500
     14 N1          0.0640    6.1750   -5.7130 nc        1 CT7     -0.554000
     15 C11         3.1780    4.4300   -6.3680 cd        1 CT7      0.419500
     16 N3          3.2500    4.6070   -5.0190 nc        1 CT7     -0.585100
     17 C8          0.4940    6.3570   -3.3040 cd        1 CT7     -0.223300
     18 C7         -0.2970    6.5780   -4.5020 cd        1 CT7      0.505300
     19 CL1        -1.7640    7.4030   -4.2820 cl        1 CT7     -0.054000
     20 C12         1.9670    4.9730   -6.9240 cd        1 CT7     -0.237600
     21 C20         0.8680   -0.7410   -0.9450 c3        1 CT7     -0.386300
     22 H15         3.7840    0.9840   -1.7160 ha        1 CT7      0.191000
     23 H17         0.3460    2.3990    0.5010 ha        1 CT7      0.191000
     24 H18         0.6010    4.6530   -0.4970 ha        1 CT7      0.168500
     25 H14         4.0770    3.2190   -2.7450 ha        1 CT7      0.168500
     26 HN5         2.3110    6.1290   -1.5160 hn        1 CT7      0.480300
     27 H11         3.9840    3.9240   -6.9130 h4        1 CT7      0.086800
     28 H8          0.1130    6.7250   -2.3390 ha        1 CT7      0.189000
     29 H12         1.6550    4.9730   -7.9670 ha        1 CT7      0.215000
     30 H201        1.3060   -0.8080   -1.9720 h1        1 CT7      0.131700
     31 H202        0.6410   -1.8020   -0.6510 h1        1 CT7      0.131700
     32 H203       -0.1300   -0.2470   -1.0570 h1        1 CT7      0.131700
     33 H52         3.5500    5.5500   -2.4910 hn        1 CT7      0.480300
@<TRIPOS>BOND
     1    1    2 2   
     2    2    3 2   
     3    2    4 1   
     4    2   21 1   
     5    4    5 ar  
     6    4    6 ar  
     7    5    8 ar  
     8    5   22 1   
     9    6    7 ar  
    10    6   23 1   
    11    7    9 ar  
    12    7   24 1   
    13    8    9 ar  
    14    8   25 1   
    15    9   10 1   
    16   10   11 1   
    17   10   26 1   
    18   10   33 1   
    19   11   12 1   
    20   11   17 2   
    21   12   13 1   
    22   12   16 1   
    23   13   14 1   
    24   13   20 2   
    25   14   18 2   
    26   15   16 2   
    27   15   20 1   
    28   15   27 1   
    29   17   18 1   
    30   17   28 1   
    31   18   19 1   
    32   20   29 1   
    33   21   30 1   
    34   21   31 1   
    35   21   32 1   
@<TRIPOS>SUBSTRUCTURE
     1 CT7         1 TEMP              0 ****  ****    0 ROOT
