@<TRIPOS>MOLECULE
CT7
   32    34     1     0     0
SMALL
bcc


@<TRIPOS>ATOM
      1 O3         -1.5470   -1.8120    4.7550 o         1 CT7     -0.658800
      2 S1         -0.9520   -0.5430    4.8080 sy        1 CT7      1.404300
      3 O2         -1.5900    0.4450    5.5720 o         1 CT7     -0.658800
      4 C16        -0.6690    0.0220    3.2620 ca        1 CT7     -0.426500
      5 C15        -0.6030    1.3980    2.9970 ca        1 CT7      0.019000
      6 C17        -0.5270   -0.8600    2.1840 ca        1 CT7      0.019000
      7 C18        -0.3160   -0.4050    0.8910 ca        1 CT7     -0.207500
      8 C14        -0.3920    1.8830    1.7170 ca        1 CT7     -0.207500
      9 C13        -0.2500    0.9830    0.6290 ca        1 CT7      0.219600
     10 N5         -0.1050    1.5140   -0.6590 nh        1 CT7     -0.623000
     11 C9          0.1700    0.7000   -1.7760 cc        1 CT7      0.259300
     12 N2          1.3350    0.9170   -2.5420 na        1 CT7      0.005200
     13 C10         1.5520    0.1140   -3.7380 cc        1 CT7      0.375500
     14 N1          0.6940   -0.8830   -4.1380 nc        1 CT7     -0.624000
     15 C11         3.1750    1.6570   -3.4030 cd        1 CT7      0.383500
     16 N3          2.3020    1.8280   -2.3720 nc        1 CT7     -0.573100
     17 C8         -0.7030   -0.2950   -2.2100 cd        1 CT7     -0.307300
     18 C7         -0.3870   -1.0610   -3.3880 cd        1 CT7      0.530300
     19 CL1        -1.5120   -2.2720   -3.8200 cl        1 CT7     -0.121000
     20 C12         2.7610    0.6030   -4.2880 cd        1 CT7     -0.295600
     21 C20         0.6420   -0.7120    5.3570 c3        1 CT7     -0.357300
     22 H15        -0.7380    2.1110    3.8320 ha        1 CT7      0.159500
     23 H17        -0.5960   -1.9480    2.3690 ha        1 CT7      0.159500
     24 H18        -0.1980   -1.1360    0.0760 ha        1 CT7      0.150000
     25 H14        -0.3450    2.9710    1.5520 ha        1 CT7      0.150000
     26 HN5         0.2620    2.4460   -0.6940 hn        1 CT7      0.456800
     27 H11         4.0680    2.2790   -3.4920 h4        1 CT7      0.059800
     28 H8         -1.6390   -0.4910   -1.6680 ha        1 CT7      0.186000
     29 H12         3.2570    0.2530   -5.1860 ha        1 CT7      0.187000
     30 H201        0.6650   -1.1010    6.4060 h1        1 CT7      0.112700
     31 H202        1.2430   -1.4270    4.7450 h1        1 CT7      0.112700
     32 H203        1.2060    0.2520    5.3690 h1        1 CT7      0.112700
@<TRIPOS>BOND
     1    1    2 2   
     2    2    3 2   
     3    2    4 1   
     4    2   21 1   
     5    4    5 ar  
     6    4    6 ar  
     7    5    8 ar  
     8    5   22 1   
     9    6    7 ar  
    10    6   23 1   
    11    7    9 ar  
    12    7   24 1   
    13    8    9 ar  
    14    8   25 1   
    15    9   10 1   
    16   10   11 1   
    17   10   26 1   
    18   11   12 1   
    19   11   17 2   
    20   12   13 1   
    21   12   16 1   
    22   13   14 1   
    23   13   20 2   
    24   14   18 2   
    25   15   16 2   
    26   15   20 1   
    27   15   27 1   
    28   17   18 1   
    29   17   28 1   
    30   18   19 1   
    31   20   29 1   
    32   21   30 1   
    33   21   31 1   
    34   21   32 1   
@<TRIPOS>SUBSTRUCTURE
     1 CT7         1 TEMP              0 ****  ****    0 ROOT
