@<TRIPOS>MOLECULE
CT7
   32    24     1     0     0
SMALL
bcc


@<TRIPOS>ATOM
      1 O3         -1.2830   -4.2500    2.6730 o         1 CT7     -0.938000
      2 S1         -2.1060   -3.8410    1.5690 ss        1 CT7      2.868000
      3 O2         -1.9800   -4.9730    0.6930 o         1 CT7     -0.938000
      4 C16        -1.4770   -2.3680    0.8090 c1        1 CT7     -0.870000
      5 C15        -0.8750   -1.3900    1.5850 c2        1 CT7      0.017000
      6 C17        -1.5880   -2.1930   -0.5620 c1        1 CT7      0.021000
      7 C18        -1.0970   -1.0410   -1.1560 c1        1 CT7     -0.211000
      8 C14        -0.3850   -0.2370    0.9910 c1        1 CT7     -0.203000
      9 C13        -0.4960   -0.0620   -0.3800 c1        1 CT7      0.137000
     10 N5         -0.0760    1.1570   -0.9750 n3        1 CT7     -0.256000
     11 C9          1.3080    1.4380   -1.1170 c2        1 CT7      0.206000
     12 N2          1.7890    2.5060   -0.4250 n2        1 CT7     -0.111000
     13 C10         2.8110    3.2360   -0.9300 c1        1 CT7      0.024000
     14 N1          3.3670    2.8960   -2.1490 n1        1 CT7     -0.099000
     15 C11         2.2320    4.1310    1.0280 c1        1 CT7     -0.119000
     16 N3          1.4260    3.0630    0.7960 n1        1 CT7     -0.105000
     17 C8          1.8570    1.1010   -2.3230 c1        1 CT7     -0.248000
     18 C7          2.8930    1.8400   -2.8340 c1        1 CT7      0.037000
     19 CL1         3.8010    2.1360   -4.2920 cl        1 CT7      0.042000
     20 C12         3.0960    4.2500   -0.0340 c1        1 CT7     -0.208000
     21 C20        -3.7890   -3.6010    2.0740 c2        1 CT7     -0.935000
     22 H15        -0.7970   -1.5130    2.5510 ha        1 CT7      0.159000
     23 H17        -2.0120   -2.8820   -1.1090 ha        1 CT7      0.160000
     24 H18        -1.1760   -0.9180   -2.1220 ha        1 CT7      0.153000
     25 H14         0.0390    0.4510    1.5390 ha        1 CT7      0.148000
     26 HN5        -0.6960    1.7620   -1.2590 hn        1 CT7      0.253000
     27 H11         2.2090    4.7080    1.8160 DU        1 CT7      0.188000
     28 H8          1.5130    0.3350   -2.8200 ha        1 CT7      0.183000
     29 H12         3.7880    4.9300   -0.1370 DU        1 CT7      0.188000
     30 H201       -4.1880   -4.4670    2.3030 ha        1 CT7      0.152000
     31 H202       -3.8140   -3.0120    2.8560 ha        1 CT7      0.152000
     32 H203       -4.2950   -3.1920    1.3400 ha        1 CT7      0.152000
@<TRIPOS>BOND
     1    1    2 1   
     2    2    3 1   
     3    4    5 1   
     4    4    6 1   
     5    5    8 1   
     6    5   22 1   
     7    6   23 1   
     8    7    9 1   
     9    7   24 1   
    10    8   25 1   
    11    9   10 1   
    12   10   11 1   
    13   10   26 1   
    14   11   12 1   
    15   11   17 1   
    16   12   13 1   
    17   14   18 1   
    18   15   16 1   
    19   15   20 1   
    20   17   28 1   
    21   18   19 1   
    22   21   30 1   
    23   21   31 1   
    24   21   32 1   
@<TRIPOS>SUBSTRUCTURE
     1 CT7         1 TEMP              0 ****  ****    0 ROOT
