@<TRIPOS>MOLECULE
CT8
   39    42     1     0     0
SMALL
bcc


@<TRIPOS>ATOM
      1 BR1        -0.1280   -0.9730    0.8200 br        1 CT8      0.016900
      2 C1          1.7070   -0.8020    0.5300 ca        1 CT8     -0.055900
      3 C2          2.5160   -0.2180    1.4930 ca        1 CT8     -0.042000
      4 C3          3.9150   -0.0850    1.2860 cp        1 CT8     -0.251500
      5 C4          4.4710   -0.5830    0.0770 ca        1 CT8      0.016000
      6 C5          3.6500   -1.1600   -0.8840 ca        1 CT8     -0.149000
      7 C6          2.2760   -1.2730   -0.6720 ca        1 CT8      0.038000
      8 C7          4.7530    0.5180    2.2800 cp        1 CT8      0.672800
      9 C8          4.1730    1.3000    3.3660 ca        1 CT8     -0.247300
     10 C9          4.9740    1.8280    4.3680 ca        1 CT8      0.134300
     11 N2          6.3240    1.4740    4.3950 na        1 CT8     -0.255200
     12 N3          7.3610    2.0710    5.0990 na        1 CT8     -0.240500
     13 C12         8.5510    1.6740    4.3560 cc        1 CT8      0.521700
     14 C10         6.8830    0.9020    3.1450 ca        1 CT8      0.781500
     15 N1          6.1190    0.4000    2.1750 nb        1 CT8     -0.618000
     16 N4          4.4070    2.6970    5.4130 n4        1 CT8     -0.670400
     17 C13         4.2010    1.9830    6.7390 c3        1 CT8      0.188100
     18 C14         3.5130    2.8900    7.6950 ca        1 CT8     -0.173300
     19 C15         2.1410    2.7540    7.9350 ca        1 CT8     -0.222300
     20 C16         1.5480    3.5990    8.8970 ca        1 CT8      0.432200
     21 N5          2.2330    4.5300    9.5860 nb        1 CT8     -0.585000
     22 C17         3.5530    4.6490    9.3440 ca        1 CT8      0.432200
     23 C18         4.2410    3.8530    8.4070 ca        1 CT8     -0.222300
     24 N11         8.3080    1.0270    3.2180 nd        1 CT8     -0.528700
     25 H2          2.0590    0.1120    2.4400 ha        1 CT8      0.143000
     26 H4          5.5560   -0.5070   -0.1230 ha        1 CT8      0.185000
     27 H5          4.0900   -1.5360   -1.8260 ha        1 CT8      0.192000
     28 H6          1.6340   -1.7360   -1.4470 ha        1 CT8      0.197000
     29 H8          3.0880    1.5100    3.3400 ha        1 CT8      0.210000
     30 H3          7.3740    1.7900    6.0760 hn        1 CT8      0.309700
     31 H12         9.5600    1.9690    4.7230 h5        1 CT8      0.156800
     32 HA          5.0110    3.5220    5.5650 hn        1 CT8      0.485300
     33 H131        3.5900    1.0560    6.5370 hx        1 CT8      0.113200
     34 H132        5.2170    1.6840    7.1240 hx        1 CT8      0.113200
     35 H15         1.5310    1.9990    7.4200 ha        1 CT8      0.151000
     36 H16         0.4660    3.5210    9.1320 h4        1 CT8      0.068100
     37 H17         4.0850    5.4200    9.9380 h4        1 CT8      0.068100
     38 H18         5.3240    3.9800    8.2720 ha        1 CT8      0.151000
     39 H42         3.4890    3.0440    5.0840 hn        1 CT8      0.485300
@<TRIPOS>BOND
     1    1    2 1   
     2    2    3 ar  
     3    2    7 ar  
     4    3    4 ar  
     5    3   25 1   
     6    4    5 ar  
     7    4    8 1   
     8    5    6 ar  
     9    5   26 1   
    10    6    7 ar  
    11    6   27 1   
    12    7   28 1   
    13    8    9 ar  
    14    8   15 ar  
    15    9   10 ar  
    16    9   29 1   
    17   10   11 1   
    18   10   16 1   
    19   11   12 1   
    20   11   14 2   
    21   12   13 1   
    22   12   30 1   
    23   13   24 2   
    24   13   31 1   
    25   14   15 ar  
    26   14   24 1   
    27   16   17 1   
    28   16   32 1   
    29   16   39 1   
    30   17   18 1   
    31   17   33 1   
    32   17   34 1   
    33   18   19 ar  
    34   18   23 ar  
    35   19   20 ar  
    36   19   35 1   
    37   20   21 ar  
    38   20   36 1   
    39   21   22 ar  
    40   22   23 ar  
    41   22   37 1   
    42   23   38 1   
@<TRIPOS>SUBSTRUCTURE
     1 CT8         1 TEMP              0 ****  ****    0 ROOT
