@<TRIPOS>MOLECULE
CT8
   38    41     1     0     0
SMALL
bcc


@<TRIPOS>ATOM
      1 BR1         0.8950   -1.8600   -0.6340 br        1 CT8     -0.039100
      2 C1          2.4420   -0.8430   -0.3860 ca        1 CT8     -0.039900
      3 C2          2.8780   -0.5470    0.9060 ca        1 CT8     -0.068000
      4 C3          4.0410    0.2180    1.0990 cp        1 CT8     -0.215500
      5 C4          4.7730    0.6660   -0.0120 ca        1 CT8     -0.047000
      6 C5          4.3270    0.3690   -1.2980 ca        1 CT8     -0.133000
      7 C6          3.1680   -0.3810   -1.4910 ca        1 CT8     -0.047000
      8 C7          4.4800    0.5300    2.4620 cp        1 CT8      0.626800
      9 C8          3.5330    0.7100    3.4770 ca        1 CT8     -0.362300
     10 C9          3.9210    0.9950    4.8380 ca        1 CT8      0.236500
     11 N2          5.2820    1.1920    5.0360 na        1 CT8     -0.263200
     12 N3          6.0070    1.3030    6.2110 na        1 CT8     -0.233500
     13 C12         7.3880    1.2700    5.7660 cc        1 CT8      0.479700
     14 C10         6.2240    0.9200    3.9300 ca        1 CT8      0.738500
     15 N1          5.8410    0.6250    2.6970 nb        1 CT8     -0.625000
     16 N4          2.9720    1.0800    5.8130 nh        1 CT8     -0.268200
     17 C13         3.1700    1.3050    7.2240 c3        1 CT8      0.055600
     18 C14         3.5580    2.6990    7.6200 ca        1 CT8     -0.121300
     19 C15         4.4860    2.8800    8.6540 ca        1 CT8     -0.253800
     20 C16         4.7820    4.1920    9.0680 ca        1 CT8      0.415700
     21 N5          4.2290    5.2880    8.5140 nb        1 CT8     -0.629000
     22 C17         3.3360    5.0990    7.5240 ca        1 CT8      0.415700
     23 C18         2.9650    3.8270    7.0440 ca        1 CT8     -0.253800
     24 N11         7.5560    1.0120    4.4750 nd        1 CT8     -0.559700
     25 H2          2.3210   -0.9350    1.7740 ha        1 CT8      0.147000
     26 H4          5.6960    1.2550    0.1200 ha        1 CT8      0.163000
     27 H5          4.8990    0.7260   -2.1710 ha        1 CT8      0.164000
     28 H6          2.8290   -0.6110   -2.5160 ha        1 CT8      0.170000
     29 H8          2.4590    0.6280    3.2450 ha        1 CT8      0.193000
     30 H3          5.7440    2.1190    6.7590 hn        1 CT8      0.307700
     31 H12         8.2050    1.3790    6.5050 h5        1 CT8      0.125800
     32 HA          2.0230    1.0770    5.4910 hn        1 CT8      0.322700
     33 H131        3.9210    0.5600    7.6200 h1        1 CT8      0.099200
     34 H132        2.1790    1.0690    7.7240 h1        1 CT8      0.099200
     35 H15         4.9480    2.0220    9.1630 ha        1 CT8      0.151500
     36 H16         5.4970    4.3780    9.8930 h4        1 CT8      0.047600
     37 H17         2.8870    6.0170    7.0980 h4        1 CT8      0.047600
     38 H18         2.2110    3.7440    6.2500 ha        1 CT8      0.151500
@<TRIPOS>BOND
     1    1    2 1   
     2    2    3 ar  
     3    2    7 ar  
     4    3    4 ar  
     5    3   25 1   
     6    4    5 ar  
     7    4    8 1   
     8    5    6 ar  
     9    5   26 1   
    10    6    7 ar  
    11    6   27 1   
    12    7   28 1   
    13    8    9 ar  
    14    8   15 ar  
    15    9   10 ar  
    16    9   29 1   
    17   10   11 1   
    18   10   16 1   
    19   11   12 1   
    20   11   14 2   
    21   12   13 1   
    22   12   30 1   
    23   13   24 2   
    24   13   31 1   
    25   14   15 ar  
    26   14   24 1   
    27   16   17 1   
    28   16   32 1   
    29   17   18 1   
    30   17   33 1   
    31   17   34 1   
    32   18   19 ar  
    33   18   23 ar  
    34   19   20 ar  
    35   19   35 1   
    36   20   21 ar  
    37   20   36 1   
    38   21   22 ar  
    39   22   23 ar  
    40   22   37 1   
    41   23   38 1   
@<TRIPOS>SUBSTRUCTURE
     1 CT8         1 TEMP              0 ****  ****    0 ROOT
