@<TRIPOS>MOLECULE
CT8
   38    41     1     0     0
SMALL
bcc


@<TRIPOS>ATOM
      1 BR1         4.6350   -2.1520    0.9750 br        1 CT8     -0.039100
      2 C1          4.1110   -0.5170    0.2370 ca        1 CT8     -0.040900
      3 C2          2.7910   -0.0870    0.3680 ca        1 CT8     -0.068000
      4 C3          2.3910    1.1420   -0.1840 cp        1 CT8     -0.216500
      5 C4          3.3300    1.9440   -0.8540 ca        1 CT8     -0.045000
      6 C5          4.6450    1.5030   -0.9840 ca        1 CT8     -0.134000
      7 C6          5.0410    0.2800   -0.4450 ca        1 CT8     -0.046000
      8 C7          0.9980    1.5710   -0.0430 cp        1 CT8      0.626800
      9 C8         -0.0270    0.6220   -0.0220 ca        1 CT8     -0.362300
     10 C9         -1.4140    1.0000    0.1400 ca        1 CT8      0.236500
     11 N2         -1.6320    2.3530    0.3930 na        1 CT8     -0.276200
     12 N3         -2.8210    3.0690    0.3930 na        1 CT8     -0.228500
     13 C12        -2.3820    4.4580    0.3820 cc        1 CT8      0.475700
     14 C10        -0.5140    3.3050    0.2070 ca        1 CT8      0.735500
     15 N1          0.7430    2.9340    0.0350 nb        1 CT8     -0.624000
     16 N4         -2.3870    0.0550    0.1160 nh        1 CT8     -0.263200
     17 C13        -3.8200    0.2790    0.0980 c3        1 CT8      0.071600
     18 C14        -4.5720   -0.9990   -0.1250 ca        1 CT8     -0.112300
     19 C15        -4.6140   -1.9800    0.8720 ca        1 CT8     -0.230300
     20 C16        -5.3640   -3.1470    0.6280 ca        1 CT8      0.411700
     21 N5         -6.0400   -3.3670   -0.5150 nb        1 CT8     -0.626000
     22 C17        -5.9890   -2.4130   -1.4630 ca        1 CT8      0.411700
     23 C18        -5.2660   -1.2130   -1.3190 ca        1 CT8     -0.230300
     24 N11        -1.0770    4.6350    0.2400 nd        1 CT8     -0.554700
     25 H2          2.0670   -0.7030    0.9250 ha        1 CT8      0.146000
     26 H4          3.0380    2.9160   -1.2840 ha        1 CT8      0.164000
     27 H5          5.3810    2.1300   -1.5150 ha        1 CT8      0.164000
     28 H6          6.0870   -0.0530   -0.5530 ha        1 CT8      0.170000
     29 H8          0.2090   -0.4440   -0.1710 ha        1 CT8      0.195000
     30 H3         -3.4040    2.8270    1.1880 hn        1 CT8      0.290700
     31 H12        -3.1360    5.2680    0.4180 h5        1 CT8      0.126800
     32 HA         -2.0830   -0.8980    0.0300 hn        1 CT8      0.329700
     33 H131       -4.1330    0.7100    1.0950 h1        1 CT8      0.074700
     34 H132       -4.0770    1.0130   -0.7200 h1        1 CT8      0.074700
     35 H15        -4.0930   -1.8470    1.8300 ha        1 CT8      0.150000
     36 H16        -5.4290   -3.9470    1.3890 h4        1 CT8      0.045600
     37 H17        -6.5580   -2.6220   -2.3890 h4        1 CT8      0.045600
     38 H18        -5.2620   -0.4700   -2.1290 ha        1 CT8      0.150000
@<TRIPOS>BOND
     1    1    2 1   
     2    2    3 ar  
     3    2    7 ar  
     4    3    4 ar  
     5    3   25 1   
     6    4    5 ar  
     7    4    8 1   
     8    5    6 ar  
     9    5   26 1   
    10    6    7 ar  
    11    6   27 1   
    12    7   28 1   
    13    8    9 ar  
    14    8   15 ar  
    15    9   10 ar  
    16    9   29 1   
    17   10   11 1   
    18   10   16 1   
    19   11   12 1   
    20   11   14 2   
    21   12   13 1   
    22   12   30 1   
    23   13   24 2   
    24   13   31 1   
    25   14   15 ar  
    26   14   24 1   
    27   16   17 1   
    28   16   32 1   
    29   17   18 1   
    30   17   33 1   
    31   17   34 1   
    32   18   19 ar  
    33   18   23 ar  
    34   19   20 ar  
    35   19   35 1   
    36   20   21 ar  
    37   20   36 1   
    38   21   22 ar  
    39   22   23 ar  
    40   22   37 1   
    41   23   38 1   
@<TRIPOS>SUBSTRUCTURE
     1 CT8         1 TEMP              0 ****  ****    0 ROOT
