@<TRIPOS>MOLECULE
CT8
   38    41     1     0     0
SMALL
bcc


@<TRIPOS>ATOM
      1 Br1        -0.1230   -0.2830    0.1040 br        1 CT8     -0.038100
      2 C1          1.7410   -0.1880    0.0100 ca        1 CT8     -0.039900
      3 C2          2.4830    0.0530    1.1670 ca        1 CT8     -0.068000
      4 C3          3.8840    0.1270    1.1030 cp        1 CT8     -0.214500
      5 C4          4.5370   -0.0630   -0.1260 ca        1 CT8     -0.047000
      6 C5          3.7870   -0.2990   -1.2770 ca        1 CT8     -0.133000
      7 C6          2.3960   -0.3610   -1.2160 ca        1 CT8     -0.047000
      8 C7          4.6490    0.3930    2.3240 cp        1 CT8      0.625800
      9 C8          4.1070    1.1970    3.3290 ca        1 CT8     -0.361300
     10 C9          4.8200    1.4680    4.5590 ca        1 CT8      0.237500
     11 N2          6.1260    0.9880    4.6020 na        1 CT8     -0.277200
     12 N3          7.0030    0.8980    5.6750 na        1 CT8     -0.226500
     13 C12         8.0750    0.0510    5.1680 cc        1 CT8      0.475700
     14 C10         6.5900    0.0650    3.5410 ca        1 CT8      0.735500
     15 N1          5.9010   -0.1950    2.4430 nb        1 CT8     -0.623000
     16 N4          4.2400    2.2090    5.5360 nu        1 CT8     -0.264200
     17 C13         4.7520    2.4450    6.8710 c3        1 CT8      0.071600
     18 C14         3.7450    3.1530    7.7280 ca        1 CT8     -0.112300
     19 C15         3.1450    2.4940    8.8050 ca        1 CT8     -0.230300
     20 C16         2.2350    3.2160    9.6030 ca        1 CT8      0.411700
     21 N5          1.9070    4.5020    9.3770 nb        1 CT8     -0.626000
     22 C17         2.4920    5.1200    8.3330 ca        1 CT8      0.411700
     23 C18         3.4160    4.4900    7.4790 ca        1 CT8     -0.230300
     24 N11         7.8610   -0.4710    3.9700 nd        1 CT8     -0.554700
     25 H2          1.9670    0.1620    2.1350 ha        1 CT8      0.147000
     26 H4          5.6360   -0.0240   -0.1930 ha        1 CT8      0.162000
     27 H5          4.2990   -0.4420   -2.2420 ha        1 CT8      0.164000
     28 H6          1.8160   -0.5520   -2.1360 ha        1 CT8      0.170000
     29 H8          3.1050    1.6380    3.2010 ha        1 CT8      0.195000
     30 H3          7.3120    1.8130    5.9850 hn        1 CT8      0.290700
     31 H12         8.9480   -0.1650    5.8130 h5        1 CT8      0.126800
     32 HA          3.3290    2.5800    5.3350 hn        1 CT8      0.329700
     33 H131        5.6770    3.0910    6.7990 h1        1 CT8      0.074700
     34 H132        5.0260    1.4600    7.3510 h1        1 CT8      0.074700
     35 H15         3.3730    1.4450    9.0400 ha        1 CT8      0.150000
     36 H16         1.7410    2.7370   10.4700 h4        1 CT8      0.045600
     37 H17         2.2050    6.1770    8.1770 h4        1 CT8      0.045600
     38 H18         3.8730    5.0480    6.6510 ha        1 CT8      0.150000
@<TRIPOS>BOND
     1    1    2 1   
     2    2    3 ar  
     3    2    7 ar  
     4    3    4 ar  
     5    3   25 1   
     6    4    5 ar  
     7    4    8 1   
     8    5    6 ar  
     9    5   26 1   
    10    6    7 ar  
    11    6   27 1   
    12    7   28 1   
    13    8    9 ar  
    14    8   15 ar  
    15    9   10 ar  
    16    9   29 1   
    17   10   11 1   
    18   10   16 1   
    19   11   12 1   
    20   11   14 2   
    21   12   13 1   
    22   12   30 1   
    23   13   24 2   
    24   13   31 1   
    25   14   15 ar  
    26   14   24 1   
    27   16   17 1   
    28   16   32 1   
    29   17   18 1   
    30   17   33 1   
    31   17   34 1   
    32   18   19 ar  
    33   18   23 ar  
    34   19   20 ar  
    35   19   35 1   
    36   20   21 ar  
    37   20   36 1   
    38   21   22 ar  
    39   22   23 ar  
    40   22   37 1   
    41   23   38 1   
@<TRIPOS>SUBSTRUCTURE
     1 CT8         1 TEMP              0 ****  ****    0 ROOT
