@<TRIPOS>MOLECULE
CT8
   38    29     1     0     0
SMALL
bcc


@<TRIPOS>ATOM
      1 BR1        -2.0800   -3.1020   -5.8740 br        1 CT8      0.108000
      2 C1         -1.5790   -1.4340   -5.0760 c2        1 CT8     -0.182000
      3 C2         -0.8380   -1.4200   -3.8780 c2        1 CT8     -0.035000
      4 C3         -0.4660   -0.2300   -3.3180 c1        1 CT8     -0.107000
      5 C4         -0.8180    0.9650   -3.9260 c1        1 CT8     -0.106000
      6 C5         -1.5540    0.9560   -5.1160 c1        1 CT8     -0.106000
      7 C6         -1.9300   -0.2400   -5.6840 c1        1 CT8     -0.048000
      8 C7          0.1910   -0.2180   -2.1210 c1        1 CT8      0.178500
      9 C8         -0.1970   -0.2010   -0.7980 c1        1 CT8     -0.296000
     10 C9          0.7470   -0.1790    0.1870 c1        1 CT8      0.307000
     11 N2          2.0590   -0.1740   -0.1360 n1        1 CT8     -0.154500
     12 N3          3.1690   -0.1780    0.6160 n1        1 CT8     -0.092500
     13 C12         4.2590   -0.1990   -0.2320 c1        1 CT8      0.019000
     14 C10         2.4390   -0.1920   -1.4470 c1        1 CT8      0.178500
     15 N1          1.4940   -0.2140   -2.4370 n1        1 CT8     -0.154500
     16 N4          0.0650    0.2560    1.3970 n3        1 CT8     -0.280000
     17 C13         0.0690   -0.5870    2.5660 c3        1 CT8      0.005000
     18 C14        -0.5480    0.1350    3.6970 c2        1 CT8     -0.105000
     19 C15         0.2280    0.8420    4.5470 c2        1 CT8     -0.156000
     20 C16        -0.3290    1.4260    5.6700 c1        1 CT8     -0.053000
     21 N5         -1.6690    1.2880    5.9210 n1        1 CT8     -0.100000
     22 C17        -2.4510    0.5790    5.0700 c1        1 CT8     -0.054000
     23 C18        -1.9000   -0.0040    3.9520 c1        1 CT8     -0.174000
     24 N11         3.8020   -0.2070   -1.4900 n1        1 CT8     -0.092500
     25 H2         -0.5910   -2.2530   -3.4530 ha        1 CT8      0.171000
     26 H4         -0.5550    1.7990   -3.5300 ha        1 CT8      0.149000
     27 H5         -1.8030    1.8060   -5.5470 ha        1 CT8      0.149000
     28 H6         -2.4480   -0.2460   -6.5200 ha        1 CT8      0.170000
     29 H8         -1.0960   -0.3260   -0.5780 ha        1 CT8      0.193000
     30 H3          3.2010   -0.1680    1.5710 DU        1 CT8      0.248000
     31 H12         5.2340   -0.0800    0.0460 DU        1 CT8      0.248000
     32 HA         -0.2880    1.1180    1.4470 hn        1 CT8      0.279000
     33 H131       -0.4150   -1.3570    2.3940 h1        1 CT8      0.114000
     34 H132        1.0260   -0.8340    2.8030 h1        1 CT8      0.114000
     35 H15         1.1840    0.9400    4.3680 ha        1 CT8      0.153000
     36 H16         0.2590    1.9590    6.3090 ha        1 CT8      0.183000
     37 H17        -3.4150    0.4820    5.2540 ha        1 CT8      0.182000
     38 H18        -2.4560   -0.5090    3.3450 ha        1 CT8      0.147000
@<TRIPOS>BOND
     1    1    2 1   
     2    2    3 1   
     3    2    7 1   
     4    3    4 1   
     5    3   25 1   
     6    5    6 1   
     7    5   26 1   
     8    6   27 1   
     9    7   28 1   
    10    8   15 1   
    11    9   10 1   
    12    9   29 1   
    13   10   16 1   
    14   11   14 1   
    15   12   13 1   
    16   13   24 1   
    17   16   17 1   
    18   16   32 1   
    19   17   18 1   
    20   17   33 1   
    21   17   34 1   
    22   18   19 1   
    23   18   23 1   
    24   19   20 1   
    25   19   35 1   
    26   20   36 1   
    27   21   22 1   
    28   22   37 1   
    29   23   38 1   
@<TRIPOS>SUBSTRUCTURE
     1 CT8         1 TEMP              0 ****  ****    0 ROOT
