@<TRIPOS>MOLECULE
CT9
   66    59     1     0     0
SMALL
bcc


@<TRIPOS>ATOM
      1 N8         -5.0610   -5.4850   -0.5580 n3        1 CT9     -0.348000
      2 C61         0.3840    6.4540    6.0610 c3        1 CT9     -0.068000
      3 S1          1.0600    3.9170    5.2780 ss        1 CT9      2.851000
      4 N6          1.3660    5.5870    5.4260 n2        1 CT9     -0.834000
      5 C62         2.6500    6.1390    4.9760 c3        1 CT9     -0.068000
      6 O2          0.0980    3.4790    6.2410 o         1 CT9     -0.933000
      7 C4         -4.2100   -5.0420   -1.6280 c3        1 CT9     -0.028000
      8 C5         -2.7750   -5.2790   -1.2380 c3        1 CT9     -0.157500
      9 C6         -1.7920   -4.6710   -2.2340 c3        1 CT9     -0.175500
     10 C3         -4.5030   -3.5610   -1.9160 c3        1 CT9     -0.157500
     11 C2         -3.5280   -2.9600   -2.9070 c3        1 CT9     -0.175500
     12 C1         -2.0830   -3.2000   -2.5160 c3        1 CT9      0.011000
     13 N7         -1.7830   -2.4270   -1.3330 n3        1 CT9     -0.271000
     14 C7         -0.7210   -1.4090   -1.3680 c2        1 CT9      0.161000
     15 C8         -1.0190   -0.2600   -0.7100 c2        1 CT9     -0.280000
     16 N1          0.4610   -1.5350   -1.9970 n1        1 CT9     -0.193000
     17 C10         1.3820   -0.4850   -1.9740 c1        1 CT9      0.065000
     18 C11         2.6280   -0.3510   -2.5150 c1        1 CT9     -0.184000
     19 C20         3.4850   -1.5000   -3.1690 c2        1 CT9     -0.029000
     20 C21         3.9260   -1.0730   -4.5390 c3        1 CT9     -0.205000
     21 C22         4.7160   -1.7750   -2.3030 c3        1 CT9     -0.205000
     22 C12         3.0990    0.8920   -2.1850 c1        1 CT9     -0.105000
     23 N2          1.0910    0.6480   -1.3270 n1        1 CT9     -0.127000
     24 N3          2.1680    1.5060   -1.4610 n1        1 CT9     -0.120000
     25 C9         -0.1060    0.7790   -0.6880 c1        1 CT9      0.212000
     26 N5         -0.6080    2.0550   -0.2000 n3        1 CT9     -0.254000
     27 C13        -0.1970    2.5480    1.1080 c2        1 CT9      0.137000
     28 C18         0.6460    3.6340    1.2030 c2        1 CT9     -0.206000
     29 C17         1.0140    4.1230    2.4530 c1        1 CT9      0.018000
     30 C14        -0.6800    1.9420    2.2610 c1        1 CT9     -0.213000
     31 C15        -0.3150    2.4280    3.5030 c1        1 CT9      0.021000
     32 C16         0.5340    3.5210    3.5980 c1        1 CT9     -0.865000
     33 O3          2.2100    3.1400    5.6590 o         1 CT9     -0.933000
     34 HN81       -5.9030   -5.1920   -0.7010 hn        1 CT9      0.147500
     35 HN82       -5.0570   -6.4280   -0.5220 hn        1 CT9      0.147500
     36 H611        0.3050    7.2930    5.5480 h1        1 CT9      0.083500
     37 H612       -0.4960    5.9960    6.0840 h1        1 CT9      0.083500
     38 H613        0.6720    6.6590    6.9850 h1        1 CT9      0.083500
     39 H621        3.0010    6.7650    5.6610 h1        1 CT9      0.083500
     40 H622        3.2920    5.4100    4.8410 h1        1 CT9      0.083500
     41 H623        2.5190    6.6220    4.1280 h1        1 CT9      0.083500
     42 H4         -4.4080   -5.5620   -2.4250 h1        1 CT9      0.049000
     43 H51        -2.6220   -4.8940   -0.3790 hc        1 CT9      0.086000
     44 H52        -2.6200   -6.2260   -1.1860 hc        1 CT9      0.086000
     45 H61        -1.8420   -5.1680   -3.0690 hc        1 CT9      0.095500
     46 H62        -0.8960   -4.7500   -1.8760 hc        1 CT9      0.095500
     47 H31        -4.4500   -3.0550   -1.0690 hc        1 CT9      0.086000
     48 H32        -5.4000   -3.4820   -2.2720 hc        1 CT9      0.086000
     49 H21        -3.6880   -1.9800   -2.9600 hc        1 CT9      0.095500
     50 H22        -3.6890   -3.3570   -3.7900 hc        1 CT9      0.095500
     51 H1         -1.4970   -2.8950   -3.2560 h1        1 CT9      0.126000
     52 HN7        -2.2210   -2.5980   -0.5560 hn        1 CT9      0.209000
     53 H8         -1.9010   -0.1330   -0.3390 ha        1 CT9      0.169000
     54 H20         2.9610   -2.2900   -3.2360 ha        1 CT9      0.106000
     55 H211        3.1380   -0.7770   -5.0630 hc        1 CT9      0.073500
     56 H212        4.3590   -1.8300   -4.9970 hc        1 CT9      0.073500
     57 H213        4.5590   -0.3360   -4.4600 hc        1 CT9      0.073500
     58 H221        5.2040   -2.5480   -2.6640 hc        1 CT9      0.073500
     59 H222        5.3000   -0.9900   -2.3070 hc        1 CT9      0.073500
     60 H223        4.4370   -1.9650   -1.3900 hc        1 CT9      0.073500
     61 H12         3.9440    1.2680   -2.4590 DU        1 CT9      0.183000
     62 HN5        -1.2140    2.5250   -0.6950 hn        1 CT9      0.248000
     63 H18         0.9850    4.0610    0.3920 ha        1 CT9      0.146000
     64 H17         1.6270    4.9110    2.5210 ha        1 CT9      0.155000
     65 H14        -1.2830    1.1650    2.1940 ha        1 CT9      0.149000
     66 H15        -0.6540    2.0000    4.3150 ha        1 CT9      0.154000
@<TRIPOS>BOND
     1    1    7 1   
     2    1   34 1   
     3    1   35 1   
     4    2    4 1   
     5    2   36 1   
     6    2   37 1   
     7    2   38 1   
     8    3    6 1   
     9    3   33 1   
    10    4    5 1   
    11    5   39 1   
    12    5   40 1   
    13    5   41 1   
    14    7    8 1   
    15    7   10 1   
    16    7   42 1   
    17    8    9 1   
    18    8   43 1   
    19    8   44 1   
    20    9   12 1   
    21    9   45 1   
    22    9   46 1   
    23   10   11 1   
    24   10   47 1   
    25   10   48 1   
    26   11   12 1   
    27   11   49 1   
    28   11   50 1   
    29   12   13 1   
    30   12   51 1   
    31   13   14 1   
    32   13   52 1   
    33   14   15 1   
    34   14   16 1   
    35   15   25 1   
    36   15   53 1   
    37   17   23 1   
    38   18   22 1   
    39   19   20 1   
    40   19   21 1   
    41   19   54 1   
    42   20   55 1   
    43   20   56 1   
    44   20   57 1   
    45   21   58 1   
    46   21   59 1   
    47   21   60 1   
    48   22   24 1   
    49   25   26 1   
    50   26   27 1   
    51   26   62 1   
    52   27   28 1   
    53   27   30 1   
    54   28   29 1   
    55   28   63 1   
    56   29   64 1   
    57   30   65 1   
    58   31   32 1   
    59   31   66 1   
@<TRIPOS>SUBSTRUCTURE
     1 CT9         1 TEMP              0 ****  ****    0 ROOT
