@<TRIPOS>MOLECULE
CT9
   70    73     1     0     0
SMALL
bcc


@<TRIPOS>ATOM
      1 N8          0.9800   -1.5440   -1.2460 n4        1 CT9     -0.837600
      2 C61         6.8910    8.9870    9.4560 c3        1 CT9      0.070600
      3 S1          8.5010    8.3860    7.2510 sy        1 CT9      1.422200
      4 N6          7.9100    9.5740    8.5610 n4        1 CT9     -0.626300
      5 C62         7.4670   10.8680    8.0010 c3        1 CT9      0.070600
      6 O2          8.8570    7.2780    7.9890 o         1 CT9     -0.527300
      7 C4          2.0500   -0.8360   -0.4680 c3        1 CT9      0.114500
      8 C5          1.5600   -0.3710    0.9080 c3        1 CT9     -0.113900
      9 C6          2.7240    0.1860    1.7020 c3        1 CT9     -0.113400
     10 C3          2.6040    0.3840   -1.2130 c3        1 CT9     -0.113900
     11 C2          3.7870    0.9530   -0.4570 c3        1 CT9     -0.113400
     12 C1          3.5140    1.3020    1.0080 c3        1 CT9      0.138500
     13 N7          2.8380    2.6600    1.1750 n4        1 CT9     -0.748700
     14 C7          3.7710    3.7930    1.3990 cc        1 CT9      0.445200
     15 C8          3.4810    4.7120    2.4880 cc        1 CT9     -0.238300
     16 N1          4.7960    3.9370    0.5540 nd        1 CT9     -0.514000
     17 C10         5.6110    5.0070    0.7230 cd        1 CT9      0.316500
     18 C11         6.7420    5.4950    0.0110 cc        1 CT9     -0.044800
     19 C20         7.4170    4.8990   -1.1590 c3        1 CT9     -0.028500
     20 C21         7.3520    5.8490   -2.3470 c3        1 CT9     -0.101100
     21 C22         8.8640    4.5690   -0.8270 c3        1 CT9     -0.101100
     22 C12         7.0990    6.7270    0.6890 cc        1 CT9      0.427500
     23 N2          5.3960    6.0030    1.8100 na        1 CT9      0.007200
     24 N3          6.2760    7.0000    1.7380 nd        1 CT9     -0.515100
     25 C9          4.3010    5.8240    2.6480 cd        1 CT9      0.126300
     26 N5          3.9880    6.8620    3.6640 n4        1 CT9     -0.523800
     27 C13         5.0940    7.2460    4.5670 ca        1 CT9      0.032600
     28 C18         5.7730    8.4560    4.3480 ca        1 CT9     -0.104500
     29 C17         6.7830    8.8380    5.2360 ca        1 CT9      0.020000
     30 C14         5.4110    6.4390    5.6740 ca        1 CT9     -0.104500
     31 C15         6.4200    6.8500    6.5450 ca        1 CT9      0.020000
     32 C16         7.1300    8.0440    6.3370 ca        1 CT9     -0.384500
     33 O3          9.3700    9.1620    6.5160 o         1 CT9     -0.527300
     34 HN81        1.3570   -1.8580   -2.1510 hn        1 CT9      0.478800
     35 HN82        0.1800   -0.9250   -1.4210 hn        1 CT9      0.478800
     36 H611        6.6480    9.6940   10.2990 hx        1 CT9      0.114033
     37 H612        5.9520    8.7900    8.8760 hx        1 CT9      0.114033
     38 H613        7.2940    8.0330    9.9000 hx        1 CT9      0.114033
     39 H621        8.2970   11.3080    7.3780 hx        1 CT9      0.114033
     40 H622        6.5460   10.7110    7.3800 hx        1 CT9      0.114033
     41 H623        7.2210   11.5960    8.8260 hx        1 CT9      0.114033
     42 H4          2.8830   -1.5970   -0.3290 hx        1 CT9      0.133700
     43 H51         1.1210   -1.2300    1.4890 hc        1 CT9      0.089450
     44 H52         0.7540    0.4010    0.7910 hc        1 CT9      0.089450
     45 H61         3.4680   -0.6430    1.8950 hc        1 CT9      0.113950
     46 H62         2.3530    0.5080    2.7130 hc        1 CT9      0.113950
     47 H31         1.8010    1.1580   -1.3370 hc        1 CT9      0.089450
     48 H32         2.9550    0.0980   -2.2440 hc        1 CT9      0.089450
     49 H21         4.6200    0.1910   -0.4450 hc        1 CT9      0.113950
     50 H22         4.1850    1.8380   -1.0250 hc        1 CT9      0.113950
     51 H1          4.5140    1.3920    1.5400 hx        1 CT9      0.133700
     52 HN7         2.2900    2.8650    0.3260 hn        1 CT9      0.466300
     53 H8          2.6220    4.5350    3.1540 ha        1 CT9      0.187000
     54 H20         6.8860    3.9430   -1.4380 hc        1 CT9      0.074700
     55 H211        6.2940    6.0680   -2.6260 hc        1 CT9      0.066033
     56 H212        7.8740    6.8090   -2.1170 hc        1 CT9      0.066033
     57 H213        7.8610    5.3750   -3.2230 hc        1 CT9      0.066033
     58 H221        8.9240    3.8420    0.0170 hc        1 CT9      0.066033
     59 H222        9.4300    5.4920   -0.5550 hc        1 CT9      0.066033
     60 H223        9.3510    4.1120   -1.7260 hc        1 CT9      0.066033
     61 H12         7.9290    7.4000    0.4190 h4        1 CT9      0.122800
     62 HN5         3.6770    7.7120    3.1550 hn        1 CT9      0.492800
     63 H18         5.5470    9.1130    3.4860 ha        1 CT9      0.188500
     64 H17         7.3350    9.7800    5.0320 ha        1 CT9      0.206000
     65 H14         4.8880    5.4880    5.8750 ha        1 CT9      0.188500
     66 H15         6.6780    6.1950    7.4050 ha        1 CT9      0.206000
     67 H83         0.6520   -2.3670   -0.7210 hn        1 CT9      0.478800
     68 H614        8.7280    9.7840    9.1560 hn        1 CT9      0.481800
     69 H72         2.1980    2.6160    1.9780 hn        1 CT9      0.466300
     70 H521        3.2040    6.5170    4.2430 hn        1 CT9      0.492800
@<TRIPOS>BOND
     1    1    7 1   
     2    1   34 1   
     3    1   35 1   
     4    1   67 1   
     5    2    4 1   
     6    2   36 1   
     7    2   37 1   
     8    2   38 1   
     9    3    4 1   
    10    3    6 2   
    11    3   32 1   
    12    3   33 2   
    13    4    5 1   
    14    4   68 1   
    15    5   39 1   
    16    5   40 1   
    17    5   41 1   
    18    7    8 1   
    19    7   10 1   
    20    7   42 1   
    21    8    9 1   
    22    8   43 1   
    23    8   44 1   
    24    9   12 1   
    25    9   45 1   
    26    9   46 1   
    27   10   11 1   
    28   10   47 1   
    29   10   48 1   
    30   11   12 1   
    31   11   49 1   
    32   11   50 1   
    33   12   13 1   
    34   12   51 1   
    35   13   14 1   
    36   13   52 1   
    37   13   69 1   
    38   14   15 1   
    39   14   16 2   
    40   15   25 2   
    41   15   53 1   
    42   16   17 1   
    43   17   18 2   
    44   17   23 1   
    45   18   19 1   
    46   18   22 1   
    47   19   20 1   
    48   19   21 1   
    49   19   54 1   
    50   20   55 1   
    51   20   56 1   
    52   20   57 1   
    53   21   58 1   
    54   21   59 1   
    55   21   60 1   
    56   22   24 2   
    57   22   61 1   
    58   23   24 1   
    59   23   25 1   
    60   25   26 1   
    61   26   27 1   
    62   26   62 1   
    63   26   70 1   
    64   27   28 ar  
    65   27   30 ar  
    66   28   29 ar  
    67   28   63 1   
    68   29   32 ar  
    69   29   64 1   
    70   30   31 ar  
    71   30   65 1   
    72   31   32 ar  
    73   31   66 1   
@<TRIPOS>SUBSTRUCTURE
     1 CT9         1 TEMP              0 ****  ****    0 ROOT
