@<TRIPOS>MOLECULE
CT9
   66    69     1     0     0
SMALL
bcc


@<TRIPOS>ATOM
      1 N8         -4.2680    0.0370   -5.9580 n3        1 CT9     -0.915800
      2 C61        -4.1750   -1.6700    4.7500 c3        1 CT9      0.208100
      3 S1         -1.6800   -1.2380    5.6370 sy        1 CT9      1.512200
      4 N6         -3.2620   -0.8650    5.5020 n3        1 CT9     -0.814500
      5 C62        -3.8230    0.3090    6.0990 c3        1 CT9      0.208100
      6 O2         -1.5080   -2.6310    5.4690 o         1 CT9     -0.653800
      7 C4         -2.9490   -0.5660   -5.8380 c3        1 CT9      0.169500
      8 C5         -2.9480   -1.7110   -4.8120 c3        1 CT9     -0.078900
      9 C6         -1.5750   -2.3320   -4.6950 c3        1 CT9     -0.095900
     10 C3         -1.8880    0.4740   -5.4440 c3        1 CT9     -0.078900
     11 C2         -0.5220   -0.1640   -5.3410 c3        1 CT9     -0.095900
     12 C1         -0.4850   -1.3130   -4.3200 c3        1 CT9      0.206500
     13 N7         -0.6160   -0.8980   -2.9330 nh        1 CT9     -0.825900
     14 C7          0.4210   -0.2260   -2.2760 cc        1 CT9      0.681200
     15 C8          0.0880    0.3690   -0.9820 cc        1 CT9     -0.345300
     16 N1          1.6710   -0.2010   -2.7790 nd        1 CT9     -0.718000
     17 C10         2.6410    0.3780   -2.0060 cd        1 CT9      0.416500
     18 C11         4.0290    0.5840   -2.2280 cc        1 CT9     -0.274800
     19 C20         4.8160    0.1940   -3.4100 c3        1 CT9      0.014500
     20 C21         5.4160    1.4130   -4.0890 c3        1 CT9     -0.087100
     21 C22         5.9130   -0.7870   -3.0310 c3        1 CT9     -0.087100
     22 C12         4.4970    1.2590   -1.0440 cc        1 CT9      0.398500
     23 N2          2.3900    0.9400   -0.6890 na        1 CT9     -0.010800
     24 N3          3.5020    1.4680   -0.1440 nd        1 CT9     -0.587100
     25 C9          1.0760    0.9390   -0.1900 cd        1 CT9      0.269300
     26 N5          0.7820    1.5620    1.0440 nh        1 CT9     -0.622000
     27 C13         0.2440    0.8430    2.1200 ca        1 CT9      0.216600
     28 C18         0.1170    1.4980    3.3720 ca        1 CT9     -0.209000
     29 C17        -0.4860    0.8500    4.4380 ca        1 CT9      0.019000
     30 C14        -0.2270   -0.4850    2.0060 ca        1 CT9     -0.209000
     31 C15        -0.8240   -1.1080    3.0920 ca        1 CT9      0.019000
     32 C16        -0.9780   -0.4570    4.3210 ca        1 CT9     -0.419500
     33 O3         -1.1600   -0.6660    6.8200 o         1 CT9     -0.653800
     34 HN81       -4.2480    0.7810   -6.6260 hn        1 CT9      0.351300
     35 HN82       -4.9370   -0.6500   -6.2430 hn        1 CT9      0.351300
     36 H611       -5.0510   -1.9690    5.3880 h1        1 CT9      0.044033
     37 H612       -4.5670   -1.1050    3.8610 h1        1 CT9      0.044033
     38 H613       -3.6590   -2.6030    4.3950 h1        1 CT9      0.044033
     39 H621       -3.0480    0.8250    6.7290 h1        1 CT9      0.044033
     40 H622       -4.1890    1.0210    5.3100 h1        1 CT9      0.044033
     41 H623       -4.6930    0.0370    6.7560 h1        1 CT9      0.044033
     42 H4         -2.6160   -1.0140   -6.8290 h1        1 CT9      0.009700
     43 H51        -3.6790   -2.5010   -5.1300 hc        1 CT9      0.046950
     44 H52        -3.2910   -1.3270   -3.8160 hc        1 CT9      0.046950
     45 H61        -1.2790   -2.7810   -5.6800 hc        1 CT9      0.056200
     46 H62        -1.6040   -3.1610   -3.9420 hc        1 CT9      0.056200
     47 H31        -1.8550    1.2890   -6.2140 hc        1 CT9      0.046950
     48 H32        -2.1700    0.9500   -4.4690 hc        1 CT9      0.046950
     49 H21         0.2360    0.6150   -5.0700 hc        1 CT9      0.056200
     50 H22        -0.2260   -0.5870   -6.3370 hc        1 CT9      0.056200
     51 H1          0.5150   -1.8340   -4.4210 h1        1 CT9      0.086700
     52 HN7        -1.5240   -0.5490   -2.7020 hn        1 CT9      0.413800
     53 H8         -0.9540    0.3640   -0.6310 ha        1 CT9      0.168000
     54 H20         4.1290   -0.3160   -4.1470 hc        1 CT9      0.066700
     55 H211        6.0040    1.1000   -4.9850 hc        1 CT9      0.034200
     56 H212        4.6100    2.1120   -4.4160 hc        1 CT9      0.034200
     57 H213        6.0950    1.9570   -3.3900 hc        1 CT9      0.034200
     58 H221        6.6120   -0.3260   -2.2920 hc        1 CT9      0.034200
     59 H222        5.4720   -1.7060   -2.5780 hc        1 CT9      0.034200
     60 H223        6.4950   -1.0770   -3.9380 hc        1 CT9      0.034200
     61 H12         5.5210    1.5830   -0.8420 h4        1 CT9      0.053800
     62 HN5         1.3960    2.3100    1.3080 hn        1 CT9      0.452800
     63 H18         0.4970    2.5230    3.5060 ha        1 CT9      0.149500
     64 H17        -0.5660    1.3680    5.4120 ha        1 CT9      0.154500
     65 H14        -0.1110   -1.0410    1.0620 ha        1 CT9      0.149500
     66 H15        -1.1690   -2.1540    2.9920 ha        1 CT9      0.154500
@<TRIPOS>BOND
     1    1    7 1   
     2    1   34 1   
     3    1   35 1   
     4    2    4 1   
     5    2   36 1   
     6    2   37 1   
     7    2   38 1   
     8    3    4 1   
     9    3    6 2   
    10    3   32 1   
    11    3   33 2   
    12    4    5 1   
    13    5   39 1   
    14    5   40 1   
    15    5   41 1   
    16    7    8 1   
    17    7   10 1   
    18    7   42 1   
    19    8    9 1   
    20    8   43 1   
    21    8   44 1   
    22    9   12 1   
    23    9   45 1   
    24    9   46 1   
    25   10   11 1   
    26   10   47 1   
    27   10   48 1   
    28   11   12 1   
    29   11   49 1   
    30   11   50 1   
    31   12   13 1   
    32   12   51 1   
    33   13   14 1   
    34   13   52 1   
    35   14   15 1   
    36   14   16 2   
    37   15   25 2   
    38   15   53 1   
    39   16   17 1   
    40   17   18 2   
    41   17   23 1   
    42   18   19 1   
    43   18   22 1   
    44   19   20 1   
    45   19   21 1   
    46   19   54 1   
    47   20   55 1   
    48   20   56 1   
    49   20   57 1   
    50   21   58 1   
    51   21   59 1   
    52   21   60 1   
    53   22   24 2   
    54   22   61 1   
    55   23   24 1   
    56   23   25 1   
    57   25   26 1   
    58   26   27 1   
    59   26   62 1   
    60   27   28 ar  
    61   27   30 ar  
    62   28   29 ar  
    63   28   63 1   
    64   29   32 ar  
    65   29   64 1   
    66   30   31 ar  
    67   30   65 1   
    68   31   32 ar  
    69   31   66 1   
@<TRIPOS>SUBSTRUCTURE
     1 CT9         1 TEMP              0 ****  ****    0 ROOT
