@<TRIPOS>MOLECULE
CT9
   68    70     1     0     0
SMALL
bcc


@<TRIPOS>ATOM
      1 N8          0.0460   -0.5420   -0.6020 n4        1 CT9     -0.842600
      2 C61         7.1870    8.0160    9.0660 c3        1 CT9      0.097600
      3 S1          7.9330    9.8590    6.6190 s4        1 CT9      1.668300
      4 N6          7.1300    9.4330    8.7370 n3        1 CT9     -0.914200
      5 C62         5.8100   10.0140    8.9330 c3        1 CT9      0.097600
      6 O2          9.1410    9.2810    6.8740 o         1 CT9     -0.442900
      7 C4          1.4840   -0.2710   -0.2430 c3        1 CT9      0.113500
      8 C5          1.6830   -0.2140    1.2740 c3        1 CT9     -0.101400
      9 C6          3.1590   -0.0550    1.5770 c3        1 CT9     -0.100400
     10 C3          1.9850    1.0320   -0.8740 c3        1 CT9     -0.101400
     11 C2          3.4630    1.1880   -0.5820 c3        1 CT9     -0.100400
     12 C1          3.7940    1.1830    0.9200 c3        1 CT9      0.200500
     13 N7          3.4600    2.3950    1.6440 nh        1 CT9     -0.834900
     14 C7          4.2680    3.5460    1.5210 cc        1 CT9      0.648200
     15 C8          3.8970    4.6830    2.3650 cc        1 CT9     -0.292300
     16 N1          5.3470    3.5600    0.7260 nd        1 CT9     -0.681000
     17 C10         6.1410    4.6780    0.7530 cd        1 CT9      0.383500
     18 C11         7.3330    5.0170    0.0680 cc        1 CT9     -0.215800
     19 C20         8.0920    4.1940   -0.8920 c3        1 CT9      0.003500
     20 C21         8.1580    4.8740   -2.2500 c3        1 CT9     -0.091100
     21 C22         9.4930    3.9160   -0.3760 c3        1 CT9     -0.091100
     22 C12         7.6530    6.3520    0.5200 cc        1 CT9      0.406500
     23 N2          5.8360    5.8470    1.5720 na        1 CT9     -0.009800
     24 N3          6.7470    6.8210    1.4160 nd        1 CT9     -0.575100
     25 C9          4.6880    5.8210    2.3760 cd        1 CT9      0.234300
     26 N5          4.3220    6.9610    3.1450 nh        1 CT9     -0.612000
     27 C13         5.1920    7.6220    3.9790 ca        1 CT9      0.325600
     28 C18         4.8870    8.9560    4.4020 ca        1 CT9     -0.210000
     29 C17         5.7290    9.6270    5.2520 ca        1 CT9      0.063500
     30 C14         6.3650    7.0080    4.5130 ca        1 CT9     -0.210000
     31 C15         7.1890    7.7030    5.3630 ca        1 CT9      0.063500
     32 C16         6.9250    9.0450    5.7560 ca        1 CT9     -0.652500
     33 O3          7.7190   11.2010    6.7240 o         1 CT9     -0.442900
     34 HN81       -0.5530    0.2090   -0.2500 hn        1 CT9      0.460800
     35 HN82       -0.0520   -0.5950   -1.6210 hn        1 CT9      0.460800
     36 H611        8.2360    7.6470    8.9000 h1        1 CT9      0.074700
     37 H612        6.9020    7.8190   10.1350 h1        1 CT9      0.074700
     38 H613        6.4800    7.4500    8.4040 h1        1 CT9      0.074700
     39 H621        5.4600    9.9200    9.9970 h1        1 CT9      0.074700
     40 H622        5.0690    9.4910    8.2730 h1        1 CT9      0.074700
     41 H623        5.8500   11.1050    8.6640 h1        1 CT9      0.074700
     42 H4          2.0780   -1.1410   -0.6650 hx        1 CT9      0.118700
     43 H51         1.3130   -1.1580    1.7560 hc        1 CT9      0.067200
     44 H52         1.1060    0.6440    1.7080 hc        1 CT9      0.067200
     45 H61         3.2950   -0.0170    2.6910 hc        1 CT9      0.085700
     46 H62         3.7180   -0.9540    1.2030 hc        1 CT9      0.085700
     47 H31         1.4160    1.9050   -0.4580 hc        1 CT9      0.067200
     48 H32         1.8320    1.0180   -1.9860 hc        1 CT9      0.067200
     49 H21         3.8260    2.1370   -1.0580 hc        1 CT9      0.085700
     50 H22         4.0310    0.3450   -1.0590 hc        1 CT9      0.085700
     51 H1          4.9190    1.0470    1.0070 h1        1 CT9      0.113700
     52 HN7         2.4850    2.6070    1.6740 hn        1 CT9      0.401800
     53 H8          3.0030    4.6220    3.0010 ha        1 CT9      0.173000
     54 H20         7.5610    3.2060   -1.0180 hc        1 CT9      0.064700
     55 H211        8.7280    4.2340   -2.9650 hc        1 CT9      0.043367
     56 H212        7.1320    5.0380   -2.6560 hc        1 CT9      0.043367
     57 H213        8.6720    5.8620   -2.1700 hc        1 CT9      0.043367
     58 H221       10.0500    3.2880   -1.1130 hc        1 CT9      0.043367
     59 H222       10.0540    4.8700   -0.2270 hc        1 CT9      0.043367
     60 H223        9.4510    3.3710    0.5980 hc        1 CT9      0.043367
     61 H12         8.5100    6.9560    0.2040 h4        1 CT9      0.073800
     62 HN5         3.5460    7.4780    2.7770 hn        1 CT9      0.467800
     63 H18         3.9790    9.4600    4.0290 ha        1 CT9      0.173500
     64 H17         5.4860   10.6690    5.5410 ha        1 CT9      0.170500
     65 H14         6.6230    5.9730    4.2340 ha        1 CT9      0.173500
     66 H15         8.1040    7.2120    5.7480 ha        1 CT9      0.170500
     67 H83        -0.2530   -1.4290   -0.1850 hn        1 CT9      0.460800
     68 H614        7.7920    9.9280    9.3240 hn        1 CT9      0.411800
@<TRIPOS>BOND
     1    1    7 1   
     2    1   34 1   
     3    1   35 1   
     4    1   67 1   
     5    2    4 1   
     6    2   36 1   
     7    2   37 1   
     8    2   38 1   
     9    3    6 1   
    10    3   32 1   
    11    3   33 1   
    12    4    5 1   
    13    4   68 1   
    14    5   39 1   
    15    5   40 1   
    16    5   41 1   
    17    7    8 1   
    18    7   10 1   
    19    7   42 1   
    20    8    9 1   
    21    8   43 1   
    22    8   44 1   
    23    9   12 1   
    24    9   45 1   
    25    9   46 1   
    26   10   11 1   
    27   10   47 1   
    28   10   48 1   
    29   11   12 1   
    30   11   49 1   
    31   11   50 1   
    32   12   13 1   
    33   12   51 1   
    34   13   14 1   
    35   13   52 1   
    36   14   15 1   
    37   14   16 2   
    38   15   25 2   
    39   15   53 1   
    40   16   17 1   
    41   17   18 2   
    42   17   23 1   
    43   18   19 1   
    44   18   22 1   
    45   19   20 1   
    46   19   21 1   
    47   19   54 1   
    48   20   55 1   
    49   20   56 1   
    50   20   57 1   
    51   21   58 1   
    52   21   59 1   
    53   21   60 1   
    54   22   24 2   
    55   22   61 1   
    56   23   24 1   
    57   23   25 1   
    58   25   26 1   
    59   26   27 1   
    60   26   62 1   
    61   27   28 ar  
    62   27   30 ar  
    63   28   29 ar  
    64   28   63 1   
    65   29   32 ar  
    66   29   64 1   
    67   30   31 ar  
    68   30   65 1   
    69   31   32 ar  
    70   31   66 1   
@<TRIPOS>SUBSTRUCTURE
     1 CT9         1 TEMP              0 ****  ****    0 ROOT
