@<TRIPOS>MOLECULE
CT9
   68    70     1     0     0
SMALL
bcc


@<TRIPOS>ATOM
      1 N8          0.0460   -0.5400   -0.6060 nz        1 CT9     -0.842600
      2 C61         7.1830    8.0090    9.0670 c3        1 CT9      0.097600
      3 S1          7.9350    9.8540    6.6230 s4        1 CT9      1.668300
      4 N6          7.1330    9.4260    8.7410 n7        1 CT9     -0.914200
      5 C62         5.8160   10.0140    8.9400 c3        1 CT9      0.097600
      6 O2          9.1430    9.2750    6.8770 o         1 CT9     -0.442900
      7 C4          1.4840   -0.2690   -0.2470 c3        1 CT9      0.113500
      8 C5          1.6830   -0.2130    1.2710 c3        1 CT9     -0.101400
      9 C6          3.1580   -0.0550    1.5730 c3        1 CT9     -0.100400
     10 C3          1.9840    1.0340   -0.8760 c3        1 CT9     -0.101400
     11 C2          3.4620    1.1900   -0.5840 c3        1 CT9     -0.100400
     12 C1          3.7930    1.1840    0.9170 c3        1 CT9      0.200500
     13 N7          3.4590    2.3950    1.6430 nu        1 CT9     -0.834900
     14 C7          4.2680    3.5460    1.5200 cc        1 CT9      0.648200
     15 C8          3.8960    4.6830    2.3660 cc        1 CT9     -0.292300
     16 N1          5.3460    3.5610    0.7250 nd        1 CT9     -0.681000
     17 C10         6.1390    4.6790    0.7530 cd        1 CT9      0.383500
     18 C11         7.3310    5.0190    0.0680 cc        1 CT9     -0.215800
     19 C20         8.0900    4.1980   -0.8940 c3        1 CT9      0.003500
     20 C21         8.1550    4.8790   -2.2510 c3        1 CT9     -0.091100
     21 C22         9.4920    3.9190   -0.3790 c3        1 CT9     -0.091100
     22 C12         7.6510    6.3530    0.5210 cc        1 CT9      0.406500
     23 N2          5.8350    5.8470    1.5730 na        1 CT9     -0.009800
     24 N3          6.7460    6.8220    1.4180 nd        1 CT9     -0.575100
     25 C9          4.6880    5.8210    2.3780 cd        1 CT9      0.234300
     26 N5          4.3220    6.9600    3.1480 nu        1 CT9     -0.612000
     27 C13         5.1920    7.6200    3.9830 ca        1 CT9      0.325600
     28 C18         4.8880    8.9530    4.4070 ca        1 CT9     -0.210000
     29 C17         5.7310    9.6240    5.2560 ca        1 CT9      0.063500
     30 C14         6.3650    7.0050    4.5160 ca        1 CT9     -0.210000
     31 C15         7.1900    7.6990    5.3650 ca        1 CT9      0.063500
     32 C16         6.9270    9.0410    5.7600 ca        1 CT9     -0.652500
     33 O3          7.7210   11.1960    6.7290 o         1 CT9     -0.442900
     34 HN81       -0.2540   -1.4280   -0.1890 hn        1 CT9      0.460800
     35 HN82       -0.0530   -0.5930   -1.6240 hn        1 CT9      0.460800
     36 H611        6.8970    7.8100   10.1350 h1        1 CT9      0.074700
     37 H612        8.2300    7.6350    8.9000 h1        1 CT9      0.074700
     38 H613        6.4730    7.4480    8.4030 h1        1 CT9      0.074700
     39 H621        5.8620   11.1050    8.6720 h1        1 CT9      0.074700
     40 H622        5.0720    9.4950    8.2800 h1        1 CT9      0.074700
     41 H623        5.4680    9.9200   10.0040 h1        1 CT9      0.074700
     42 H4          2.0770   -1.1380   -0.6690 hx        1 CT9      0.118700
     43 H51         1.3130   -1.1580    1.7520 hc        1 CT9      0.067200
     44 H52         1.1050    0.6440    1.7060 hc        1 CT9      0.067200
     45 H61         3.7170   -0.9540    1.1990 hc        1 CT9      0.085700
     46 H62         3.2950   -0.0180    2.6880 hc        1 CT9      0.085700
     47 H31         1.8310    1.0210   -1.9880 hc        1 CT9      0.067200
     48 H32         1.4150    1.9070   -0.4590 hc        1 CT9      0.067200
     49 H21         4.0300    0.3470   -1.0620 hc        1 CT9      0.085700
     50 H22         3.8250    2.1400   -1.0600 hc        1 CT9      0.085700
     51 H1          4.9180    1.0480    1.0040 h1        1 CT9      0.113700
     52 HN7         2.4850    2.6070    1.6740 hn        1 CT9      0.401800
     53 H8          3.0020    4.6210    3.0020 ha        1 CT9      0.173000
     54 H20         7.5590    3.2100   -1.0200 hc        1 CT9      0.064700
     55 H211        7.1290    5.0430   -2.6570 hc        1 CT9      0.043367
     56 H212        8.7250    4.2390   -2.9670 hc        1 CT9      0.043367
     57 H213        8.6690    5.8670   -2.1700 hc        1 CT9      0.043367
     58 H221       10.0520    4.8730   -0.2300 hc        1 CT9      0.043367
     59 H222        9.4500    3.3730    0.5940 hc        1 CT9      0.043367
     60 H223       10.0480    3.2920   -1.1170 hc        1 CT9      0.043367
     61 H12         8.5080    6.9580    0.2050 h4        1 CT9      0.073800
     62 HN5         3.5460    7.4770    2.7810 hn        1 CT9      0.467800
     63 H18         3.9800    9.4580    4.0340 ha        1 CT9      0.173500
     64 H17         5.4880   10.6660    5.5470 ha        1 CT9      0.170500
     65 H14         6.6240    5.9700    4.2350 ha        1 CT9      0.173500
     66 H15         8.1050    7.2070    5.7500 ha        1 CT9      0.170500
     67 H83        -0.5540    0.2110   -0.2520 hn        1 CT9      0.460800
     68 H614        7.7980    9.9160    9.3280 hn        1 CT9      0.411800
@<TRIPOS>BOND
     1    1    7 1   
     2    1   34 1   
     3    1   35 1   
     4    1   67 1   
     5    2    4 1   
     6    2   36 1   
     7    2   37 1   
     8    2   38 1   
     9    3    6 1   
    10    3   32 1   
    11    3   33 1   
    12    4    5 1   
    13    4   68 1   
    14    5   39 1   
    15    5   40 1   
    16    5   41 1   
    17    7    8 1   
    18    7   10 1   
    19    7   42 1   
    20    8    9 1   
    21    8   43 1   
    22    8   44 1   
    23    9   12 1   
    24    9   45 1   
    25    9   46 1   
    26   10   11 1   
    27   10   47 1   
    28   10   48 1   
    29   11   12 1   
    30   11   49 1   
    31   11   50 1   
    32   12   13 1   
    33   12   51 1   
    34   13   14 1   
    35   13   52 1   
    36   14   15 1   
    37   14   16 2   
    38   15   25 2   
    39   15   53 1   
    40   16   17 1   
    41   17   18 2   
    42   17   23 1   
    43   18   19 1   
    44   18   22 1   
    45   19   20 1   
    46   19   21 1   
    47   19   54 1   
    48   20   55 1   
    49   20   56 1   
    50   20   57 1   
    51   21   58 1   
    52   21   59 1   
    53   21   60 1   
    54   22   24 2   
    55   22   61 1   
    56   23   24 1   
    57   23   25 1   
    58   25   26 1   
    59   26   27 1   
    60   26   62 1   
    61   27   28 ar  
    62   27   30 ar  
    63   28   29 ar  
    64   28   63 1   
    65   29   32 ar  
    66   29   64 1   
    67   30   31 ar  
    68   30   65 1   
    69   31   32 ar  
    70   31   66 1   
@<TRIPOS>SUBSTRUCTURE
     1 CT9         1 TEMP              0 ****  ****    0 ROOT
