@<TRIPOS>MOLECULE
CTC
   58    61     1     0     0
SMALL
bcc


@<TRIPOS>ATOM
      1 C1         -0.0900   -0.2290    0.1170 c         1 CTC      0.591300
      2 O1         -0.7530   -0.2580   -0.9210 o         1 CTC     -0.503100
      3 C2          1.3890   -0.2720    0.1030 ce        1 CTC     -0.389400
      4 C2'         2.1190   -0.1310   -1.1560 c         1 CTC      0.578300
      5 O2'         3.3300    0.0540   -1.2810 o         1 CTC     -0.462100
      6 N2'         1.3730   -0.2380   -2.4500 nz        1 CTC     -0.729400
      7 C3          2.0840   -0.4000    1.2840 c2        1 CTC      0.282900
      8 O3          3.4150   -0.2930    1.4510 oh        1 CTC     -0.487100
      9 C4          1.4500   -0.8340    2.6080 c3        1 CTC      0.166700
     10 N4          1.9420   -0.0030    3.7750 nx        1 CTC     -0.675400
     11 C4'         1.3570    1.3610    3.8540 c3        1 CTC      0.081600
     12 C4D         1.7400   -0.7310    5.0610 c3        1 CTC      0.081600
     13 C4A        -0.0780   -1.0020    2.5210 c3        1 CTC     -0.076700
     14 C5         -0.3930   -2.4500    2.1560 c3        1 CTC     -0.085400
     15 C5A        -1.8900   -2.7470    2.1420 c3        1 CTC      0.005500
     16 C6         -2.1690   -4.0420    1.3260 c3        1 CTC      0.221100
     17 O6         -1.3750   -3.9420    0.1440 oh        1 CTC     -0.627800
     18 C6'        -1.6910   -5.2150    2.1920 c3        1 CTC     -0.138100
     19 C6A        -3.6340   -4.2260    0.9770 ca        1 CTC     -0.028300
     20 C7         -4.0960   -5.3980    0.3650 ca        1 CTC     -0.037600
     21 Cl7        -3.0620   -6.5930   -0.2800 cl        1 CTC     -0.074400
     22 C8         -5.4730   -5.6500    0.2120 ca        1 CTC     -0.031000
     23 C9         -6.4060   -4.7200    0.6270 ca        1 CTC     -0.206000
     24 C10        -5.9590   -3.4920    1.1520 ca        1 CTC      0.209100
     25 O10        -6.8220   -2.5060    1.5290 oh        1 CTC     -0.449100
     26 C6B        -4.5770   -3.2230    1.2910 ca        1 CTC     -0.202600
     27 C11        -4.1760   -1.8630    1.6580 c         1 CTC      0.601900
     28 O11        -4.9800   -0.9450    1.8790 o         1 CTC     -0.513100
     29 C5B        -2.7190   -1.5980    1.7010 ce        1 CTC     -0.238400
     30 C12        -2.2140   -0.3730    1.4400 c2        1 CTC      0.102900
     31 O12        -2.9060    0.7540    1.1010 oh        1 CTC     -0.517100
     32 C4B        -0.7320   -0.0600    1.4970 c3        1 CTC      0.147000
     33 O4B        -0.4760    1.2710    1.9190 oh        1 CTC     -0.624800
     34 HN21        0.8650   -1.1340   -2.4870 hn        1 CTC      0.491800
     35 HN22        0.6650    0.5120   -2.5090 hn        1 CTC      0.491800
     36 HO3         3.9090   -0.0580    0.6360 ho        1 CTC      0.515000
     37 H4          1.8950   -1.8740    2.7900 hx        1 CTC      0.141700
     38 H4'1        1.5100    1.8910    2.8750 hx        1 CTC      0.116867
     39 H4'2        0.2540    1.2990    4.0650 hx        1 CTC      0.116867
     40 H4'3        1.8690    1.9260    4.6810 hx        1 CTC      0.116867
     41 H4A1        0.6440   -0.8720    5.2570 hx        1 CTC      0.116867
     42 H4A2        2.1860   -0.1180    5.8930 hx        1 CTC      0.116867
     43 H4A3        2.2520   -1.7300    5.0180 hx        1 CTC      0.116867
     44 H4A        -0.5500   -0.7730    3.5200 hc        1 CTC      0.110700
     45 H51         0.0520   -2.6770    1.1490 hc        1 CTC      0.073700
     46 H52         0.0940   -3.1320    2.9040 hc        1 CTC      0.073700
     47 H5A        -2.2110   -2.9740    3.2050 hc        1 CTC      0.086700
     48 HO6        -1.5620   -4.7240   -0.3950 ho        1 CTC      0.434000
     49 H6'1       -2.3410   -5.3140    3.0940 hc        1 CTC      0.061367
     50 H6'2       -1.7230   -6.1770    1.6260 hc        1 CTC      0.061367
     51 H6'3       -0.6360   -5.0480    2.5120 hc        1 CTC      0.061367
     52 H8         -5.8080   -6.6000   -0.2420 ha        1 CTC      0.176000
     53 H9         -7.4840   -4.9230    0.5340 ha        1 CTC      0.170000
     54 HO1        -7.7330   -2.8110    1.3750 ho        1 CTC      0.444000
     55 HO2        -3.8690    0.5860    1.1220 ho        1 CTC      0.498000
     56 HO4        -1.2110    1.8460    1.6420 ho        1 CTC      0.480000
     57 H2'3        2.0270   -0.1670   -3.2430 hn        1 CTC      0.491800
     58 H41         2.9630    0.1070    3.6400 hn        1 CTC      0.466800
@<TRIPOS>BOND
     1    1    2 2   
     2    1    3 1   
     3    1   32 1   
     4    3    4 1   
     5    3    7 2   
     6    4    5 2   
     7    4    6 1   
     8    6   34 1   
     9    6   35 1   
    10    6   57 1   
    11    7    8 1   
    12    7    9 1   
    13    8   36 1   
    14    9   10 1   
    15    9   13 1   
    16    9   37 1   
    17   10   11 1   
    18   10   12 1   
    19   10   58 1   
    20   11   38 1   
    21   11   39 1   
    22   11   40 1   
    23   12   41 1   
    24   12   42 1   
    25   12   43 1   
    26   13   14 1   
    27   13   32 1   
    28   13   44 1   
    29   14   15 1   
    30   14   45 1   
    31   14   46 1   
    32   15   16 1   
    33   15   29 1   
    34   15   47 1   
    35   16   17 1   
    36   16   18 1   
    37   16   19 1   
    38   17   48 1   
    39   18   49 1   
    40   18   50 1   
    41   18   51 1   
    42   19   20 ar  
    43   19   26 ar  
    44   20   21 1   
    45   20   22 ar  
    46   22   23 ar  
    47   22   52 1   
    48   23   24 ar  
    49   23   53 1   
    50   24   25 1   
    51   24   26 ar  
    52   25   54 1   
    53   26   27 1   
    54   27   28 2   
    55   27   29 1   
    56   29   30 2   
    57   30   31 1   
    58   30   32 1   
    59   31   55 1   
    60   32   33 1   
    61   33   56 1   
@<TRIPOS>SUBSTRUCTURE
     1 CTC         1 TEMP              0 ****  ****    0 ROOT
