@<TRIPOS>MOLECULE
CTC
   58    61     1     0     0
SMALL
bcc


@<TRIPOS>ATOM
      1 C1          1.3770   -0.1380    0.0620 c         1 CTC      0.591300
      2 O1          1.9630   -0.8660   -0.7420 o         1 CTC     -0.503100
      3 C2          2.0950    0.5740    1.1420 ce        1 CTC     -0.389400
      4 C2'         3.5560    0.6080    1.1590 c         1 CTC      0.578300
      5 O2'         4.2620    1.3240    1.8690 o         1 CTC     -0.462100
      6 N2'         4.3200   -0.3150    0.2600 n4        1 CTC     -0.729400
      7 C3          1.3860    1.2460    2.1120 c2        1 CTC      0.282900
      8 O3          1.8880    2.0660    3.0540 oh        1 CTC     -0.487100
      9 C4         -0.1110    1.0530    2.3660 c3        1 CTC      0.166700
     10 N4         -0.8250    2.3690    2.5970 n4        1 CTC     -0.675400
     11 C4'        -1.0590    3.1710    1.3680 c3        1 CTC      0.081600
     12 C4D        -2.1060    2.1510    3.3290 c3        1 CTC      0.081600
     13 C4A        -0.7820    0.1140    1.3470 c3        1 CTC     -0.076700
     14 C5         -0.7360   -1.3120    1.8890 c3        1 CTC     -0.085400
     15 C5A        -1.4670   -2.3110    0.9960 c3        1 CTC      0.005500
     16 C6         -0.9960   -3.7590    1.3180 c3        1 CTC      0.221100
     17 O6          0.4260   -3.6950    1.4290 oh        1 CTC     -0.627800
     18 C6'        -1.6200   -4.1300    2.6690 c3        1 CTC     -0.138100
     19 C6A        -1.4100   -4.7710    0.2660 ca        1 CTC     -0.028300
     20 C7         -1.1940   -6.1430    0.4510 ca        1 CTC     -0.037600
     21 CL7        -0.2340   -6.7840    1.7070 cl        1 CTC     -0.074400
     22 C8         -1.7430   -7.0940   -0.4310 ca        1 CTC     -0.031000
     23 C9         -2.4750   -6.6910   -1.5300 ca        1 CTC     -0.206000
     24 C10        -2.6160   -5.3140   -1.7890 ca        1 CTC      0.209100
     25 O10        -3.2770   -4.8450   -2.8850 oh        1 CTC     -0.449100
     26 C6B        -2.0530   -4.3510   -0.9190 ca        1 CTC     -0.202600
     27 C11        -2.0670   -2.9500   -1.3440 c         1 CTC      0.601900
     28 O11        -2.5680   -2.5600   -2.4080 o         1 CTC     -0.513100
     29 C5B        -1.3830   -1.9860   -0.4500 ce        1 CTC     -0.238400
     30 C12        -0.8090   -0.8610   -0.9280 c2        1 CTC      0.102900
     31 O12        -0.7510   -0.4470   -2.2280 oh        1 CTC     -0.517100
     32 C4B        -0.1220    0.1580   -0.0400 c3        1 CTC      0.147000
     33 O4B        -0.2560    1.4820   -0.5330 oh        1 CTC     -0.624800
     34 HN21        5.3320   -0.2070    0.4190 hn        1 CTC      0.491800
     35 HN22        4.0340   -1.2890    0.4350 hn        1 CTC      0.491800
     36 HO3         2.8560    2.2110    2.9920 ho        1 CTC      0.515000
     37 H4         -0.1450    0.5270    3.3850 hx        1 CTC      0.141700
     38 H4'1       -1.7780    2.6360    0.6880 hx        1 CTC      0.116867
     39 H4'2       -1.4890    4.1670    1.6640 hx        1 CTC      0.116867
     40 H4'3       -0.0860    3.3170    0.8260 hx        1 CTC      0.116867
     41 H4A1       -1.9070    1.6120    4.2940 hx        1 CTC      0.116867
     42 H4A2       -2.8150    1.5530    2.6970 hx        1 CTC      0.116867
     43 H4A3       -2.5670    3.1540    3.5500 hx        1 CTC      0.116867
     44 H4A        -1.8620    0.4080    1.2030 hc        1 CTC      0.110700
     45 H51        -1.2140   -1.3350    2.9060 hc        1 CTC      0.073700
     46 H52         0.3370   -1.6210    2.0110 hc        1 CTC      0.073700
     47 H5A        -2.5680   -2.2760    1.2600 hc        1 CTC      0.086700
     48 HO6         0.7420   -4.5950    1.5940 ho        1 CTC      0.434000
     49 H6'1       -2.7280   -4.2180    2.5670 hc        1 CTC      0.061367
     50 H6'2       -1.3790   -3.3490    3.4290 hc        1 CTC      0.061367
     51 H6'3       -1.2210   -5.1010    3.0480 hc        1 CTC      0.061367
     52 H8         -1.5850   -8.1710   -0.2390 ha        1 CTC      0.176000
     53 H9         -2.9280   -7.4310   -2.2080 ha        1 CTC      0.170000
     54 HO1        -3.6050   -5.6020   -3.4000 ho        1 CTC      0.444000
     55 HO2        -1.2460   -1.0610   -2.8070 ho        1 CTC      0.498000
     56 HO4        -0.3180    1.4620   -1.5040 ho        1 CTC      0.480000
     57 H2'3        4.0940   -0.1080   -0.7270 hn        1 CTC      0.491800
     58 H41        -0.2080    2.9260    3.2160 hn        1 CTC      0.466800
@<TRIPOS>BOND
     1    1    2 2   
     2    1    3 1   
     3    1   32 1   
     4    3    4 1   
     5    3    7 2   
     6    4    5 2   
     7    4    6 1   
     8    6   34 1   
     9    6   35 1   
    10    6   57 1   
    11    7    8 1   
    12    7    9 1   
    13    8   36 1   
    14    9   10 1   
    15    9   13 1   
    16    9   37 1   
    17   10   11 1   
    18   10   12 1   
    19   10   58 1   
    20   11   38 1   
    21   11   39 1   
    22   11   40 1   
    23   12   41 1   
    24   12   42 1   
    25   12   43 1   
    26   13   14 1   
    27   13   32 1   
    28   13   44 1   
    29   14   15 1   
    30   14   45 1   
    31   14   46 1   
    32   15   16 1   
    33   15   29 1   
    34   15   47 1   
    35   16   17 1   
    36   16   18 1   
    37   16   19 1   
    38   17   48 1   
    39   18   49 1   
    40   18   50 1   
    41   18   51 1   
    42   19   20 ar  
    43   19   26 ar  
    44   20   21 1   
    45   20   22 ar  
    46   22   23 ar  
    47   22   52 1   
    48   23   24 ar  
    49   23   53 1   
    50   24   25 1   
    51   24   26 ar  
    52   25   54 1   
    53   26   27 1   
    54   27   28 2   
    55   27   29 1   
    56   29   30 2   
    57   30   31 1   
    58   30   32 1   
    59   31   55 1   
    60   32   33 1   
    61   33   56 1   
@<TRIPOS>SUBSTRUCTURE
     1 CTC         1 TEMP              0 ****  ****    0 ROOT
