@<TRIPOS>MOLECULE
CTC
   58    61     1     0     0
SMALL
bcc


@<TRIPOS>ATOM
      1 C1         -0.1360   -0.1780    0.1340 c         1 CTC      0.591300
      2 O1         -0.8090   -0.2020   -0.8980 o         1 CTC     -0.503100
      3 C2          1.3430   -0.2040    0.1060 ce        1 CTC     -0.389400
      4 C2'         2.0590   -0.0400   -1.1570 c         1 CTC      0.578300
      5 O2'         3.2670    0.1600   -1.2910 o         1 CTC     -0.462100
      6 N2'         1.3040   -0.1400   -2.4460 n4        1 CTC     -0.729400
      7 C3          2.0500   -0.3380    1.2790 c2        1 CTC      0.282900
      8 O3          3.3810   -0.2170    1.4360 oh        1 CTC     -0.487100
      9 C4          1.4330   -0.7940    2.6040 c3        1 CTC      0.166700
     10 N4          1.9260    0.0290    3.7760 n4        1 CTC     -0.675400
     11 C4'         1.3260    1.3850    3.8760 c3        1 CTC      0.081600
     12 C4D         1.7440   -0.7160    5.0550 c3        1 CTC      0.081600
     13 C4A        -0.0930   -0.9790    2.5280 c3        1 CTC     -0.076700
     14 C5         -0.3950   -2.4260    2.1490 c3        1 CTC     -0.085400
     15 C5A        -1.8890   -2.7400    2.1450 c3        1 CTC      0.005500
     16 C6         -2.1600   -4.0290    1.3150 c3        1 CTC      0.221100
     17 O6         -1.3780   -3.9050    0.1280 oh        1 CTC     -0.627800
     18 C6'        -1.6610   -5.2070    2.1620 c3        1 CTC     -0.138100
     19 C6A        -3.6260   -4.2260    0.9780 ca        1 CTC     -0.028300
     20 C7         -4.0800   -5.3960    0.3550 ca        1 CTC     -0.037600
     21 CL7        -3.0380   -6.5700   -0.3140 cl        1 CTC     -0.074400
     22 C8         -5.4550   -5.6610    0.2120 ca        1 CTC     -0.031000
     23 C9         -6.3950   -4.7480    0.6460 ca        1 CTC     -0.206000
     24 C10        -5.9580   -3.5210    1.1820 ca        1 CTC      0.209100
     25 O10        -6.8280   -2.5500    1.5780 oh        1 CTC     -0.449100
     26 C6B        -4.5780   -3.2380    1.3120 ca        1 CTC     -0.202600
     27 C11        -4.1890   -1.8780    1.6920 c         1 CTC      0.601900
     28 O11        -5.0010   -0.9720    1.9300 o         1 CTC     -0.513100
     29 C5B        -2.7350   -1.5960    1.7250 ce        1 CTC     -0.238400
     30 C12        -2.2470   -0.3620    1.4740 c2        1 CTC      0.102900
     31 O12        -2.9540    0.7610    1.1550 oh        1 CTC     -0.517100
     32 C4B        -0.7680   -0.0330    1.5220 c3        1 CTC      0.147000
     33 O4B        -0.5230    1.2960    1.9570 oh        1 CTC     -0.624800
     34 HN21        0.8050   -1.0420   -2.4890 hn        1 CTC      0.491800
     35 HN22        0.5870    0.6020   -2.4890 hn        1 CTC      0.491800
     36 HO3         3.8650    0.0330    0.6190 ho        1 CTC      0.515000
     37 H4          1.8920   -1.8310    2.7700 hx        1 CTC      0.141700
     38 H4'1        1.4640    1.9280    2.9020 hx        1 CTC      0.116867
     39 H4'2        0.2260    1.3080    4.0960 hx        1 CTC      0.116867
     40 H4'3        1.8390    1.9460    4.7050 hx        1 CTC      0.116867
     41 H4A1        0.6510   -0.8730    5.2600 hx        1 CTC      0.116867
     42 H4A2        2.1910   -0.1090    5.8900 hx        1 CTC      0.116867
     43 H4A3        2.2670   -1.7080    4.9960 hx        1 CTC      0.116867
     44 H4A        -0.5590   -0.7670    3.5340 hc        1 CTC      0.110700
     45 H51         0.1060   -3.1110    2.8850 hc        1 CTC      0.073700
     46 H52         0.0440   -2.6360    1.1360 hc        1 CTC      0.073700
     47 H5A        -2.1970   -2.9840    3.2080 hc        1 CTC      0.086700
     48 HO6        -1.5610   -4.6820   -0.4200 ho        1 CTC      0.434000
     49 H6'1       -0.6040   -5.0310    2.4750 hc        1 CTC      0.061367
     50 H6'2       -2.3000   -5.3240    3.0690 hc        1 CTC      0.061367
     51 H6'3       -1.6860   -6.1610    1.5850 hc        1 CTC      0.061367
     52 H8         -5.7830   -6.6100   -0.2510 ha        1 CTC      0.176000
     53 H9         -7.4720   -4.9630    0.5610 ha        1 CTC      0.170000
     54 HO1        -7.7370   -2.8640    1.4280 ho        1 CTC      0.444000
     55 HO2        -3.9160    0.5820    1.1830 ho        1 CTC      0.498000
     56 HO4        -1.2670    1.8650    1.6940 ho        1 CTC      0.480000
     57 H2'3        1.9490   -0.0520   -3.2440 hn        1 CTC      0.491800
     58 H41         2.9440    0.1520    3.6340 hn        1 CTC      0.466800
@<TRIPOS>BOND
     1    1    2 2   
     2    1    3 1   
     3    1   32 1   
     4    3    4 1   
     5    3    7 2   
     6    4    5 2   
     7    4    6 1   
     8    6   34 1   
     9    6   35 1   
    10    6   57 1   
    11    7    8 1   
    12    7    9 1   
    13    8   36 1   
    14    9   10 1   
    15    9   13 1   
    16    9   37 1   
    17   10   11 1   
    18   10   12 1   
    19   10   58 1   
    20   11   38 1   
    21   11   39 1   
    22   11   40 1   
    23   12   41 1   
    24   12   42 1   
    25   12   43 1   
    26   13   14 1   
    27   13   32 1   
    28   13   44 1   
    29   14   15 1   
    30   14   45 1   
    31   14   46 1   
    32   15   16 1   
    33   15   29 1   
    34   15   47 1   
    35   16   17 1   
    36   16   18 1   
    37   16   19 1   
    38   17   48 1   
    39   18   49 1   
    40   18   50 1   
    41   18   51 1   
    42   19   20 ar  
    43   19   26 ar  
    44   20   21 1   
    45   20   22 ar  
    46   22   23 ar  
    47   22   52 1   
    48   23   24 ar  
    49   23   53 1   
    50   24   25 1   
    51   24   26 ar  
    52   25   54 1   
    53   26   27 1   
    54   27   28 2   
    55   27   29 1   
    56   29   30 2   
    57   30   31 1   
    58   30   32 1   
    59   31   55 1   
    60   32   33 1   
    61   33   56 1   
@<TRIPOS>SUBSTRUCTURE
     1 CTC         1 TEMP              0 ****  ****    0 ROOT
