@<TRIPOS>MOLECULE
CTC
   56    59     1     0     0
SMALL
bcc


@<TRIPOS>ATOM
      1 C1         21.5060   35.9620   34.9030 c         1 CTC      0.624300
      2 O1         21.1680   36.0460   33.7150 o         1 CTC     -0.542100
      3 C2         20.6190   35.5470   35.9780 ce        1 CTC     -0.331400
      4 C2'        19.2370   35.1040   35.6190 c         1 CTC      0.685300
      5 O2'        18.7430   34.0590   36.0860 o         1 CTC     -0.597100
      6 N2'        18.4980   35.9190   34.7890 n         1 CTC     -0.644000
      7 C3         21.0360   35.4900   37.2740 c2        1 CTC      0.234900
      8 O3         20.1380   35.1090   38.2220 oh        1 CTC     -0.452100
      9 C4         22.4130   35.9020   37.7640 c3        1 CTC      0.189700
     10 N4         23.1090   34.7640   38.3540 n3        1 CTC     -0.758600
     11 C4'        23.3620   33.6360   37.4870 c3        1 CTC      0.158100
     12 C4D        24.2540   35.1320   39.1540 c3        1 CTC      0.158100
     13 C4A        23.1590   36.7460   36.7100 c3        1 CTC     -0.104700
     14 C5         22.7030   38.1960   36.8130 c3        1 CTC     -0.075400
     15 C5A        23.5800   39.1250   35.9800 c3        1 CTC      0.014500
     16 C6         22.9900   40.5660   35.9600 c3        1 CTC      0.213100
     17 O6         21.5870   40.4000   36.1490 oh        1 CTC     -0.597800
     18 C6'        23.6040   41.3040   37.1590 c3        1 CTC     -0.133100
     19 C6A        23.2530   41.3680   34.6940 ca        1 CTC     -0.005300
     20 C7         22.7250   42.6580   34.5400 ca        1 CTC     -0.041600
     21 CL7        21.7000   43.4190   35.6810 cl        1 CTC     -0.101400
     22 C8         23.0010   43.4360   33.4010 ca        1 CTC     -0.063000
     23 C9         23.8050   42.9440   32.3960 ca        1 CTC     -0.169000
     24 C10        24.3380   41.6420   32.5180 ca        1 CTC      0.208100
     25 O10        25.1140   41.2720   31.4600 oh        1 CTC     -0.497100
     26 C6B        24.0510   40.8490   33.6490 ca        1 CTC     -0.233600
     27 C11        24.5520   39.4650   33.7120 c         1 CTC      0.614900
     28 O11        25.5260   39.0790   33.0450 o         1 CTC     -0.548100
     29 C5B        23.8390   38.5660   34.6300 ce        1 CTC     -0.241400
     30 C12        23.5460   37.2860   34.3040 c2        1 CTC      0.119900
     31 O12        23.8470   36.8170   33.0540 oh        1 CTC     -0.477100
     32 C4B        22.9720   36.2620   35.2690 c3        1 CTC      0.072000
     33 O4B        23.6480   35.0250   35.0420 oh        1 CTC     -0.580800
     34 HN21       18.9670   36.5910   34.2300 hn        1 CTC      0.309000
     35 HN22       17.6350   35.5670   34.4500 hn        1 CTC      0.309000
     36 HO3        20.6070   34.9140   39.0510 ho        1 CTC      0.447000
     37 H4         22.2170   36.6040   38.6430 h1        1 CTC      0.077700
     38 H4'1       23.4310   32.7200   38.1320 h1        1 CTC      0.042867
     39 H4'2       22.5190   33.5110   36.7570 h1        1 CTC      0.042867
     40 H4'3       24.3190   33.7360   36.9040 h1        1 CTC      0.042867
     41 H4A1       24.5780   34.2250   39.7300 h1        1 CTC      0.042867
     42 H4A2       25.1280   35.4940   38.5460 h1        1 CTC      0.042867
     43 H4A3       23.9660   35.9360   39.8800 h1        1 CTC      0.042867
     44 H4A        24.2630   36.6990   36.9380 hc        1 CTC      0.069700
     45 H51        21.6340   38.2590   36.4730 hc        1 CTC      0.071700
     46 H52        22.7390   38.5410   37.8800 hc        1 CTC      0.071700
     47 H5A        24.5890   39.1970   36.4890 hc        1 CTC      0.059700
     48 HO6        21.1890   41.2800   36.2100 ho        1 CTC      0.417000
     49 H6'1       23.1080   42.2870   37.3280 hc        1 CTC      0.052700
     50 H6'2       23.4720   40.6860   38.0800 hc        1 CTC      0.052700
     51 H6'3       24.6920   41.4760   36.9840 hc        1 CTC      0.052700
     52 H8         22.5710   44.4480   33.3140 ha        1 CTC      0.155000
     53 H9         24.0400   43.5370   31.5000 ha        1 CTC      0.164000
     54 HO1        25.4340   40.3600   31.5570 ho        1 CTC      0.464000
     55 HO2        23.3020   36.0240   32.8920 ho        1 CTC      0.452000
     56 HO4        24.5970   35.2070   35.0740 ho        1 CTC      0.422000
@<TRIPOS>BOND
     1    1    2 2   
     2    1    3 1   
     3    1   32 1   
     4    3    4 1   
     5    3    7 2   
     6    4    5 2   
     7    4    6 1   
     8    6   34 1   
     9    6   35 1   
    10    7    8 1   
    11    7    9 1   
    12    8   36 1   
    13    9   10 1   
    14    9   13 1   
    15    9   37 1   
    16   10   11 1   
    17   10   12 1   
    18   11   38 1   
    19   11   39 1   
    20   11   40 1   
    21   12   41 1   
    22   12   42 1   
    23   12   43 1   
    24   13   14 1   
    25   13   32 1   
    26   13   44 1   
    27   14   15 1   
    28   14   45 1   
    29   14   46 1   
    30   15   16 1   
    31   15   29 1   
    32   15   47 1   
    33   16   17 1   
    34   16   18 1   
    35   16   19 1   
    36   17   48 1   
    37   18   49 1   
    38   18   50 1   
    39   18   51 1   
    40   19   20 ar  
    41   19   26 ar  
    42   20   21 1   
    43   20   22 ar  
    44   22   23 ar  
    45   22   52 1   
    46   23   24 ar  
    47   23   53 1   
    48   24   25 1   
    49   24   26 ar  
    50   25   54 1   
    51   26   27 1   
    52   27   28 2   
    53   27   29 1   
    54   29   30 2   
    55   30   31 1   
    56   30   32 1   
    57   31   55 1   
    58   32   33 1   
    59   33   56 1   
@<TRIPOS>SUBSTRUCTURE
     1 CTC         1 TEMP              0 ****  ****    0 ROOT
