@<TRIPOS>MOLECULE
CTD
   31    31     1     0     0
SMALL
bcc


@<TRIPOS>ATOM
      1 N1          0.3270   -0.8860    0.2490 n         1 CTD     -0.253000
      2 C2          1.7860   -0.8950    0.2780 c2        1 CTD      0.357000
      3 C3          2.5200   -0.8110    1.6010 c2        1 CTD     -0.356000
      4 C4          1.7610   -0.7400    2.8590 c1        1 CTD      0.171000
      5 C5          0.2950   -0.7300    2.8280 c1        1 CTD     -0.282000
      6 C6         -0.4330   -0.8120    1.5060 c2        1 CTD      0.045000
      7 O2          2.4170   -0.9540   -0.7680 o         1 CTD     -0.405000
      8 N4          2.4470   -0.7510    4.1030 n3        1 CTD     -0.352000
      9 C1'        -0.3700   -1.1590   -0.9970 c3        1 CTD      0.110000
     10 C2'        -1.7830   -0.4840   -0.9880 c3        1 CTD      0.028000
     11 O2'        -2.7280   -1.3620   -1.4260 oh        1 CTD     -0.310000
     12 C3'        -1.6790    0.6920   -1.9370 c3        1 CTD     -0.016000
     13 C4'        -0.3870    0.8220   -2.1760 c3        1 CTD     -0.006000
     14 O4'         0.2510   -0.6250   -1.9800 os        1 CTD     -0.277000
     15 O3'        -2.4080    0.3990   -3.2010 oh        1 CTD     -0.331000
     16 C5'         0.2330    1.8030   -1.1970 c3        1 CTD     -0.046000
     17 O5'         0.1140    3.1480   -1.7210 oh        1 CTD     -0.341000
     18 H3          3.4880   -0.8180    1.6190 ha        1 CTD      0.160000
     19 H5         -0.2190   -0.6810    3.6750 ha        1 CTD      0.150000
     20 H6         -1.4060   -0.8060    1.4850 h4        1 CTD      0.155000
     21 HN41        2.6680    0.0390    4.5100 hn        1 CTD      0.211000
     22 HN42        2.6910   -1.5430    4.4820 hn        1 CTD      0.211000
     23 H1'        -0.4560   -2.1170   -1.1330 h2        1 CTD      0.130000
     24 H2'        -2.0010   -0.1750   -0.0950 h1        1 CTD      0.159000
     25 HO2'       -3.4700   -1.2710   -0.9370 ho        1 CTD      0.222000
     26 H3'        -2.0360    1.5110   -1.5120 h1        1 CTD      0.132000
     27 H4'        -0.2450    1.1320   -3.0990 h1        1 CTD      0.121000
     28 HO3'       -2.9880    1.0440   -3.3610 ho        1 CTD      0.224000
     29 H5'1       -0.2310    1.7450   -0.3380 h1        1 CTD      0.091500
     30 H5'2        1.1910    1.5820   -1.0710 h1        1 CTD      0.091500
     31 HO5'        0.6510    3.7010   -1.2550 ho        1 CTD      0.208000
@<TRIPOS>BOND
     1    1    2 1   
     2    1    6 1   
     3    1    9 1   
     4    2    3 1   
     5    2    7 1   
     6    3    4 1   
     7    3   18 1   
     8    4    8 1   
     9    5    6 1   
    10    5   19 1   
    11    6   20 1   
    12    8   21 1   
    13    8   22 1   
    14    9   10 1   
    15    9   14 1   
    16    9   23 1   
    17   10   11 1   
    18   10   12 1   
    19   10   24 1   
    20   11   25 1   
    21   12   13 1   
    22   12   15 1   
    23   12   26 1   
    24   13   14 1   
    25   13   16 1   
    26   13   27 1   
    27   15   28 1   
    28   16   17 1   
    29   16   29 1   
    30   16   30 1   
    31   17   31 1   
@<TRIPOS>SUBSTRUCTURE
     1 CTD         1 TEMP              0 ****  ****    0 ROOT
