@<TRIPOS>MOLECULE
CTD
   32    33     1     0     0
SMALL
bcc


@<TRIPOS>ATOM
      1 N1         -0.0740    0.0010   -0.2310 n         1 CTD     -0.336000
      2 C2          1.2560   -0.4740   -0.0490 c         1 CTD      0.690700
      3 C3          1.8410   -0.3120    1.2930 cc        1 CTD     -0.227200
      4 C4          1.1290    0.3080    2.2790 cd        1 CTD      0.063000
      5 C5         -0.1890    0.8070    2.0440 cd        1 CTD     -0.319000
      6 C6         -0.7300    0.6380    0.7830 cc        1 CTD      0.099600
      7 O2          1.8790   -0.9960   -0.9840 o         1 CTD     -0.550500
      8 N4          1.7030    0.4930    3.6170 nz        1 CTD     -0.716400
      9 C1'        -0.6700   -0.1250   -1.5720 c3        1 CTD      0.250500
     10 C2'        -1.5110   -1.4260   -1.7790 c3        1 CTD      0.087100
     11 O2'        -0.8950   -2.2830   -2.7010 oh        1 CTD     -0.562800
     12 C3'        -2.8910   -0.9340   -2.2760 c3        1 CTD      0.088100
     13 C4'        -2.8560    0.5960   -2.1560 c3        1 CTD      0.086100
     14 O4'        -1.5110    0.9980   -1.8390 os        1 CTD     -0.410600
     15 O3'        -3.0530   -1.2440   -3.6460 oh        1 CTD     -0.584800
     16 C5'        -3.8130    1.1260   -1.0860 c3        1 CTD      0.111400
     17 O5'        -3.2520    2.2070   -0.3710 oh        1 CTD     -0.604800
     18 H3          2.8620   -0.7120    1.3990 ha        1 CTD      0.188000
     19 H5         -0.7700    1.3220    2.8190 ha        1 CTD      0.175000
     20 H6         -1.7420    1.0460    0.5440 h4        1 CTD      0.227000
     21 HN41        2.6480    0.0950    3.6620 hn        1 CTD      0.469133
     22 HN42        1.1030    0.0280    4.3090 hn        1 CTD      0.469133
     23 H1'         0.1840   -0.0750   -2.3180 h2        1 CTD      0.134700
     24 H2'        -1.6040   -2.0360   -0.8410 h1        1 CTD      0.101700
     25 HO2'       -0.8720   -1.8390   -3.5640 ho        1 CTD      0.430000
     26 H3'        -3.7210   -1.3840   -1.6700 h1        1 CTD      0.073700
     27 H4'        -3.0690    1.0790   -3.1530 h1        1 CTD      0.115700
     28 HO3'       -3.2050   -2.1980   -3.7080 ho        1 CTD      0.431000
     29 H5'1       -4.0300    0.3550   -0.2980 h1        1 CTD      0.064200
     30 H5'2       -4.7750    1.4360   -1.5750 h1        1 CTD      0.064200
     31 HO5'       -2.9740    2.8730   -1.0140 ho        1 CTD      0.424000
     32 H43         1.7440    1.4970    3.8300 hn        1 CTD      0.469133
@<TRIPOS>BOND
     1    1    2 1   
     2    1    6 1   
     3    1    9 1   
     4    2    3 1   
     5    2    7 2   
     6    3    4 2   
     7    3   18 1   
     8    4    5 1   
     9    4    8 1   
    10    5    6 2   
    11    5   19 1   
    12    6   20 1   
    13    8   21 1   
    14    8   22 1   
    15    8   32 1   
    16    9   10 1   
    17    9   14 1   
    18    9   23 1   
    19   10   11 1   
    20   10   12 1   
    21   10   24 1   
    22   11   25 1   
    23   12   13 1   
    24   12   15 1   
    25   12   26 1   
    26   13   14 1   
    27   13   16 1   
    28   13   27 1   
    29   15   28 1   
    30   16   17 1   
    31   16   29 1   
    32   16   30 1   
    33   17   31 1   
@<TRIPOS>SUBSTRUCTURE
     1 CTD         1 TEMP              0 ****  ****    0 ROOT
