@<TRIPOS>MOLECULE
CTD
   31    32     1     0     0
SMALL
bcc


@<TRIPOS>ATOM
      1 N1         -0.2710   -0.2190    0.7820 n         1 CTD     -0.371000
      2 C2         -0.4620   -1.1080    1.8830 c         1 CTD      0.720700
      3 C3          0.1070   -0.7140    3.1580 cc        1 CTD     -0.365200
      4 C4          0.8090    0.4640    3.3190 cd        1 CTD      0.244000
      5 C5          0.9930    1.3150    2.1590 cd        1 CTD     -0.273000
      6 C6          0.4590    0.9370    0.9590 cc        1 CTD      0.031600
      7 O2         -1.1070   -2.1600    1.7040 o         1 CTD     -0.640500
      8 N4          1.2840    0.8800    4.5500 nh        1 CTD     -0.839600
      9 C1'        -0.7600   -0.5910   -0.5350 c3        1 CTD      0.286500
     10 C2'        -1.5490    0.5420   -1.2580 c3        1 CTD      0.073100
     11 O2'        -2.7820   -0.0290   -1.6520 oh        1 CTD     -0.582800
     12 C3'        -0.7040    0.9160   -2.4980 c3        1 CTD      0.087100
     13 C4'         0.4650   -0.0820   -2.5140 c3        1 CTD      0.057100
     14 O4'         0.3310   -0.9680   -1.3970 os        1 CTD     -0.422600
     15 O3'        -1.4780    0.8600   -3.6730 oh        1 CTD     -0.585800
     16 C5'         1.8300    0.6030   -2.4470 c3        1 CTD      0.125400
     17 O5'         2.8780   -0.3380   -2.5020 oh        1 CTD     -0.591800
     18 H3         -0.0690   -1.4210    3.9790 ha        1 CTD      0.163000
     19 H5          1.5470    2.2570    2.2440 ha        1 CTD      0.149000
     20 H6          0.5900    1.5640    0.0560 h4        1 CTD      0.144000
     21 HN41        2.0090    1.5570    4.5450 hn        1 CTD      0.413800
     22 HN42        1.3350    0.1940    5.2650 hn        1 CTD      0.413800
     23 H1'        -1.3960   -1.5250   -0.4280 h2        1 CTD      0.154700
     24 H2'        -1.7290    1.4350   -0.6040 h1        1 CTD      0.067700
     25 HO2'       -3.2840    0.6720   -2.0920 ho        1 CTD      0.421000
     26 H3'        -0.3420    1.9780   -2.4470 h1        1 CTD      0.091700
     27 H4'         0.4240   -0.7420   -3.4260 h1        1 CTD      0.092700
     28 HO3'       -1.8100   -0.0460   -3.7650 ho        1 CTD      0.421000
     29 H5'1        1.9750    1.2580   -3.3480 h1        1 CTD      0.047700
     30 H5'2        1.9160    1.2180   -1.5120 h1        1 CTD      0.047700
     31 HO5'        2.7080   -0.9980   -1.8150 ho        1 CTD      0.418000
@<TRIPOS>BOND
     1    1    2 1   
     2    1    6 1   
     3    1    9 1   
     4    2    3 1   
     5    2    7 2   
     6    3    4 2   
     7    3   18 1   
     8    4    5 1   
     9    4    8 1   
    10    5    6 2   
    11    5   19 1   
    12    6   20 1   
    13    8   21 1   
    14    8   22 1   
    15    9   10 1   
    16    9   14 1   
    17    9   23 1   
    18   10   11 1   
    19   10   12 1   
    20   10   24 1   
    21   11   25 1   
    22   12   13 1   
    23   12   15 1   
    24   12   26 1   
    25   13   14 1   
    26   13   16 1   
    27   13   27 1   
    28   15   28 1   
    29   16   17 1   
    30   16   29 1   
    31   16   30 1   
    32   17   31 1   
@<TRIPOS>SUBSTRUCTURE
     1 CTD         1 TEMP              0 ****  ****    0 ROOT
