@<TRIPOS>MOLECULE
CTD
   32    33     1     0     0
SMALL
bcc


@<TRIPOS>ATOM
      1 N1         -0.0740   -0.0190   -0.2220 n         1 CTD     -0.336000
      2 C2          1.2430   -0.5200   -0.0170 c         1 CTD      0.690700
      3 C3          1.8210   -0.3360    1.3250 cc        1 CTD     -0.227200
      4 C4          1.1170    0.3270    2.2880 cd        1 CTD      0.063000
      5 C5         -0.1860    0.8500    2.0300 cd        1 CTD     -0.319000
      6 C6         -0.7220    0.6600    0.7690 cc        1 CTD      0.099600
      7 O2          1.8590   -1.0820   -0.9330 o         1 CTD     -0.550500
      8 N4          1.6860    0.5330    3.6250 n4        1 CTD     -0.716400
      9 C1'        -0.6640   -0.1660   -1.5650 c3        1 CTD      0.250500
     10 C2'        -1.5340   -1.4520   -1.7440 c3        1 CTD      0.087100
     11 O2'        -0.9320   -2.3480   -2.6380 oh        1 CTD     -0.562800
     12 C3'        -2.8980   -0.9400   -2.2640 c3        1 CTD      0.088100
     13 C4'        -2.8270    0.5920   -2.1850 c3        1 CTD      0.086100
     14 O4'        -1.4750    0.9690   -1.8680 os        1 CTD     -0.410600
     15 O3'        -3.0570   -1.2820   -3.6270 oh        1 CTD     -0.584800
     16 C5'        -3.7790    1.1730   -1.1370 c3        1 CTD      0.111400
     17 O5'        -3.1960    2.2590   -0.4460 oh        1 CTD     -0.604800
     18 H3          2.8320   -0.7580    1.4490 ha        1 CTD      0.188000
     19 H5         -0.7610    1.3990    2.7860 ha        1 CTD      0.175000
     20 H6         -1.7220    1.0860    0.5110 h4        1 CTD      0.227000
     21 HN41        2.6210    0.1140    3.6880 hn        1 CTD      0.469133
     22 HN42        1.7500    1.5410    3.8120 hn        1 CTD      0.469133
     23 H1'         0.1970   -0.1560   -2.3050 h2        1 CTD      0.134700
     24 H2'        -1.6490   -2.0340   -0.7900 h1        1 CTD      0.101700
     25 HO2'       -0.8920   -1.9270   -3.5120 ho        1 CTD      0.430000
     26 H3'        -3.7440   -1.3530   -1.6530 h1        1 CTD      0.073700
     27 H4'        -3.0210    1.0530   -3.1960 h1        1 CTD      0.115700
     28 HO3'       -3.2320   -2.2330   -3.6650 ho        1 CTD      0.431000
     29 H5'1       -4.0210    0.4290   -0.3310 h1        1 CTD      0.064200
     30 H5'2       -4.7290    1.4930   -1.6410 h1        1 CTD      0.064200
     31 HO5'       -2.8970    2.9000   -1.1050 ho        1 CTD      0.424000
     32 H43         1.0700    0.1010    4.3250 hn        1 CTD      0.469133
@<TRIPOS>BOND
     1    1    2 1   
     2    1    6 1   
     3    1    9 1   
     4    2    3 1   
     5    2    7 2   
     6    3    4 2   
     7    3   18 1   
     8    4    5 1   
     9    4    8 1   
    10    5    6 2   
    11    5   19 1   
    12    6   20 1   
    13    8   21 1   
    14    8   22 1   
    15    8   32 1   
    16    9   10 1   
    17    9   14 1   
    18    9   23 1   
    19   10   11 1   
    20   10   12 1   
    21   10   24 1   
    22   11   25 1   
    23   12   13 1   
    24   12   15 1   
    25   12   26 1   
    26   13   14 1   
    27   13   16 1   
    28   13   27 1   
    29   15   28 1   
    30   16   17 1   
    31   16   29 1   
    32   16   30 1   
    33   17   31 1   
@<TRIPOS>SUBSTRUCTURE
     1 CTD         1 TEMP              0 ****  ****    0 ROOT
