@<TRIPOS>MOLECULE
CTD
   32    33     1     0     0
SMALL
bcc


@<TRIPOS>ATOM
      1 N1         -0.0720   -0.0190   -0.2220 n         1 CTD     -0.336000
      2 C2          1.2440   -0.5220   -0.0190 c         1 CTD      0.690700
      3 C3          1.8270   -0.3350    1.3200 cc        1 CTD     -0.227200
      4 C4          1.1270    0.3310    2.2840 cd        1 CTD      0.063000
      5 C5         -0.1770    0.8550    2.0290 cd        1 CTD     -0.319000
      6 C6         -0.7160    0.6630    0.7710 cc        1 CTD      0.099600
      7 O2          1.8570   -1.0870   -0.9360 o         1 CTD     -0.550500
      8 N4          1.7000    0.5390    3.6190 n4        1 CTD     -0.716400
      9 C1'        -0.6660   -0.1680   -1.5620 c3        1 CTD      0.250500
     10 C2'        -1.5380   -1.4540   -1.7360 c3        1 CTD      0.087100
     11 O2'        -0.9400   -2.3520   -2.6300 oh        1 CTD     -0.562800
     12 C3'        -2.9040   -0.9420   -2.2520 c3        1 CTD      0.088100
     13 C4'        -2.8310    0.5900   -2.1760 c3        1 CTD      0.086100
     14 O4'        -1.4770    0.9670   -1.8650 os        1 CTD     -0.410600
     15 O3'        -3.0680   -1.2870   -3.6140 oh        1 CTD     -0.584800
     16 C5'        -3.7790    1.1750   -1.1260 c3        1 CTD      0.111400
     17 O5'        -3.1930    2.2620   -0.4410 oh        1 CTD     -0.604800
     18 H3          2.8370   -0.7580    1.4420 ha        1 CTD      0.188000
     19 H5         -0.7480    1.4070    2.7860 ha        1 CTD      0.175000
     20 H6         -1.7170    1.0900    0.5140 h4        1 CTD      0.227000
     21 HN41        1.7680    1.5480    3.8030 hn        1 CTD      0.469133
     22 HN42        1.0850    0.1110    4.3220 hn        1 CTD      0.469133
     23 H1'         0.1920   -0.1610   -2.3050 h2        1 CTD      0.134700
     24 H2'        -1.6510   -2.0340   -0.7810 h1        1 CTD      0.101700
     25 HO2'       -0.9030   -1.9330   -3.5050 ho        1 CTD      0.430000
     26 H3'        -3.7480   -1.3530   -1.6380 h1        1 CTD      0.073700
     27 H4'        -3.0280    1.0490   -3.1880 h1        1 CTD      0.115700
     28 HO3'       -3.2440   -2.2380   -3.6490 ho        1 CTD      0.431000
     29 H5'1       -4.0180    0.4320   -0.3170 h1        1 CTD      0.064200
     30 H5'2       -4.7310    1.4940   -1.6280 h1        1 CTD      0.064200
     31 HO5'       -2.8970    2.9010   -1.1020 ho        1 CTD      0.424000
     32 H43         2.6340    0.1180    3.6800 hn        1 CTD      0.469133
@<TRIPOS>BOND
     1    1    2 1   
     2    1    6 1   
     3    1    9 1   
     4    2    3 1   
     5    2    7 2   
     6    3    4 2   
     7    3   18 1   
     8    4    5 1   
     9    4    8 1   
    10    5    6 2   
    11    5   19 1   
    12    6   20 1   
    13    8   21 1   
    14    8   22 1   
    15    8   32 1   
    16    9   10 1   
    17    9   14 1   
    18    9   23 1   
    19   10   11 1   
    20   10   12 1   
    21   10   24 1   
    22   11   25 1   
    23   12   13 1   
    24   12   15 1   
    25   12   26 1   
    26   13   14 1   
    27   13   16 1   
    28   13   27 1   
    29   15   28 1   
    30   16   17 1   
    31   16   29 1   
    32   16   30 1   
    33   17   31 1   
@<TRIPOS>SUBSTRUCTURE
     1 CTD         1 TEMP              0 ****  ****    0 ROOT
