@<TRIPOS>MOLECULE
CTE
   26    27     1     0     0
SMALL
bcc


@<TRIPOS>ATOM
      1 O           5.2760   -0.1420   -0.2640 o         1 CTE     -0.840300
      2 C           4.2390   -0.0120    0.4460 c         1 CTE      0.889600
      3 OXT         4.1980   -0.1950    1.6940 o         1 CTE     -0.840300
      4 CA          2.9150    0.4340   -0.2660 c3        1 CTE      0.016500
      5 N           3.0060    0.4800   -1.7200 n3        1 CTE     -0.901800
      6 CB          1.7790   -0.4500    0.2520 c3        1 CTE     -0.012200
      7 CG          0.4270    0.0230   -0.0770 cc        1 CTE     -0.093400
      8 CD1         0.0570    1.0530   -0.9390 cd        1 CTE     -0.097100
      9 NE1        -1.3410    1.1830   -0.9730 na        1 CTE     -0.199400
     10 CE2        -1.8890    0.2270   -0.1260 ca        1 CTE     -0.047200
     11 CD2        -0.8010   -0.5290    0.4670 ca        1 CTE     -0.086800
     12 CE3        -1.0900   -1.5510    1.3690 ca        1 CTE     -0.069000
     13 CZ3        -2.4160   -1.8280    1.6780 ca        1 CTE     -0.174000
     14 CH2        -3.4720   -1.1030    1.1040 ca        1 CTE     -0.118000
     15 CZ2        -3.2200   -0.0750    0.2030 ca        1 CTE     -0.009600
     16 CL         -4.4970    0.8130   -0.4970 cl        1 CTE     -0.136400
     17 HA          2.7200    1.4940    0.0720 h1        1 CTE      0.042700
     18 HN1         3.9280    0.8190   -1.9480 hn        1 CTE      0.334300
     19 HN          2.9550   -0.4580   -2.0760 hn        1 CTE      0.334300
     20 HB1         1.9040   -1.4970   -0.1400 hc        1 CTE      0.063700
     21 HB2         1.8950   -0.5030    1.3730 hc        1 CTE      0.063700
     22 HD1         0.6930    1.7070   -1.5420 h4        1 CTE      0.192000
     23 HE1        -1.8530    1.8270   -1.5100 hn        1 CTE      0.293700
     24 HE3        -0.2670   -2.1200    1.8270 ha        1 CTE      0.145000
     25 HZ3        -2.6530   -2.6310    2.3890 ha        1 CTE      0.122000
     26 HH2        -4.5080   -1.3520    1.3740 ha        1 CTE      0.128000
@<TRIPOS>BOND
     1    1    2 1   
     2    2    3 1   
     3    2    4 1   
     4    4    5 1   
     5    4    6 1   
     6    4   17 1   
     7    5   18 1   
     8    5   19 1   
     9    6    7 1   
    10    6   20 1   
    11    6   21 1   
    12    7    8 2   
    13    7   11 1   
    14    8    9 1   
    15    8   22 1   
    16    9   10 1   
    17    9   23 1   
    18   10   11 ar  
    19   10   15 ar  
    20   11   12 ar  
    21   12   13 ar  
    22   12   24 1   
    23   13   14 ar  
    24   13   25 1   
    25   14   15 ar  
    26   14   26 1   
    27   15   16 1   
@<TRIPOS>SUBSTRUCTURE
     1 CTE         1 TEMP              0 ****  ****    0 ROOT
