@<TRIPOS>MOLECULE
CTF
   56    54     1     0     0
SMALL
bcc


@<TRIPOS>ATOM
      1 C1         -1.8300   -0.5130   -3.7590 c1        1 CTF      0.143000
      2 O1         -2.0590    1.8130   -5.5550 o         1 CTF     -0.927500
      3 O2         -3.9650    1.4880   -4.2480 o         1 CTF     -0.927500
      4 C2         -0.3740   -0.5450   -3.7290 c1        1 CTF     -0.013000
      5 C3          0.3130   -0.5710   -2.4860 c1        1 CTF     -0.129000
      6 C4         -0.3930   -0.5670   -1.3130 c1        1 CTF     -0.068000
      7 S1         -3.1780    0.8200   -5.3500 ss        1 CTF      2.841000
      8 N1         -4.0830    0.6510   -6.7120 n2        1 CTF     -0.955000
      9 O3         -2.6450   -0.5220   -4.9070 os        1 CTF     -0.658000
     10 C5         -1.9160   -0.5340   -1.3450 c1        1 CTF     -0.047000
     11 C6         -2.5700   -0.5080   -2.5440 c2        1 CTF     -0.142000
     12 O4          0.3500   -0.6120   -4.9310 os        1 CTF     -0.263000
     13 C7          0.5230    0.6360   -5.5640 c3        1 CTF     -0.081000
     14 C8          0.2630   -0.7830    0.0480 c3        1 CTF     -0.057000
     15 C9         -0.5870   -0.3570    1.2930 c3        1 CTF     -0.088000
     16 C10        -1.8830   -0.9110    1.3810 c3        1 CTF     -0.153000
     17 C11        -2.7480   -0.7340    0.1700 c3        1 CTF     -0.122000
     18 C12         1.7870   -0.0940    0.0570 c3        1 CTF     -0.150000
     19 C13         2.5630   -0.3410    1.4620 c3        1 CTF     -0.144000
     20 C14         1.7230    0.0650    2.6480 c3        1 CTF     -0.051000
     21 C15         0.1870   -0.6190    2.6350 c3        1 CTF     -0.101000
     22 C16         1.5990    1.5720    2.6800 c3        1 CTF     -0.205000
     23 C17         2.1790   -0.3460    3.7720 c3        1 CTF     -0.099000
     24 C18         0.8370   -0.1340    4.7870 c3        1 CTF     -0.158000
     25 C19        -0.3700   -0.0580    3.7030 c3        1 CTF     -0.152000
     26 C20         3.3450    0.5120    4.2300 c3        1 CTF     -0.068000
     27 C21         4.1170   -0.2190    5.3050 c1        1 CTF     -0.142000
     28 N2          4.7000   -0.7710    6.1170 n1        1 CTF     -0.053000
     29 H3          1.2890   -0.5930   -2.4680 ha        1 CTF      0.142000
     30 HN1        -3.7680    0.9620   -7.5120 hn        1 CTF      0.259000
     31 HN1A       -4.8940    0.2320   -6.6730 hn        1 CTF      0.259000
     32 H6         -3.5450   -0.4870   -2.5660 ha        1 CTF      0.154000
     33 H7          1.3450    0.6210   -6.0990 h1        1 CTF      0.090667
     34 H7A         0.5880    1.3410   -4.8850 h1        1 CTF      0.090667
     35 H7B        -0.2440    0.8150   -6.1490 h1        1 CTF      0.090667
     36 H8          0.3990   -1.7460    0.1330 hc        1 CTF      0.098000
     37 H9         -0.7060    0.6110    1.2250 hc        1 CTF      0.102000
     38 H10        -1.7830   -1.8740    1.5350 hc        1 CTF      0.085500
     39 H10A       -2.3380   -0.4840    2.1360 hc        1 CTF      0.085500
     40 H11        -3.3300   -1.5170    0.0950 hc        1 CTF      0.093500
     41 H11A       -3.3110    0.0520    0.3120 hc        1 CTF      0.093500
     42 H12         1.7000    0.8690   -0.0920 hc        1 CTF      0.082500
     43 H12A        2.3150   -0.4810   -0.6700 hc        1 CTF      0.082500
     44 H13         2.7850   -1.2910    1.5400 hc        1 CTF      0.081500
     45 H13A        3.3910    0.1810    1.4640 hc        1 CTF      0.081500
     46 H15         0.2620   -1.5830    2.7790 hc        1 CTF      0.089000
     47 H16         2.4810    1.9760    2.5350 hc        1 CTF      0.077667
     48 H16A        0.9860    1.8640    1.9730 hc        1 CTF      0.077667
     49 H16B        1.2510    1.8530    3.5520 hc        1 CTF      0.077667
     50 H17         2.4340   -1.2880    3.7220 hc        1 CTF      0.100000
     51 H18         0.9080    0.7000    5.2930 hc        1 CTF      0.087000
     52 H18A        0.7240   -0.9010    5.3840 hc        1 CTF      0.087000
     53 H19        -1.1450   -0.5750    4.0060 hc        1 CTF      0.085500
     54 H19A       -0.6170    0.8720    3.5210 hc        1 CTF      0.085500
     55 H20         3.0070    1.3570    4.5890 hc        1 CTF      0.115000
     56 H20A        3.9340    0.6930    3.4710 hc        1 CTF      0.115000
@<TRIPOS>BOND
     1    1    4 1   
     2    1   11 1   
     3    2    7 1   
     4    3    7 1   
     5    4   12 1   
     6    5    6 1   
     7    5   29 1   
     8    6   14 1   
     9    8   30 1   
    10    8   31 1   
    11   10   11 1   
    12   10   17 1   
    13   11   32 1   
    14   12   13 1   
    15   13   33 1   
    16   13   34 1   
    17   13   35 1   
    18   14   15 1   
    19   14   18 1   
    20   14   36 1   
    21   15   16 1   
    22   15   21 1   
    23   15   37 1   
    24   16   17 1   
    25   16   38 1   
    26   16   39 1   
    27   17   40 1   
    28   17   41 1   
    29   18   19 1   
    30   18   42 1   
    31   18   43 1   
    32   19   20 1   
    33   19   44 1   
    34   19   45 1   
    35   20   21 1   
    36   20   22 1   
    37   20   23 1   
    38   21   25 1   
    39   21   46 1   
    40   22   47 1   
    41   22   48 1   
    42   22   49 1   
    43   23   24 1   
    44   23   26 1   
    45   23   50 1   
    46   24   25 1   
    47   24   51 1   
    48   24   52 1   
    49   25   53 1   
    50   25   54 1   
    51   26   27 1   
    52   26   55 1   
    53   26   56 1   
    54   27   28 1   
@<TRIPOS>SUBSTRUCTURE
     1 CTF         1 TEMP              0 ****  ****    0 ROOT
