@<TRIPOS>MOLECULE
CTF
   57    60     1     0     0
SMALL
bcc


@<TRIPOS>ATOM
      1 C1         -0.3170   -0.6890    0.4890 ca        1 CTF      0.088100
      2 O1          0.1220   -2.6410   -1.9750 o         1 CTF     -0.556300
      3 O2          0.0150   -0.3390   -2.8630 o         1 CTF     -0.556300
      4 C2          1.0800   -0.5670    0.3700 ca        1 CTF      0.036100
      5 C3          1.8670   -0.3620    1.4960 ca        1 CTF     -0.115000
      6 C4          1.2560   -0.2710    2.7580 ca        1 CTF     -0.021300
      7 S1         -0.3520   -1.3730   -2.0610 s6        1 CTF      1.666400
      8 N1         -2.0890   -1.7470   -2.8390 nz        1 CTF     -0.794500
      9 O3         -1.0720   -0.8590   -0.6630 os        1 CTF     -0.464800
     10 C5         -0.1430   -0.3980    2.8690 ca        1 CTF     -0.043300
     11 C6         -0.9380   -0.6160    1.7300 ca        1 CTF     -0.091000
     12 O4          1.5370   -0.7550   -0.9310 os        1 CTF     -0.471900
     13 C7          2.7060   -0.0020   -1.3040 c3        1 CTF      0.145700
     14 C8          2.1010   -0.1050    3.9850 c3        1 CTF     -0.027400
     15 C9          1.2820    0.5500    5.1120 c3        1 CTF     -0.047700
     16 C10         0.0480   -0.2930    5.3770 c3        1 CTF     -0.079400
     17 C11        -0.8630   -0.2860    4.1700 c3        1 CTF     -0.044100
     18 C12         3.4070    0.6390    3.7250 c3        1 CTF     -0.070400
     19 C13         4.2270    0.8890    4.9820 c3        1 CTF     -0.067400
     20 C14         3.3930    1.5640    6.0570 c3        1 CTF     -0.052000
     21 C15         2.1700    0.6540    6.3300 c3        1 CTF     -0.064700
     22 C16         3.0110    2.9690    5.6210 c3        1 CTF     -0.088100
     23 C17         4.0300    1.6100    7.4650 c3        1 CTF     -0.057700
     24 C18         2.8260    1.6610    8.4250 c3        1 CTF     -0.080400
     25 C19         1.6000    1.1820    7.6390 c3        1 CTF     -0.072400
     26 C20         4.9990    2.7600    7.6630 c3        1 CTF     -0.013300
     27 C21         5.7810    2.6020    8.8700 c1        1 CTF      0.201700
     28 N2          6.4170    2.4830    9.8360 n1        1 CTF     -0.358800
     29 H3          2.9580   -0.2770    1.3820 ha        1 CTF      0.167000
     30 HN1        -2.8340   -1.5180   -2.1850 hn        1 CTF      0.459133
     31 HN1A       -2.1740   -2.7320   -3.0770 hn        1 CTF      0.459133
     32 H6         -2.0300   -0.7150    1.8150 ha        1 CTF      0.167000
     33 H7          2.6300    1.0440   -0.9220 h1        1 CTF      0.072700
     34 H7A         2.6920   -0.0290   -2.4230 h1        1 CTF      0.072700
     35 H7B         3.6020   -0.5240   -0.8900 h1        1 CTF      0.072700
     36 H8          2.3720   -1.1500    4.3260 hc        1 CTF      0.075700
     37 H9          0.9500    1.5750    4.7890 hc        1 CTF      0.064700
     38 H10         0.3500   -1.3440    5.6270 hc        1 CTF      0.060200
     39 H10A       -0.5040    0.1150    6.2640 hc        1 CTF      0.060200
     40 H11        -1.6040   -1.1270    4.2580 hc        1 CTF      0.065700
     41 H11A       -1.4530    0.6730    4.1550 hc        1 CTF      0.065700
     42 H12         4.0440    0.0330    3.0260 hc        1 CTF      0.041700
     43 H12A        3.1840    1.6160    3.2210 hc        1 CTF      0.041700
     44 H13         5.1080    1.5320    4.7200 hc        1 CTF      0.051200
     45 H13A        4.6240   -0.0860    5.3700 hc        1 CTF      0.051200
     46 H15         2.5640   -0.3850    6.5430 hc        1 CTF      0.052700
     47 H16         2.4010    3.4680    6.4130 hc        1 CTF      0.039700
     48 H16A        2.4200    2.9590    4.6750 hc        1 CTF      0.039700
     49 H16B        3.9310    3.5760    5.4400 hc        1 CTF      0.039700
     50 H17         4.5850    0.6450    7.6280 hc        1 CTF      0.062700
     51 H18         2.6630    2.7010    8.8010 hc        1 CTF      0.055700
     52 H18A        3.0130    1.0040    9.3090 hc        1 CTF      0.055700
     53 H19         0.8890    2.0260    7.4560 hc        1 CTF      0.047700
     54 H19A        1.0480    0.3840    8.1930 hc        1 CTF      0.047700
     55 H20         4.4440    3.7390    7.7160 hc        1 CTF      0.075200
     56 H20A        5.7010    2.8110    6.7840 hc        1 CTF      0.075200
     57 H131       -2.2350   -1.1980   -3.6820 hn        1 CTF      0.459133
@<TRIPOS>BOND
     1    1    4 ar  
     2    1    9 1   
     3    1   11 ar  
     4    2    7 2   
     5    3    7 2   
     6    4    5 ar  
     7    4   12 1   
     8    5    6 ar  
     9    5   29 1   
    10    6   10 ar  
    11    6   14 1   
    12    7    8 1   
    13    7    9 1   
    14    8   30 1   
    15    8   31 1   
    16    8   57 1   
    17   10   11 ar  
    18   10   17 1   
    19   11   32 1   
    20   12   13 1   
    21   13   33 1   
    22   13   34 1   
    23   13   35 1   
    24   14   15 1   
    25   14   18 1   
    26   14   36 1   
    27   15   16 1   
    28   15   21 1   
    29   15   37 1   
    30   16   17 1   
    31   16   38 1   
    32   16   39 1   
    33   17   40 1   
    34   17   41 1   
    35   18   19 1   
    36   18   42 1   
    37   18   43 1   
    38   19   20 1   
    39   19   44 1   
    40   19   45 1   
    41   20   21 1   
    42   20   22 1   
    43   20   23 1   
    44   21   25 1   
    45   21   46 1   
    46   22   47 1   
    47   22   48 1   
    48   22   49 1   
    49   23   24 1   
    50   23   26 1   
    51   23   50 1   
    52   24   25 1   
    53   24   51 1   
    54   24   52 1   
    55   25   53 1   
    56   25   54 1   
    57   26   27 1   
    58   26   55 1   
    59   26   56 1   
    60   27   28 3   
@<TRIPOS>SUBSTRUCTURE
     1 CTF         1 TEMP              0 ****  ****    0 ROOT
