@<TRIPOS>MOLECULE
CTF
   57    60     1     0     0
SMALL
bcc


@<TRIPOS>ATOM
      1 C1         -0.3050   -0.7090    0.5360 ca        1 CTF      0.088100
      2 O1          0.0740   -2.7350   -1.8800 o         1 CTF     -0.556300
      3 O2          0.0600   -0.4510   -2.8210 o         1 CTF     -0.556300
      4 C2          1.0960   -0.6450    0.4240 ca        1 CTF      0.036100
      5 C3          1.8830   -0.4430    1.5500 ca        1 CTF     -0.115000
      6 C4          1.2680   -0.2980    2.8050 ca        1 CTF     -0.021300
      7 S1         -0.3500   -1.4520   -1.9980 s6        1 CTF      1.666400
      8 N1         -2.0950   -1.7770   -2.7800 n4        1 CTF     -0.794500
      9 O3         -1.0590   -0.8790   -0.6180 os        1 CTF     -0.464800
     10 C5         -0.1350   -0.3690    2.9090 ca        1 CTF     -0.043300
     11 C6         -0.9300   -0.5840    1.7700 ca        1 CTF     -0.091000
     12 O4          1.5540   -0.8800   -0.8690 os        1 CTF     -0.471900
     13 C7          2.7530   -0.1810   -1.2520 c3        1 CTF      0.145700
     14 C8          2.1110   -0.1350    4.0340 c3        1 CTF     -0.027400
     15 C9          1.3110    0.5780    5.1380 c3        1 CTF     -0.047700
     16 C10         0.0440   -0.2110    5.4150 c3        1 CTF     -0.079400
     17 C11        -0.8590   -0.1980    4.2020 c3        1 CTF     -0.044100
     18 C12         3.4470    0.5510    3.7650 c3        1 CTF     -0.070400
     19 C13         4.2680    0.8000    5.0220 c3        1 CTF     -0.067400
     20 C14         3.4540    1.5330    6.0740 c3        1 CTF     -0.052000
     21 C15         2.1950    0.6780    6.3600 c3        1 CTF     -0.064700
     22 C16         3.1290    2.9400    5.6010 c3        1 CTF     -0.088100
     23 C17         4.0830    1.5890    7.4860 c3        1 CTF     -0.057700
     24 C18         2.8760    1.7100    8.4340 c3        1 CTF     -0.080400
     25 C19         1.6370    1.2600    7.6520 c3        1 CTF     -0.072400
     26 C20         5.0950    2.7070    7.6620 c3        1 CTF     -0.013300
     27 C21         5.8620    2.5480    8.8780 c1        1 CTF      0.201700
     28 N2          6.4870    2.4290    9.8510 n1        1 CTF     -0.358800
     29 H3          2.9780   -0.4020    1.4420 ha        1 CTF      0.167000
     30 HN1        -2.8360   -1.5050   -2.1370 hn        1 CTF      0.459133
     31 HN1A       -2.2160   -2.7640   -2.9960 hn        1 CTF      0.459133
     32 H6         -2.0260   -0.6380    1.8490 ha        1 CTF      0.167000
     33 H7          2.7140    0.8750   -0.8950 h1        1 CTF      0.072700
     34 H7A         3.6260   -0.7270   -0.8190 h1        1 CTF      0.072700
     35 H7B         2.7450   -0.2350   -2.3700 h1        1 CTF      0.072700
     36 H8          2.3390   -1.1820    4.4020 hc        1 CTF      0.075700
     37 H9          1.0210    1.6070    4.7880 hc        1 CTF      0.064700
     38 H10         0.3040   -1.2660    5.6930 hc        1 CTF      0.060200
     39 H10A       -0.4970    0.2410    6.2880 hc        1 CTF      0.060200
     40 H11        -1.4110    0.7820    4.1590 hc        1 CTF      0.065700
     41 H11A       -1.6310   -1.0080    4.3050 hc        1 CTF      0.065700
     42 H12         4.0650   -0.0960    3.0870 hc        1 CTF      0.041700
     43 H12A        3.2650    1.5230    3.2360 hc        1 CTF      0.041700
     44 H13         4.6240   -0.1790    5.4370 hc        1 CTF      0.051200
     45 H13A        5.1750    1.4020    4.7510 hc        1 CTF      0.051200
     46 H15         2.5460   -0.3700    6.6010 hc        1 CTF      0.052700
     47 H16         2.5440    2.9300    4.6510 hc        1 CTF      0.039700
     48 H16A        2.5340    3.4820    6.3760 hc        1 CTF      0.039700
     49 H16B        4.0740    3.5070    5.4120 hc        1 CTF      0.039700
     50 H17         4.5990    0.6080    7.6760 hc        1 CTF      0.062700
     51 H18         3.0310    1.0690    9.3360 hc        1 CTF      0.055700
     52 H18A        2.7510    2.7650    8.7840 hc        1 CTF      0.055700
     53 H19         0.9610    2.1260    7.4430 hc        1 CTF      0.047700
     54 H19A        1.0520    0.4980    8.2210 hc        1 CTF      0.047700
     55 H20         5.8040    2.7090    6.7870 hc        1 CTF      0.075200
     56 H20A        4.5780    3.7060    7.6870 hc        1 CTF      0.075200
     57 H131       -2.2150   -1.2420   -3.6360 hn        1 CTF      0.459133
@<TRIPOS>BOND
     1    1    4 ar  
     2    1    9 1   
     3    1   11 ar  
     4    2    7 2   
     5    3    7 2   
     6    4    5 ar  
     7    4   12 1   
     8    5    6 ar  
     9    5   29 1   
    10    6   10 ar  
    11    6   14 1   
    12    7    8 1   
    13    7    9 1   
    14    8   30 1   
    15    8   31 1   
    16    8   57 1   
    17   10   11 ar  
    18   10   17 1   
    19   11   32 1   
    20   12   13 1   
    21   13   33 1   
    22   13   34 1   
    23   13   35 1   
    24   14   15 1   
    25   14   18 1   
    26   14   36 1   
    27   15   16 1   
    28   15   21 1   
    29   15   37 1   
    30   16   17 1   
    31   16   38 1   
    32   16   39 1   
    33   17   40 1   
    34   17   41 1   
    35   18   19 1   
    36   18   42 1   
    37   18   43 1   
    38   19   20 1   
    39   19   44 1   
    40   19   45 1   
    41   20   21 1   
    42   20   22 1   
    43   20   23 1   
    44   21   25 1   
    45   21   46 1   
    46   22   47 1   
    47   22   48 1   
    48   22   49 1   
    49   23   24 1   
    50   23   26 1   
    51   23   50 1   
    52   24   25 1   
    53   24   51 1   
    54   24   52 1   
    55   25   53 1   
    56   25   54 1   
    57   26   27 1   
    58   26   55 1   
    59   26   56 1   
    60   27   28 3   
@<TRIPOS>SUBSTRUCTURE
     1 CTF         1 TEMP              0 ****  ****    0 ROOT
