@<TRIPOS>MOLECULE
CTF
   56    59     1     0     0
SMALL
bcc


@<TRIPOS>ATOM
      1 C1          3.1920    0.0920    0.5050 ca        1 CTF      0.120100
      2 O1          5.4000   -0.5110   -1.3190 o         1 CTF     -0.639800
      3 O2          6.8460   -0.2360    0.6080 o         1 CTF     -0.639800
      4 C2          2.5850   -1.1580    0.2310 ca        1 CTF      0.116100
      5 C3          1.2270   -1.2090   -0.0940 ca        1 CTF     -0.186000
      6 C4          0.4530   -0.0440   -0.1310 ca        1 CTF     -0.038300
      7 S1          5.8050    0.2000   -0.1970 s6        1 CTF      1.705400
      8 N1          5.9380    1.7460   -0.5340 n3        1 CTF     -1.036700
      9 O3          4.4950    0.1560    0.8980 os        1 CTF     -0.462800
     10 C5          1.0520    1.1940    0.1630 ca        1 CTF     -0.089300
     11 C6          2.4150    1.2530    0.4800 ca        1 CTF     -0.136000
     12 O4          3.4090   -2.2570    0.3350 os        1 CTF     -0.310900
     13 C7          2.9300   -3.4580   -0.2630 c3        1 CTF      0.114700
     14 C8         -0.9890   -0.1060   -0.5360 c3        1 CTF     -0.014400
     15 C9         -1.7600    1.0830    0.0650 c3        1 CTF     -0.048700
     16 C10        -1.1020    2.3740   -0.3870 c3        1 CTF     -0.074400
     17 C11         0.2940    2.4760    0.1880 c3        1 CTF     -0.030100
     18 C12        -1.6540   -1.4390   -0.2050 c3        1 CTF     -0.071400
     19 C13        -3.1420   -1.4790   -0.5150 c3        1 CTF     -0.065400
     20 C14        -3.8680   -0.3090    0.1260 c3        1 CTF     -0.051000
     21 C15        -3.1970    0.9880   -0.3920 c3        1 CTF     -0.061700
     22 C16        -3.8330   -0.4370    1.6400 c3        1 CTF     -0.087100
     23 C17        -5.3230   -0.0840   -0.3460 c3        1 CTF     -0.058700
     24 C18        -5.5610    1.4230   -0.1400 c3        1 CTF     -0.079400
     25 C19        -4.1840    2.0870   -0.0230 c3        1 CTF     -0.072400
     26 C20        -6.3390   -0.9520    0.3720 c3        1 CTF     -0.016300
     27 C21        -7.6320   -0.9210   -0.2770 c1        1 CTF      0.210700
     28 N2         -8.6740   -0.9050   -0.7920 n1        1 CTF     -0.378800
     29 H3          0.7700   -2.1840   -0.3190 ha        1 CTF      0.143000
     30 HN1         6.4260    2.3930    0.0350 hn        1 CTF      0.455300
     31 HN1A        5.5230    2.1780   -1.3230 hn        1 CTF      0.455300
     32 H6          2.8810    2.2180    0.7250 ha        1 CTF      0.139000
     33 H7          2.0730   -3.8680    0.3260 h1        1 CTF      0.046367
     34 H7A         2.6330   -3.2870   -1.3250 h1        1 CTF      0.046367
     35 H7B         3.8130   -4.1440   -0.2030 h1        1 CTF      0.046367
     36 H8         -1.0130    0.0090   -1.6610 hc        1 CTF      0.059700
     37 H9         -1.7080    1.0340    1.1870 hc        1 CTF      0.063700
     38 H10        -1.0620    2.4070   -1.5070 hc        1 CTF      0.045700
     39 H10A       -1.7140    3.2490   -0.0470 hc        1 CTF      0.045700
     40 H11         0.2300    2.8210    1.2570 hc        1 CTF      0.049200
     41 H11A        0.8690    3.2600   -0.3760 hc        1 CTF      0.049200
     42 H12        -1.1650   -2.2510   -0.8070 hc        1 CTF      0.044700
     43 H12A       -1.4860   -1.6770    0.8780 hc        1 CTF      0.044700
     44 H13        -3.2940   -1.4500   -1.6260 hc        1 CTF      0.042700
     45 H13A       -3.5690   -2.4460   -0.1400 hc        1 CTF      0.042700
     46 H15        -3.1820    0.9300   -1.5220 hc        1 CTF      0.048700
     47 H16        -2.7850   -0.4540    2.0250 hc        1 CTF      0.038367
     48 H16A       -4.3690    0.4200    2.1150 hc        1 CTF      0.038367
     49 H16B       -4.3250   -1.3890    1.9550 hc        1 CTF      0.038367
     50 H17        -5.3710   -0.3140   -1.4460 hc        1 CTF      0.060700
     51 H18        -6.1330    1.8430   -1.0030 hc        1 CTF      0.047700
     52 H18A       -6.1590    1.6060    0.7870 hc        1 CTF      0.047700
     53 H19        -4.0050    2.4530    1.0180 hc        1 CTF      0.045700
     54 H19A       -4.0940    2.9610   -0.7130 hc        1 CTF      0.045700
     55 H20        -5.9700   -2.0170    0.3900 hc        1 CTF      0.075700
     56 H20A       -6.4620   -0.6140    1.4390 hc        1 CTF      0.075700
@<TRIPOS>BOND
     1    1    4 ar  
     2    1    9 1   
     3    1   11 ar  
     4    2    7 2   
     5    3    7 2   
     6    4    5 ar  
     7    4   12 1   
     8    5    6 ar  
     9    5   29 1   
    10    6   10 ar  
    11    6   14 1   
    12    7    8 1   
    13    7    9 1   
    14    8   30 1   
    15    8   31 1   
    16   10   11 ar  
    17   10   17 1   
    18   11   32 1   
    19   12   13 1   
    20   13   33 1   
    21   13   34 1   
    22   13   35 1   
    23   14   15 1   
    24   14   18 1   
    25   14   36 1   
    26   15   16 1   
    27   15   21 1   
    28   15   37 1   
    29   16   17 1   
    30   16   38 1   
    31   16   39 1   
    32   17   40 1   
    33   17   41 1   
    34   18   19 1   
    35   18   42 1   
    36   18   43 1   
    37   19   20 1   
    38   19   44 1   
    39   19   45 1   
    40   20   21 1   
    41   20   22 1   
    42   20   23 1   
    43   21   25 1   
    44   21   46 1   
    45   22   47 1   
    46   22   48 1   
    47   22   49 1   
    48   23   24 1   
    49   23   26 1   
    50   23   50 1   
    51   24   25 1   
    52   24   51 1   
    53   24   52 1   
    54   25   53 1   
    55   25   54 1   
    56   26   27 1   
    57   26   55 1   
    58   26   56 1   
    59   27   28 3   
@<TRIPOS>SUBSTRUCTURE
     1 CTF         1 TEMP              0 ****  ****    0 ROOT
