@<TRIPOS>MOLECULE
CTF
   57    60     1     0     0
SMALL
bcc


@<TRIPOS>ATOM
      1 C1         -0.3270   -0.7040    0.5000 ca        1 CTF      0.088100
      2 O1          0.0920   -2.6730   -1.9550 o         1 CTF     -0.556300
      3 O2          0.0000   -0.3750   -2.8550 o         1 CTF     -0.556300
      4 C2          1.0710   -0.5940    0.3780 ca        1 CTF      0.036100
      5 C3          1.8620   -0.3890    1.5000 ca        1 CTF     -0.115000
      6 C4          1.2540   -0.2870    2.7630 ca        1 CTF     -0.021300
      7 S1         -0.3720   -1.4010   -2.0460 s6        1 CTF      1.666400
      8 N1         -2.1140   -1.7670   -2.8190 n4        1 CTF     -0.794500
      9 O3         -1.0850   -0.8750   -0.6500 os        1 CTF     -0.464800
     10 C5         -0.1450   -0.4030    2.8780 ca        1 CTF     -0.043300
     11 C6         -0.9440   -0.6210    1.7410 ca        1 CTF     -0.091000
     12 O4          1.5240   -0.7920   -0.9240 os        1 CTF     -0.471900
     13 C7          2.6970   -0.0490   -1.3040 c3        1 CTF      0.145700
     14 C8          2.1030   -0.1210    3.9870 c3        1 CTF     -0.027400
     15 C9          1.2910    0.5450    5.1130 c3        1 CTF     -0.047700
     16 C10         0.0520   -0.2870    5.3850 c3        1 CTF     -0.079400
     17 C11        -0.8620   -0.2790    4.1790 c3        1 CTF     -0.044100
     18 C12         3.4150    0.6120    3.7210 c3        1 CTF     -0.070400
     19 C13         4.2390    0.8620    4.9750 c3        1 CTF     -0.067400
     20 C14         3.4130    1.5480    6.0480 c3        1 CTF     -0.052000
     21 C15         2.1830    0.6490    6.3290 c3        1 CTF     -0.064700
     22 C16         3.0410    2.9530    5.6060 c3        1 CTF     -0.088100
     23 C17         4.0530    1.5960    7.4550 c3        1 CTF     -0.057700
     24 C18         2.8520    1.6610    8.4170 c3        1 CTF     -0.080400
     25 C19         1.6200    1.1880    7.6360 c3        1 CTF     -0.072400
     26 C20         5.0310    2.7400    7.6450 c3        1 CTF     -0.013300
     27 C21         5.8150    2.5820    8.8510 c1        1 CTF      0.201700
     28 N2          6.4520    2.4630    9.8160 n1        1 CTF     -0.358800
     29 H3          2.9540   -0.3120    1.3840 ha        1 CTF      0.167000
     30 HN1        -2.8560   -1.5290   -2.1640 hn        1 CTF      0.459133
     31 HN1A       -2.2070   -2.7520   -3.0510 hn        1 CTF      0.459133
     32 H6         -2.0370   -0.7110    1.8300 ha        1 CTF      0.167000
     33 H7          3.5910   -0.5750   -0.8890 h1        1 CTF      0.072700
     34 H7A         2.6290    0.9990   -0.9270 h1        1 CTF      0.072700
     35 H7B         2.6800   -0.0820   -2.4220 h1        1 CTF      0.072700
     36 H8          2.3670   -1.1670    4.3340 hc        1 CTF      0.075700
     37 H9          0.9670    1.5710    4.7850 hc        1 CTF      0.064700
     38 H10        -0.4940    0.1310    6.2710 hc        1 CTF      0.060200
     39 H10A        0.3470   -1.3390    5.6400 hc        1 CTF      0.060200
     40 H11        -1.4440    0.6850    4.1610 hc        1 CTF      0.065700
     41 H11A       -1.6090   -1.1140    4.2740 hc        1 CTF      0.065700
     42 H12         4.0450   -0.0030    3.0240 hc        1 CTF      0.041700
     43 H12A        3.1980    1.5870    3.2120 hc        1 CTF      0.041700
     44 H13         5.1250    1.4960    4.7080 hc        1 CTF      0.051200
     45 H13A        4.6290   -0.1150    5.3680 hc        1 CTF      0.051200
     46 H15         2.5690   -0.3920    6.5460 hc        1 CTF      0.052700
     47 H16         2.4370    3.4620    6.3970 hc        1 CTF      0.039700
     48 H16A        3.9650    3.5530    5.4200 hc        1 CTF      0.039700
     49 H16B        2.4470    2.9430    4.6610 hc        1 CTF      0.039700
     50 H17         4.6010    0.6280    7.6210 hc        1 CTF      0.062700
     51 H18         3.0350    1.0080    9.3040 hc        1 CTF      0.055700
     52 H18A        2.6980    2.7040    8.7880 hc        1 CTF      0.055700
     53 H19         1.0630    0.3980    8.1950 hc        1 CTF      0.047700
     54 H19A        0.9160    2.0370    7.4500 hc        1 CTF      0.047700
     55 H20         4.4840    3.7230    7.6950 hc        1 CTF      0.075200
     56 H20A        5.7320    2.7810    6.7640 hc        1 CTF      0.075200
     57 H131       -2.2570   -1.2210   -3.6640 hn        1 CTF      0.459133
@<TRIPOS>BOND
     1    1    4 ar  
     2    1    9 1   
     3    1   11 ar  
     4    2    7 2   
     5    3    7 2   
     6    4    5 ar  
     7    4   12 1   
     8    5    6 ar  
     9    5   29 1   
    10    6   10 ar  
    11    6   14 1   
    12    7    8 1   
    13    7    9 1   
    14    8   30 1   
    15    8   31 1   
    16    8   57 1   
    17   10   11 ar  
    18   10   17 1   
    19   11   32 1   
    20   12   13 1   
    21   13   33 1   
    22   13   34 1   
    23   13   35 1   
    24   14   15 1   
    25   14   18 1   
    26   14   36 1   
    27   15   16 1   
    28   15   21 1   
    29   15   37 1   
    30   16   17 1   
    31   16   38 1   
    32   16   39 1   
    33   17   40 1   
    34   17   41 1   
    35   18   19 1   
    36   18   42 1   
    37   18   43 1   
    38   19   20 1   
    39   19   44 1   
    40   19   45 1   
    41   20   21 1   
    42   20   22 1   
    43   20   23 1   
    44   21   25 1   
    45   21   46 1   
    46   22   47 1   
    47   22   48 1   
    48   22   49 1   
    49   23   24 1   
    50   23   26 1   
    51   23   50 1   
    52   24   25 1   
    53   24   51 1   
    54   24   52 1   
    55   25   53 1   
    56   25   54 1   
    57   26   27 1   
    58   26   55 1   
    59   26   56 1   
    60   27   28 3   
@<TRIPOS>SUBSTRUCTURE
     1 CTF         1 TEMP              0 ****  ****    0 ROOT
