@<TRIPOS>MOLECULE
CTG
   38    38     1     0     0
SMALL
bcc


@<TRIPOS>ATOM
      1 P          -1.5290   -5.9070    0.1370 p3        1 CTG      2.540000
      2 OP1        -0.0750   -6.1630   -0.1570 o         1 CTG     -1.246667
      3 OP2        -1.8060   -6.1980    1.5920 o         1 CTG     -1.246667
      4 O5'        -1.8740   -4.3840   -0.1750 o         1 CTG     -0.742000
      5 C5'        -0.8090   -3.4070   -0.1150 c3        1 CTG      0.074000
      6 C4'        -1.4280   -1.9510   -0.0620 c3        1 CTG     -0.042000
      7 O4'        -0.6910   -1.1990    0.5680 os        1 CTG     -0.287000
      8 C1'        -0.8160    0.2370   -0.1320 c3        1 CTG      0.167000
      9 N1          0.3520    1.0410    0.1610 n         1 CTG     -0.314000
     10 C6          0.1960    2.3580    0.6950 c3        1 CTG      0.093000
     11 O6         -0.4430    2.2310    1.9660 oh        1 CTG     -0.395000
     12 C2          1.6470    0.5050   -0.0390 c2        1 CTG      0.413000
     13 O2          1.8190   -0.7110   -0.0040 o         1 CTG     -0.463000
     14 N3          2.7480    1.3760   -0.2950 n         1 CTG     -0.388000
     15 C4          2.7520    2.6960    0.2460 c2        1 CTG      0.328000
     16 O4          3.7430    3.3780    0.1670 o         1 CTG     -0.378000
     17 C5          1.4850    3.2590    0.8990 c3        1 CTG      0.095000
     18 C5M         1.2230    4.7200    0.4400 c3        1 CTG     -0.242000
     19 O5          1.7140    3.4640    2.3010 oh        1 CTG     -0.350000
     20 C2'        -0.8970    0.0230   -1.3700 c3        1 CTG     -0.203000
     21 C3'        -1.4950   -1.3440   -1.4880 c3        1 CTG      0.004000
     22 O3'        -2.8110   -1.2550   -1.9090 oh        1 CTG     -0.376000
     23 OP3        -2.3810   -6.8010   -0.7260 o         1 CTG     -1.246667
     24 H71         1.0220    4.7300   -0.5080 hc        1 CTG      0.094667
     25 H72         2.0130    5.2580    0.6090 hc        1 CTG      0.094667
     26 H73         0.4670    5.0880    0.9380 hc        1 CTG      0.094667
     27 HO5         2.4340    3.9990    2.4150 ho        1 CTG      0.294000
     28 H3          3.4920    1.0590   -0.7350 hn        1 CTG      0.228000
     29 H1'        -1.6160    0.6880    0.1780 h2        1 CTG      0.113000
     30 H2'        -0.0100    0.0400   -1.7750 hc        1 CTG      0.095000
     31 H2''       -1.4890    0.6990   -1.8010 hc        1 CTG      0.095000
     32 H3'        -0.9900   -1.8740   -2.0960 h1        1 CTG      0.169000
     33 HO3'       -2.8790   -1.5630   -2.7290 ho        1 CTG      0.266000
     34 H4'        -2.3210   -1.9730    0.3430 h1        1 CTG      0.057000
     35 H5'        -0.2590   -3.5640    0.7000 h1        1 CTG      0.043500
     36 H5''       -0.2360   -3.4920   -0.9220 h1        1 CTG      0.043500
     37 H6         -0.4060    2.8400    0.1090 h2        1 CTG      0.236000
     38 HO6         0.1520    2.0950    2.5750 ho        1 CTG      0.283000
@<TRIPOS>BOND
     1    1    2 1   
     2    1    3 1   
     3    1   23 1   
     4    4    5 1   
     5    5    6 1   
     6    5   35 1   
     7    5   36 1   
     8    6    7 1   
     9    6   21 1   
    10    6   34 1   
    11    7    8 1   
    12    8    9 1   
    13    8   20 1   
    14    8   29 1   
    15    9   10 1   
    16    9   12 1   
    17   10   11 1   
    18   10   17 1   
    19   10   37 1   
    20   11   38 1   
    21   12   13 1   
    22   12   14 1   
    23   14   15 1   
    24   14   28 1   
    25   15   16 1   
    26   15   17 1   
    27   17   18 1   
    28   17   19 1   
    29   18   24 1   
    30   18   25 1   
    31   18   26 1   
    32   19   27 1   
    33   20   21 1   
    34   20   30 1   
    35   20   31 1   
    36   21   22 1   
    37   21   32 1   
    38   22   33 1   
@<TRIPOS>SUBSTRUCTURE
     1 CTG         1 TEMP              0 ****  ****    0 ROOT
