@<TRIPOS>MOLECULE
CTG
   38    39     1     0     0
SMALL
bcc


@<TRIPOS>ATOM
      1 P          -3.9200   -0.5330    4.1010 p5        1 CTG      1.425800
      2 OP1        -4.1910    0.0390    5.4380 o         1 CTG     -0.841500
      3 OP2        -4.3510    0.0240    2.8030 o         1 CTG     -0.841500
      4 O5'        -2.3090   -0.8730    4.0450 os        1 CTG     -0.585200
      5 C5'        -1.7110   -1.0610    2.7980 c3        1 CTG      0.174400
      6 C4'        -0.5280   -0.0880    2.6510 c3        1 CTG      0.088100
      7 O4'         0.7040   -0.8130    2.5860 os        1 CTG     -0.442600
      8 C1'         1.3360   -0.6760    1.2840 c3        1 CTG      0.304500
      9 N1          1.6300   -1.9790    0.7370 n         1 CTG     -0.506800
     10 C6          0.5730   -2.7160   -0.1110 c3        1 CTG      0.555200
     11 O6          0.6200   -2.3700   -1.3540 o         1 CTG     -0.783500
     12 C2          2.9550   -2.3580    0.6650 c         1 CTG      0.812500
     13 O2          3.9510   -1.6600    1.0140 o         1 CTG     -0.760500
     14 N3          3.2680   -3.6700    0.2000 n         1 CTG     -0.583500
     15 C4          2.3160   -4.6160   -0.1270 c         1 CTG      0.704500
     16 O4          2.6770   -5.7220   -0.5910 o         1 CTG     -0.716500
     17 C5          0.8460   -4.2810    0.1380 c3        1 CTG      0.005800
     18 C5M         0.4960   -4.6950    1.5590 c3        1 CTG     -0.108100
     19 O5          0.0270   -4.9790   -0.7810 oh        1 CTG     -0.559800
     20 C2'         0.4240    0.2310    0.4280 c3        1 CTG     -0.156400
     21 C3'        -0.6120    0.8040    1.3960 c3        1 CTG      0.111100
     22 O3'        -0.3250    2.1610    1.7040 oh        1 CTG     -0.611800
     23 OP3        -4.4530   -2.0750    4.2440 oh        1 CTG     -0.779400
     24 H71         0.6110   -5.7990    1.6860 hc        1 CTG      0.037700
     25 H72         1.1480   -4.1710    2.2960 hc        1 CTG      0.037700
     26 H73        -0.5670   -4.4180    1.7650 hc        1 CTG      0.037700
     27 HO5         0.3540   -5.8890   -0.8030 ho        1 CTG      0.381000
     28 H3          4.2290   -3.8570    0.0320 hn        1 CTG      0.310500
     29 H1'         2.3090   -0.1360    1.5090 h2        1 CTG      0.057700
     30 H2'        -0.0720   -0.3400   -0.3990 hc        1 CTG      0.080200
     31 H2''        1.0320    1.0460   -0.0340 hc        1 CTG      0.080200
     32 H3'        -1.6470    0.8330    0.9640 h1        1 CTG      0.107700
     33 HO3'        0.5160    2.1690    2.1750 ho        1 CTG      0.386000
     34 H4'        -0.4540    0.5400    3.5830 h1        1 CTG      0.070700
     35 H5'        -1.3090   -2.1130    2.7450 h1        1 CTG      0.048200
     36 H5''       -2.4660   -0.9020    1.9790 h1        1 CTG      0.048200
     37 H6         -0.3870   -2.4930    0.4560 h2        1 CTG     -0.008300
     38 HO6        -4.4360   -2.3630    5.1490 ho        1 CTG      0.417000
@<TRIPOS>BOND
     1    1    2 1   
     2    1    3 1   
     3    1    4 1   
     4    1   23 1   
     5    4    5 1   
     6    5    6 1   
     7    5   35 1   
     8    5   36 1   
     9    6    7 1   
    10    6   21 1   
    11    6   34 1   
    12    7    8 1   
    13    8    9 1   
    14    8   20 1   
    15    8   29 1   
    16    9   10 1   
    17    9   12 1   
    18   10   11 1   
    19   10   17 1   
    20   10   37 1   
    21   12   13 2   
    22   12   14 1   
    23   14   15 1   
    24   14   28 1   
    25   15   16 2   
    26   15   17 1   
    27   17   18 1   
    28   17   19 1   
    29   18   24 1   
    30   18   25 1   
    31   18   26 1   
    32   19   27 1   
    33   20   21 1   
    34   20   30 1   
    35   20   31 1   
    36   21   22 1   
    37   21   32 1   
    38   22   33 1   
    39   23   38 1   
@<TRIPOS>SUBSTRUCTURE
     1 CTG         1 TEMP              0 ****  ****    0 ROOT
