@<TRIPOS>MOLECULE
CTH
   16    15     1     0     0
SMALL
bcc


@<TRIPOS>ATOM
      1 N           1.8930    0.6230    0.7960 n3        1 CTH     -0.894800
      2 CA          0.4380    0.6320    0.7970 c3        1 CTH     -0.016500
      3 C          -0.1820   -0.1140    2.0240 c         1 CTH      0.883600
      4 O           0.1560   -1.3240    2.1880 o         1 CTH     -0.832800
      5 OXT        -0.9620    0.5280    2.7720 o         1 CTH     -0.832800
      6 CB         -0.1530    0.0000   -0.4830 c3        1 CTH      0.158100
      7 CG2         0.3000    0.7800   -1.7100 c3        1 CTH      0.064000
      8 CL2        -0.8290    0.6460   -3.0660 cl        1 CTH     -0.256400
      9 OG1         0.2740   -1.3420   -0.6670 oh        1 CTH     -0.643800
     10 H           2.2060    0.8430    1.7250 hn        1 CTH      0.336800
     11 H2          2.2020   -0.3130    0.5950 hn        1 CTH      0.336800
     12 HA          0.1080    1.7080    0.8420 h1        1 CTH      0.055700
     13 HB         -1.2750    0.0170   -0.3880 h1        1 CTH      0.051700
     14 HG22        0.3660    1.8680   -1.4800 h1        1 CTH      0.068200
     15 HG23        1.2780    0.3930   -2.0810 h1        1 CTH      0.068200
     16 HG1         0.2270   -1.7740    0.2050 ho        1 CTH      0.453000
@<TRIPOS>BOND
     1    1    2 1   
     2    1   10 1   
     3    1   11 1   
     4    2    3 1   
     5    2    6 1   
     6    2   12 1   
     7    3    4 1   
     8    3    5 1   
     9    6    7 1   
    10    6    9 1   
    11    6   13 1   
    12    7    8 1   
    13    7   14 1   
    14    7   15 1   
    15    9   16 1   
@<TRIPOS>SUBSTRUCTURE
     1 CTH         1 TEMP              0 ****  ****    0 ROOT
