@<TRIPOS>MOLECULE
CTI
   44    48     1     0     0
SMALL
bcc


@<TRIPOS>ATOM
      1 C1          3.0300    0.8910   -0.3040 ca        1 CTI     -0.155000
      2 C2          2.1310   -0.1490    0.0890 ca        1 CTI     -0.028000
      3 C3          2.6270   -1.4660    0.2870 ca        1 CTI     -0.016000
      4 C4          4.0280   -1.7540    0.2670 ca        1 CTI     -0.109000
      5 C5          0.7100    0.0660    0.2340 ca        1 CTI     -0.009300
      6 C6         -0.1730   -1.0450    0.1940 ca        1 CTI     -0.011000
      7 C7          0.3690   -2.3510    0.3420 ca        1 CTI     -0.124000
      8 C8          1.7170   -2.5480    0.4480 ca        1 CTI     -0.069000
      9 N9          0.1560    1.3560    0.4130 na        1 CTI      0.023900
     10 C10        -1.5910   -0.8470    0.0230 ca        1 CTI      0.030000
     11 C11        -2.0780    0.4890    0.0260 ca        1 CTI     -0.131000
     12 C12        -1.1660    1.5470    0.2880 ca        1 CTI      0.075700
     13 C13         0.9530    2.4680    0.9150 c3        1 CTI     -0.029400
     14 C14        -4.3470   -0.3120   -0.3780 ca        1 CTI      0.065100
     15 C15        -3.8530   -1.6290   -0.3700 ca        1 CTI     -0.091000
     16 C16        -2.5060   -1.8920   -0.1730 ca        1 CTI     -0.131000
     17 C17        -3.4630    0.7650   -0.1800 ca        1 CTI      0.182100
     18 O18        -3.7670    2.0980   -0.1560 os        1 CTI     -0.335900
     19 C19        -5.1260    2.5030   -0.3530 c3        1 CTI      0.124700
     20 O20        -5.6750    0.0020   -0.5700 os        1 CTI     -0.326900
     21 C21        -6.5700   -1.0900   -0.7860 c3        1 CTI      0.107700
     22 C22         4.3630    0.5900   -0.3350 ca        1 CTI      0.103100
     23 C23         4.8670   -0.7200   -0.0270 ca        1 CTI      0.094100
     24 O24         5.4210    1.4150   -0.6650 os        1 CTI     -0.320900
     25 C25         6.6340    0.6240   -0.5510 c3        1 CTI      0.320200
     26 O26         6.2450   -0.7120   -0.1410 os        1 CTI     -0.311900
     27 H1          2.6860    1.8750   -0.6440 ha        1 CTI      0.160000
     28 H4          4.3910   -2.7730    0.4660 ha        1 CTI      0.179000
     29 H7         -0.3140   -3.2130    0.3950 ha        1 CTI      0.160000
     30 H8          2.1240   -3.5590    0.6230 ha        1 CTI      0.165000
     31 H12        -1.5600    2.5820    0.4230 h4        1 CTI      0.212000
     32 H13         1.2580    3.1320    0.0620 h1        1 CTI      0.094700
     33 H13A        0.3390    3.0700    1.6410 h1        1 CTI      0.094700
     34 H13B        1.8590    2.0800    1.4550 h1        1 CTI      0.094700
     35 H15        -4.5440   -2.4740   -0.5280 ha        1 CTI      0.168000
     36 H16        -2.1660   -2.9400   -0.1890 ha        1 CTI      0.163000
     37 H19        -5.4820    2.1810   -1.3610 h1        1 CTI      0.069033
     38 H19A       -5.7750    2.0860    0.4540 h1        1 CTI      0.069033
     39 H19B       -5.0590    3.6190   -0.2850 h1        1 CTI      0.069033
     40 H21        -6.2890   -1.6520   -1.7100 h1        1 CTI      0.061700
     41 H21A       -6.5900   -1.7630    0.1050 h1        1 CTI      0.061700
     42 H21B       -7.5590   -0.5790   -0.9180 h1        1 CTI      0.061700
     43 H25         7.1140    0.5630   -1.5590 h2        1 CTI      0.096200
     44 H25A        7.2750    1.0700    0.2490 h2        1 CTI      0.096200
@<TRIPOS>BOND
     1    1    2 ar  
     2    1   22 ar  
     3    1   27 1   
     4    2    3 ar  
     5    2    5 ar  
     6    3    4 ar  
     7    3    8 ar  
     8    4   23 ar  
     9    4   28 1   
    10    5    6 ar  
    11    5    9 1   
    12    6    7 ar  
    13    6   10 ar  
    14    7    8 ar  
    15    7   29 1   
    16    8   30 1   
    17    9   12 2   
    18    9   13 1   
    19   10   11 ar  
    20   10   16 ar  
    21   11   12 ar  
    22   11   17 ar  
    23   12   31 1   
    24   13   32 1   
    25   13   33 1   
    26   13   34 1   
    27   14   15 ar  
    28   14   17 ar  
    29   14   20 1   
    30   15   16 ar  
    31   15   35 1   
    32   16   36 1   
    33   17   18 1   
    34   18   19 1   
    35   19   37 1   
    36   19   38 1   
    37   19   39 1   
    38   20   21 1   
    39   21   40 1   
    40   21   41 1   
    41   21   42 1   
    42   22   23 ar  
    43   22   24 1   
    44   23   26 1   
    45   24   25 1   
    46   25   26 1   
    47   25   43 1   
    48   25   44 1   
@<TRIPOS>SUBSTRUCTURE
     1 CTI         1 TEMP              0 ****  ****    0 ROOT
