@<TRIPOS>MOLECULE
CTI
   44    48     1     0     0
SMALL
bcc


@<TRIPOS>ATOM
      1 C1         -0.0610    0.0540    0.1380 ca        1 CTI     -0.155000
      2 C2          1.3640   -0.0710    0.1320 ca        1 CTI     -0.028000
      3 C3          2.0630   -0.1680    1.3650 ca        1 CTI     -0.016000
      4 C4          1.3760   -0.3120    2.6120 ca        1 CTI     -0.109000
      5 C5          2.1410   -0.0370   -1.0850 ca        1 CTI     -0.009300
      6 C6          3.5260    0.2690   -1.0210 ca        1 CTI     -0.011000
      7 C7          4.1780    0.2130    0.2400 ca        1 CTI     -0.124000
      8 C8          3.4820   -0.0590    1.3840 ca        1 CTI     -0.069000
      9 N9          1.5710   -0.2990   -2.3530 na        1 CTI      0.023900
     10 C10         4.2550    0.6140   -2.2170 ca        1 CTI      0.030000
     11 C11         3.5730    0.5100   -3.4610 ca        1 CTI     -0.131000
     12 C12         2.2520   -0.0120   -3.4740 ca        1 CTI      0.075700
     13 C13         0.3280   -1.0470   -2.4940 c3        1 CTI     -0.029400
     14 C14         5.5470    1.3320   -4.6370 ca        1 CTI      0.065100
     15 C15         6.2110    1.4220   -3.4010 ca        1 CTI     -0.091000
     16 C16         5.5820    1.0700   -2.2160 ca        1 CTI     -0.131000
     17 C17         4.2160    0.8750   -4.6810 ca        1 CTI      0.182100
     18 O18         3.4240    0.7250   -5.7860 os        1 CTI     -0.335900
     19 C19         3.9560    1.0620   -7.0720 c3        1 CTI      0.124700
     20 O20         6.1280    1.6710   -5.8400 os        1 CTI     -0.326900
     21 C21         7.4730    2.1490   -5.7930 c3        1 CTI      0.107700
     22 C22        -0.6970   -0.0680    1.3410 ca        1 CTI      0.103100
     23 C23         0.0130   -0.2750    2.5730 ca        1 CTI      0.094100
     24 O24        -2.0520    0.0000    1.6070 os        1 CTI     -0.320900
     25 C25        -2.2190   -0.1840    3.0370 c3        1 CTI      0.320200
     26 O26        -0.8970   -0.3610    3.6100 os        1 CTI     -0.311900
     27 H1         -0.6370    0.3110   -0.7590 ha        1 CTI      0.160000
     28 H4          1.9390   -0.4290    3.5480 ha        1 CTI      0.179000
     29 H7          5.2680    0.3680    0.2890 ha        1 CTI      0.160000
     30 H8          4.0060   -0.1600    2.3500 ha        1 CTI      0.165000
     31 H12         1.7600   -0.2190   -4.4520 h4        1 CTI      0.212000
     32 H13         0.1390   -1.6570   -1.5690 h1        1 CTI      0.094700
     33 H13A       -0.5240   -0.3380   -2.6780 h1        1 CTI      0.094700
     34 H13B        0.4110   -1.7480   -3.3700 h1        1 CTI      0.094700
     35 H15         7.2530    1.7830   -3.3640 ha        1 CTI      0.168000
     36 H16         6.1410    1.1700   -1.2720 ha        1 CTI      0.163000
     37 H19         3.0960    0.8420   -7.7550 h1        1 CTI      0.069033
     38 H19A        4.2330    2.1430   -7.1040 h1        1 CTI      0.069033
     39 H19B        4.8350    0.4150   -7.3070 h1        1 CTI      0.069033
     40 H21         8.1550    1.3630   -5.3890 h1        1 CTI      0.061700
     41 H21A        7.5360    3.0870   -5.1910 h1        1 CTI      0.061700
     42 H21B        7.7010    2.3550   -6.8710 h1        1 CTI      0.061700
     43 H25        -2.6710    0.7450    3.4640 h2        1 CTI      0.096200
     44 H25A       -2.8090   -1.1180    3.2080 h2        1 CTI      0.096200
@<TRIPOS>BOND
     1    1    2 ar  
     2    1   22 ar  
     3    1   27 1   
     4    2    3 ar  
     5    2    5 ar  
     6    3    4 ar  
     7    3    8 ar  
     8    4   23 ar  
     9    4   28 1   
    10    5    6 ar  
    11    5    9 1   
    12    6    7 ar  
    13    6   10 ar  
    14    7    8 ar  
    15    7   29 1   
    16    8   30 1   
    17    9   12 2   
    18    9   13 1   
    19   10   11 ar  
    20   10   16 ar  
    21   11   12 ar  
    22   11   17 ar  
    23   12   31 1   
    24   13   32 1   
    25   13   33 1   
    26   13   34 1   
    27   14   15 ar  
    28   14   17 ar  
    29   14   20 1   
    30   15   16 ar  
    31   15   35 1   
    32   16   36 1   
    33   17   18 1   
    34   18   19 1   
    35   19   37 1   
    36   19   38 1   
    37   19   39 1   
    38   20   21 1   
    39   21   40 1   
    40   21   41 1   
    41   21   42 1   
    42   22   23 ar  
    43   22   24 1   
    44   23   26 1   
    45   24   25 1   
    46   25   26 1   
    47   25   43 1   
    48   25   44 1   
@<TRIPOS>SUBSTRUCTURE
     1 CTI         1 TEMP              0 ****  ****    0 ROOT
