@<TRIPOS>MOLECULE
CTI
   44    48     1     0     0
SMALL
bcc


@<TRIPOS>ATOM
      1 C1         -0.0600    0.0490    0.1380 ca        1 CTI     -0.155000
      2 C2          1.3650   -0.0710    0.1330 ca        1 CTI     -0.028000
      3 C3          2.0640   -0.1620    1.3670 ca        1 CTI     -0.016000
      4 C4          1.3780   -0.3050    2.6130 ca        1 CTI     -0.109000
      5 C5          2.1430   -0.0370   -1.0840 ca        1 CTI     -0.009300
      6 C6          3.5260    0.2730   -1.0210 ca        1 CTI     -0.011000
      7 C7          4.1790    0.2230    0.2410 ca        1 CTI     -0.124000
      8 C8          3.4830   -0.0480    1.3850 ca        1 CTI     -0.069000
      9 N9          1.5730   -0.3040   -2.3520 na        1 CTI      0.023900
     10 C10         4.2540    0.6180   -2.2170 ca        1 CTI      0.030000
     11 C11         3.5730    0.5090   -3.4610 ca        1 CTI     -0.131000
     12 C12         2.2530   -0.0170   -3.4730 ca        1 CTI      0.075700
     13 C13         0.3330   -1.0570   -2.4910 c3        1 CTI     -0.029400
     14 C14         5.5440    1.3350   -4.6390 ca        1 CTI      0.065100
     15 C15         6.2080    1.4300   -3.4030 ca        1 CTI     -0.091000
     16 C16         5.5800    1.0780   -2.2180 ca        1 CTI     -0.131000
     17 C17         4.2150    0.8720   -4.6820 ca        1 CTI      0.182100
     18 O18         3.4240    0.7170   -5.7860 os        1 CTI     -0.335900
     19 C19         3.9540    1.0520   -7.0730 c3        1 CTI      0.124700
     20 O20         6.1240    1.6720   -5.8430 os        1 CTI     -0.326900
     21 C21         7.4680    2.1530   -5.7980 c3        1 CTI      0.107700
     22 C22        -0.6960   -0.0710    1.3420 ca        1 CTI      0.103100
     23 C23         0.0150   -0.2730    2.5740 ca        1 CTI      0.094100
     24 O24        -2.0510   -0.0070    1.6070 os        1 CTI     -0.320900
     25 C25        -2.2170   -0.1890    3.0380 c3        1 CTI      0.320200
     26 O26        -0.8950   -0.3590    3.6110 os        1 CTI     -0.311900
     27 H1         -0.6370    0.3020   -0.7590 ha        1 CTI      0.160000
     28 H4          1.9420   -0.4180    3.5500 ha        1 CTI      0.179000
     29 H7          5.2680    0.3820    0.2900 ha        1 CTI      0.160000
     30 H8          4.0070   -0.1450    2.3520 ha        1 CTI      0.165000
     31 H12         1.7630   -0.2290   -4.4510 h4        1 CTI      0.212000
     32 H13         0.1460   -1.6650   -1.5650 h1        1 CTI      0.094700
     33 H13A       -0.5210   -0.3510   -2.6770 h1        1 CTI      0.094700
     34 H13B        0.4190   -1.7600   -3.3650 h1        1 CTI      0.094700
     35 H15         7.2490    1.7940   -3.3670 ha        1 CTI      0.168000
     36 H16         6.1380    1.1830   -1.2740 ha        1 CTI      0.163000
     37 H19         4.2280    2.1340   -7.1080 h1        1 CTI      0.069033
     38 H19A        4.8360    0.4080   -7.3070 h1        1 CTI      0.069033
     39 H19B        3.0950    0.8290   -7.7570 h1        1 CTI      0.069033
     40 H21         7.6960    2.3570   -6.8760 h1        1 CTI      0.061700
     41 H21A        7.5290    3.0930   -5.1970 h1        1 CTI      0.061700
     42 H21B        8.1520    1.3700   -5.3910 h1        1 CTI      0.061700
     43 H25        -2.6730    0.7400    3.4630 h2        1 CTI      0.096200
     44 H25A       -2.8040   -1.1240    3.2120 h2        1 CTI      0.096200
@<TRIPOS>BOND
     1    1    2 ar  
     2    1   22 ar  
     3    1   27 1   
     4    2    3 ar  
     5    2    5 ar  
     6    3    4 ar  
     7    3    8 ar  
     8    4   23 ar  
     9    4   28 1   
    10    5    6 ar  
    11    5    9 1   
    12    6    7 ar  
    13    6   10 ar  
    14    7    8 ar  
    15    7   29 1   
    16    8   30 1   
    17    9   12 2   
    18    9   13 1   
    19   10   11 ar  
    20   10   16 ar  
    21   11   12 ar  
    22   11   17 ar  
    23   12   31 1   
    24   13   32 1   
    25   13   33 1   
    26   13   34 1   
    27   14   15 ar  
    28   14   17 ar  
    29   14   20 1   
    30   15   16 ar  
    31   15   35 1   
    32   16   36 1   
    33   17   18 1   
    34   18   19 1   
    35   19   37 1   
    36   19   38 1   
    37   19   39 1   
    38   20   21 1   
    39   21   40 1   
    40   21   41 1   
    41   21   42 1   
    42   22   23 ar  
    43   22   24 1   
    44   23   26 1   
    45   24   25 1   
    46   25   26 1   
    47   25   43 1   
    48   25   44 1   
@<TRIPOS>SUBSTRUCTURE
     1 CTI         1 TEMP              0 ****  ****    0 ROOT
