@<TRIPOS>MOLECULE
CTI
   44    39     1     0     0
SMALL
bcc


@<TRIPOS>ATOM
      1 C1         -2.7140    0.1200    2.0600 c1        1 CTI     -0.132000
      2 C2         -1.3370   -0.0600    2.0640 c1        1 CTI     -0.028000
      3 C3         -0.6540   -0.1610    3.2670 c1        1 CTI     -0.016000
      4 C4         -1.3530   -0.0820    4.4710 c1        1 CTI     -0.132000
      5 C5         -0.6140   -0.0540    0.8300 c1        1 CTI      0.015000
      6 C6          0.7670   -0.1490    0.8330 c1        1 CTI      0.009500
      7 C7          1.4750   -0.2530    2.0680 c1        1 CTI     -0.127500
      8 C8          0.7810   -0.2600    3.2680 c1        1 CTI     -0.069000
      9 N9         -1.3110    0.0610   -0.3920 n2        1 CTI     -0.044000
     10 C10         1.4740   -0.1310   -0.3860 c1        1 CTI      0.009500
     11 C11         0.7860   -0.0190   -1.5770 c1        1 CTI     -0.131000
     12 C12        -0.6290    0.0780   -1.5720 c1        1 CTI      0.100000
     13 C13        -2.5940   -0.5080   -0.8620 c3        1 CTI     -0.128000
     14 C14         2.8830    0.0770   -2.7860 c1        1 CTI      0.020000
     15 C15         3.5760   -0.0360   -1.5820 c1        1 CTI     -0.091000
     16 C16         2.8790   -0.1400   -0.3850 c1        1 CTI     -0.127500
     17 C17         1.4940    0.0860   -2.7900 c1        1 CTI      0.137000
     18 O18         0.8750   -0.2070   -4.0630 os        1 CTI     -0.219000
     19 C19         0.7510    0.9020   -4.9020 c3        1 CTI     -0.065000
     20 O20         3.4830   -0.1900   -4.0820 os        1 CTI     -0.210000
     21 C21         4.9120   -0.0520   -4.1080 c3        1 CTI     -0.082000
     22 C22        -3.4130    0.2000    3.2680 c1        1 CTI      0.053500
     23 C23        -2.7360    0.0990    4.4650 c1        1 CTI      0.053500
     24 O24        -4.8290    0.1460    3.5530 os        1 CTI     -0.199500
     25 C25        -4.9820   -0.0570    4.9210 c3        1 CTI      0.098000
     26 O26        -3.7130    0.0270    5.5170 os        1 CTI     -0.199500
     27 H1         -3.1760    0.2400    1.2330 ha        1 CTI      0.169500
     28 H4         -0.8910   -0.1750    5.2970 ha        1 CTI      0.169500
     29 H7          2.4550   -0.3320    2.0650 ha        1 CTI      0.161500
     30 H8          1.2660   -0.3430    4.1120 ha        1 CTI      0.165000
     31 H12        -1.1270    0.2010   -2.4380 ha        1 CTI      0.212000
     32 H13        -2.4410   -1.0440   -1.6490 h1        1 CTI      0.134000
     33 H13A       -2.9720   -1.0570   -0.1690 h1        1 CTI      0.134000
     34 H13B       -3.1930    0.1930   -1.0720 h1        1 CTI      0.134000
     35 H15         4.5390   -0.0420   -1.5810 ha        1 CTI      0.168000
     36 H16         3.3530   -0.2200    0.4350 ha        1 CTI      0.161500
     37 H19        -0.2070    0.9440   -5.2800 h1        1 CTI      0.108333
     38 H19A        0.9360    1.7130   -4.3960 h1        1 CTI      0.108333
     39 H19B        1.4030    0.8240   -5.6540 h1        1 CTI      0.108333
     40 H21         5.1610    0.8320   -3.7750 h1        1 CTI      0.101000
     41 H21A        5.2370   -0.1570   -5.0440 h1        1 CTI      0.101000
     42 H21B        5.3130   -0.7310   -3.5500 h1        1 CTI      0.101000
     43 H25        -5.3500   -0.9070    5.0770 h2        1 CTI      0.135500
     44 H25A       -5.5640    0.6260    5.2910 h2        1 CTI      0.135500
@<TRIPOS>BOND
     1    1   22 1   
     2    1   27 1   
     3    2    3 1   
     4    2    5 1   
     5    3    8 1   
     6    4   23 1   
     7    4   28 1   
     8    5    9 1   
     9    6    7 1   
    10    6   10 1   
    11    7   29 1   
    12    8   30 1   
    13    9   13 1   
    14   10   16 1   
    15   11   12 1   
    16   11   17 1   
    17   12   31 1   
    18   13   32 1   
    19   13   33 1   
    20   13   34 1   
    21   14   15 1   
    22   14   20 1   
    23   15   35 1   
    24   16   36 1   
    25   17   18 1   
    26   18   19 1   
    27   19   37 1   
    28   19   38 1   
    29   19   39 1   
    30   20   21 1   
    31   21   40 1   
    32   21   41 1   
    33   21   42 1   
    34   22   24 1   
    35   23   26 1   
    36   24   25 1   
    37   25   26 1   
    38   25   43 1   
    39   25   44 1   
@<TRIPOS>SUBSTRUCTURE
     1 CTI         1 TEMP              0 ****  ****    0 ROOT
