@<TRIPOS>MOLECULE
CTJ
   60    62     1     0     0
SMALL
bcc


@<TRIPOS>ATOM
      1 C          -0.9320   -1.4090    1.4790 c         1 CTJ      0.567900
      2 O          -1.0830   -2.4670    2.0860 o         1 CTJ     -0.539100
      3 S1         -1.7100    2.2600    1.3210 ss        1 CTJ     -0.329200
      4 C2         -2.3760    1.5220   -0.1420 c3        1 CTJ      0.048900
      5 C3         -3.5060    0.6070    0.1200 c2        1 CTJ     -0.369400
      6 C4         -3.8030    0.0840    1.3570 ce        1 CTJ      0.146800
      7 N5         -2.9530    0.1480    2.4340 nh        1 CTJ     -0.740000
      8 C6         -1.6950    0.8340    2.4280 c3        1 CTJ      0.308600
      9 CA         -0.4790   -0.1400    2.2120 c3        1 CTJ     -0.022300
     10 N10         0.6180    0.4810    1.5180 n         1 CTJ     -0.525900
     11 C11         1.8810    0.5460    2.0620 c         1 CTJ      0.584800
     12 O12         2.1260    0.2580    3.2510 o         1 CTJ     -0.621100
     13 C13         2.9870    1.0250    1.1420 ce        1 CTJ      0.255300
     14 C14         3.9010    2.0080    1.7460 cc        1 CTJ      0.361000
     15 C15         5.2840    1.9920    1.5910 cd        1 CTJ     -0.236400
     16 N16         3.2190    0.6190   -0.0850 n2        1 CTJ     -0.376200
     17 S16         5.9990    3.2400    2.4320 ss        1 CTJ     -0.109300
     18 C17         4.4370    3.7730    3.0040 cd        1 CTJ      0.559300
     19 O17         2.4160   -0.3050   -0.5350 os        1 CTJ     -0.171300
     20 C18         2.3420   -0.4930   -1.9980 c3        1 CTJ      0.060800
     21 N18         4.3710    4.9280    3.8100 nh        1 CTJ     -0.875500
     22 C19         2.7020    0.7340   -2.8070 c3        1 CTJ     -0.095100
     23 N19         3.4130    3.0270    2.5580 nc        1 CTJ     -0.631000
     24 C20         3.2300   -1.6720   -2.3380 c3        1 CTJ     -0.095100
     25 C21         0.8370   -0.8150   -2.2160 c         1 CTJ      0.930600
     26 O2A         0.5050   -1.4940   -3.2250 o         1 CTJ     -0.845800
     27 O2B        -0.0010   -0.3560   -1.3830 o         1 CTJ     -0.845800
     28 C3'        -4.3330    0.2770   -1.0630 c3        1 CTJ      0.103500
     29 C4'        -5.1700   -0.6000    1.6590 c         1 CTJ      0.922800
     30 O4A        -5.7150   -1.2710    0.7390 o         1 CTJ     -0.815300
     31 O4B        -5.6500   -0.4210    2.8040 o         1 CTJ     -0.815300
     32 H          -1.0910   -1.3050    0.3810 h4        1 CTJ      0.048200
     33 H2         -2.7090    2.3870   -0.7720 h1        1 CTJ      0.079200
     34 H2A        -1.5440    0.9980   -0.6840 h1        1 CTJ      0.079200
     35 HN5        -3.3640   -0.0520    3.3240 hn        1 CTJ      0.460800
     36 H6         -1.5300    1.3140    3.4380 h2        1 CTJ      0.082700
     37 HA         -0.1290   -0.4390    3.2490 h1        1 CTJ      0.099700
     38 HN10        0.5000    0.5940    0.5260 hn        1 CTJ      0.364500
     39 H15         5.8310    1.2590    1.0000 h4        1 CTJ      0.188000
     40 HN18        3.5300    5.4490    3.6370 hn        1 CTJ      0.375300
     41 HN1A        4.4050    4.6710    4.7810 hn        1 CTJ      0.375300
     42 H19         3.7910    0.9660   -2.7340 hc        1 CTJ      0.043033
     43 H19A        2.4460    0.5350   -3.8770 hc        1 CTJ      0.043033
     44 H19B        2.1170    1.6170   -2.4550 hc        1 CTJ      0.043033
     45 H20         3.0720   -2.4940   -1.5990 hc        1 CTJ      0.043033
     46 H20A        2.9550   -2.0430   -3.3540 hc        1 CTJ      0.043033
     47 H20B        4.3060   -1.3760   -2.3210 hc        1 CTJ      0.043033
     48 H3'        -5.4280    0.2330   -0.7870 h1        1 CTJ      0.080700
     49 H3'A       -4.1770    1.0340   -1.8840 h1        1 CTJ      0.080700
     50 N6         -3.9790   -1.0360   -1.6660 na        1 CTJ      0.044900
     51 C26        -4.9090   -2.0360   -1.7380 ca        1 CTJ     -0.020800
     52 C25        -4.5900   -3.2780   -2.3010 ca        1 CTJ     -0.173500
     53 C24        -3.2990   -3.5130   -2.7830 ca        1 CTJ     -0.056000
     54 C23        -2.3500   -2.4970   -2.6900 ca        1 CTJ     -0.173500
     55 C22        -2.7120   -1.2670   -2.1180 ca        1 CTJ     -0.020800
     56 H26        -5.9060   -1.8360   -1.2860 h4        1 CTJ      0.248000
     57 H25        -5.3630   -4.0590   -2.3300 ha        1 CTJ      0.196000
     58 H24        -3.0330   -4.4880   -3.2170 ha        1 CTJ      0.148000
     59 H23        -1.2960   -2.6030   -3.0310 ha        1 CTJ      0.196000
     60 H22        -1.9320   -0.4680   -1.9960 h4        1 CTJ      0.248000
@<TRIPOS>BOND
     1    1    2 2   
     2    1    9 1   
     3    1   32 1   
     4    3    4 1   
     5    3    8 1   
     6    4    5 1   
     7    4   33 1   
     8    4   34 1   
     9    5    6 2   
    10    5   28 1   
    11    6    7 1   
    12    6   29 1   
    13    7    8 1   
    14    7   35 1   
    15    8    9 1   
    16    8   36 1   
    17    9   10 1   
    18    9   37 1   
    19   10   11 1   
    20   10   38 1   
    21   11   12 2   
    22   11   13 1   
    23   13   14 1   
    24   13   16 2   
    25   14   15 2   
    26   14   23 1   
    27   15   17 1   
    28   15   39 1   
    29   16   19 1   
    30   17   18 1   
    31   18   21 1   
    32   18   23 2   
    33   19   20 1   
    34   20   22 1   
    35   20   24 1   
    36   20   25 1   
    37   21   40 1   
    38   21   41 1   
    39   22   42 1   
    40   22   43 1   
    41   22   44 1   
    42   24   45 1   
    43   24   46 1   
    44   24   47 1   
    45   25   26 1   
    46   25   27 1   
    47   28   48 1   
    48   28   49 1   
    49   28   50 1   
    50   29   30 1   
    51   29   31 1   
    52   50   51 1   
    53   50   55 2   
    54   51   52 ar  
    55   51   56 1   
    56   52   53 ar  
    57   52   57 1   
    58   53   54 ar  
    59   53   58 1   
    60   54   55 ar  
    61   54   59 1   
    62   55   60 1   
@<TRIPOS>SUBSTRUCTURE
     1 CTJ         1 TEMP              0 ****  ****    0 ROOT
