@<TRIPOS>MOLECULE
CTJ
   61    63     1     0     0
SMALL
bcc


@<TRIPOS>ATOM
      1 C          -1.0240    1.0760    0.2790 c         1 CTJ      0.545900
      2 O           0.0480    1.5340   -0.1180 o         1 CTJ     -0.541100
      3 S1         -1.4470    3.2130    2.7910 ss        1 CTJ     -0.331200
      4 C2         -2.3630    4.5100    1.9990 c3        1 CTJ      0.070900
      5 C3         -3.0420    4.0870    0.7640 c2        1 CTJ     -0.318400
      6 C4         -3.5780    2.8380    0.6120 ce        1 CTJ      0.091800
      7 N5         -3.5250    1.8670    1.6070 nh        1 CTJ     -0.699000
      8 C6         -2.3160    1.6890    2.3720 c3        1 CTJ      0.278600
      9 CA         -1.2990    0.6800    1.7270 c3        1 CTJ     -0.040300
     10 N10        -0.1080    0.5260    2.5190 n         1 CTJ     -0.526900
     11 C11         0.1220   -0.5910    3.2830 c         1 CTJ      0.587800
     12 O12        -0.6560   -1.5680    3.2990 o         1 CTJ     -0.616100
     13 C13         1.4140   -0.6420    4.0760 ce        1 CTJ      0.293300
     14 C14         1.7380    0.5170    4.9150 cc        1 CTJ      0.313000
     15 C15         3.0050    0.8110    5.4110 cd        1 CTJ     -0.228400
     16 N16         2.2110   -1.6860    4.0770 n2        1 CTJ     -0.373200
     17 S16         2.9860    2.2000    6.3260 ss        1 CTJ     -0.077300
     18 C17         1.2630    2.3740    6.0680 cd        1 CTJ      0.600300
     19 O17         1.8550   -2.6490    3.2550 os        1 CTJ     -0.196300
     20 C18         2.4730   -3.9620    3.4890 c3        1 CTJ      0.090800
     21 N18         0.6040    3.5100    6.5480 nh        1 CTJ     -0.884500
     22 C19         3.8630   -3.9710    2.8850 c3        1 CTJ     -0.111600
     23 N19         0.7340    1.4020    5.3010 nc        1 CTJ     -0.672000
     24 C20         2.4800   -4.3580    4.9540 c3        1 CTJ     -0.111600
     25 C21         1.5410   -4.9040    2.7280 c         1 CTJ      0.636100
     26 O2A         1.8620   -6.0270    2.3360 o         1 CTJ     -0.500000
     27 O2B         0.2590   -4.5550    2.4670 oh        1 CTJ     -0.569100
     28 C3'        -3.2140    5.1140   -0.2960 c3        1 CTJ      0.075500
     29 C4'        -4.2550    2.4130   -0.7190 c         1 CTJ      0.900800
     30 O4A        -5.0200    3.2310   -1.2940 o         1 CTJ     -0.798300
     31 O4B        -3.9190    1.2830   -1.1540 o         1 CTJ     -0.798300
     32 H          -1.8940    0.9080   -0.4050 h4        1 CTJ      0.071200
     33 H2         -1.6170    5.3230    1.8110 h1        1 CTJ      0.065700
     34 H2A        -3.1180    4.8980    2.7310 h1        1 CTJ      0.065700
     35 HN5        -3.9180    0.9900    1.3040 hn        1 CTJ      0.436800
     36 H6         -2.6250    1.2480    3.3660 h2        1 CTJ      0.106700
     37 HA         -1.8210   -0.3310    1.6880 h1        1 CTJ      0.115700
     38 HN10        0.0530   -3.6610    2.7970 ho        1 CTJ      0.470000
     39 H15         3.8990    0.2130    5.2350 h4        1 CTJ      0.195000
     40 HN18       -0.3160    3.6300    6.1670 hn        1 CTJ      0.398300
     41 HN1A        0.5910    3.5370    7.5490 hn        1 CTJ      0.398300
     42 H19         4.5590   -3.3660    3.5140 hc        1 CTJ      0.062533
     43 H19A        3.8380   -3.5370    1.8560 hc        1 CTJ      0.062533
     44 H19B        4.2310   -5.0240    2.8260 hc        1 CTJ      0.062533
     45 H20         2.7350   -5.4430    5.0350 hc        1 CTJ      0.062533
     46 H20A        3.2410   -3.7670    5.5170 hc        1 CTJ      0.062533
     47 H20B        1.4760   -4.1840    5.4090 hc        1 CTJ      0.062533
     48 H3'        -4.3010    5.1470   -0.6190 h1        1 CTJ      0.103200
     49 H3'A       -2.8960    6.1300    0.0730 h1        1 CTJ      0.103200
     50 N6         -2.4000    4.8340   -1.5040 na        1 CTJ      0.041900
     51 C26        -2.9940    4.5200   -2.6910 ca        1 CTJ     -0.016300
     52 C25        -2.2210    4.2190   -3.8270 ca        1 CTJ     -0.155500
     53 C24        -0.8320    4.2200   -3.7380 ca        1 CTJ     -0.030000
     54 C23        -0.2290    4.5300   -2.5110 ca        1 CTJ     -0.155500
     55 C22        -1.0330    4.8260   -1.4090 ca        1 CTJ     -0.016300
     56 H26        -4.1120    4.4530   -2.7050 h4        1 CTJ      0.229500
     57 H25        -2.7410    3.9570   -4.7620 ha        1 CTJ      0.182000
     58 H24        -0.2110    3.9670   -4.6140 ha        1 CTJ      0.168000
     59 H23         0.8650    4.5190   -2.3930 ha        1 CTJ      0.182000
     60 H22        -0.6030    5.0420   -0.4100 h4        1 CTJ      0.229500
     61 H102        0.4990    1.3130    2.5740 hn        1 CTJ      0.341500
@<TRIPOS>BOND
     1    1    2 2   
     2    1    9 1   
     3    1   32 1   
     4    3    4 1   
     5    3    8 1   
     6    4    5 1   
     7    4   33 1   
     8    4   34 1   
     9    5    6 2   
    10    5   28 1   
    11    6    7 1   
    12    6   29 1   
    13    7    8 1   
    14    7   35 1   
    15    8    9 1   
    16    8   36 1   
    17    9   10 1   
    18    9   37 1   
    19   10   11 1   
    20   10   61 1   
    21   11   12 2   
    22   11   13 1   
    23   13   14 1   
    24   13   16 2   
    25   14   15 2   
    26   14   23 1   
    27   15   17 1   
    28   15   39 1   
    29   16   19 1   
    30   17   18 1   
    31   18   21 1   
    32   18   23 2   
    33   19   20 1   
    34   20   22 1   
    35   20   24 1   
    36   20   25 1   
    37   21   40 1   
    38   21   41 1   
    39   22   42 1   
    40   22   43 1   
    41   22   44 1   
    42   24   45 1   
    43   24   46 1   
    44   24   47 1   
    45   25   26 2   
    46   25   27 1   
    47   27   38 1   
    48   28   48 1   
    49   28   49 1   
    50   28   50 1   
    51   29   30 1   
    52   29   31 1   
    53   50   51 1   
    54   50   55 2   
    55   51   52 ar  
    56   51   56 1   
    57   52   53 ar  
    58   52   57 1   
    59   53   54 ar  
    60   53   58 1   
    61   54   55 ar  
    62   54   59 1   
    63   55   60 1   
@<TRIPOS>SUBSTRUCTURE
     1 CTJ         1 TEMP              0 ****  ****    0 ROOT
