@<TRIPOS>MOLECULE
CTJ
   60    55     1     0     0
SMALL
bcc


@<TRIPOS>ATOM
      1 C           1.9000   -0.7660   -2.3710 c1        1 CTJ      0.179000
      2 O           3.0650   -0.7540   -2.0080 o         1 CTJ     -0.287000
      3 S1          1.2930    2.0740   -1.5920 ss        1 CTJ     -0.006000
      4 C2          0.5660    3.7710   -1.4780 c3        1 CTJ     -0.172000
      5 C3          0.3900    3.8470   -1.0180 c2        1 CTJ     -0.426000
      6 C4         -1.0280    2.2960   -0.5770 c1        1 CTJ      0.097000
      7 N5         -0.4460    0.8000   -0.9490 n2        1 CTJ     -0.264000
      8 C6          0.2590    0.7530   -0.7980 c3        1 CTJ     -0.061000
      9 CA          0.8900   -0.9620   -1.4450 c2        1 CTJ     -0.053000
     10 N10         1.3380   -1.6620   -0.4550 n         1 CTJ     -0.341000
     11 C11         1.0920   -3.0980   -0.4100 c2        1 CTJ      0.352000
     12 O12         0.8770   -3.7120   -1.4400 o         1 CTJ     -0.334000
     13 C13         1.1590   -3.8500    0.9380 c2        1 CTJ     -0.156000
     14 C14         2.5020   -4.3570    1.4650 c2        1 CTJ     -0.004000
     15 C15         3.1960   -3.8570    2.6260 c1        1 CTJ     -0.419000
     16 N16         0.0520   -4.0570    1.6380 n1        1 CTJ      0.118000
     17 S16         4.4750   -4.6810    2.7990 ss        1 CTJ      0.469000
     18 C17         4.5140   -5.7200    1.6630 c1        1 CTJ     -0.204000
     19 O17        -1.1550   -3.6020    1.1660 o         1 CTJ     -0.187000
     20 C18        -2.2050   -3.9990    2.0540 c3        1 CTJ      0.017000
     21 N18         5.7360   -6.4320    1.8570 n2        1 CTJ     -0.274000
     22 C19        -2.1480   -3.1510    3.3200 c3        1 CTJ     -0.207500
     23 N19         3.3420   -5.5380    0.8590 n2        1 CTJ     -0.178000
     24 C20        -3.5430   -3.8030    1.3720 c3        1 CTJ     -0.207500
     25 C21        -2.0330   -5.4680    2.4200 c2        1 CTJ      0.338000
     26 O2A        -1.5120   -6.2630    1.5980 o         1 CTJ     -0.550500
     27 O2B        -2.4620   -5.8960    3.5250 o         1 CTJ     -0.550500
     28 C3'         0.1390    5.2870   -0.5150 c3        1 CTJ      0.049000
     29 C4'        -2.0130    2.4670    0.5720 c2        1 CTJ      0.361000
     30 O4A        -1.5910    2.5880    1.7480 o         1 CTJ     -0.520000
     31 O4B        -3.2530    2.4640    0.3440 o         1 CTJ     -0.520000
     32 H           1.6830   -0.6930   -3.3250 ha        1 CTJ      0.102000
     33 H2          0.0350    3.9630   -2.2870 h1        1 CTJ      0.092500
     34 H2A         1.2690    4.4580   -1.5700 h1        1 CTJ      0.092500
     35 HN5        -0.9830    0.0660   -0.8580 hn        1 CTJ      0.281000
     36 H6          0.3820    0.7930    0.1770 h2        1 CTJ      0.123000
     37 HA          0.1450   -1.4420   -1.8730 h4        1 CTJ      0.156000
     38 HN10        1.8780   -1.2750    0.1660 hn        1 CTJ      0.225000
     39 H15         2.9310   -3.0970    3.1650 DU        1 CTJ      0.219000
     40 HN18        5.9120   -7.1860    1.3620 hn        1 CTJ      0.173500
     41 HN1A        6.3600   -6.1200    2.4560 hn        1 CTJ      0.173500
     42 H19        -2.2490   -2.2010    3.0840 hc        1 CTJ      0.078833
     43 H19A       -2.8780   -3.4180    3.9280 hc        1 CTJ      0.078833
     44 H19B       -1.2880   -3.2870    3.7650 hc        1 CTJ      0.078833
     45 H20        -4.2390   -4.2660    1.8800 hc        1 CTJ      0.078833
     46 H20A       -3.5040   -4.1680    0.4640 hc        1 CTJ      0.078833
     47 H20B       -3.7510   -2.8470    1.3300 hc        1 CTJ      0.078833
     48 H3'         1.0010    5.7350   -0.3560 h1        1 CTJ      0.125500
     49 H3'A       -0.3770    5.2560    0.3270 h1        1 CTJ      0.125500
     50 N6         -0.6080    6.0200   -1.5100 n3        1 CTJ     -0.016000
     51 C26        -1.9600    5.8830   -1.5810 c2        1 CTJ      0.071000
     52 C25        -2.6810    6.5810   -2.5430 c1        1 CTJ     -0.161000
     53 C24        -2.0320    7.4040   -3.4170 c1        1 CTJ     -0.110500
     54 C23        -0.6760    7.5410   -3.3460 c1        1 CTJ     -0.110500
     55 C22         0.0430    6.8420   -2.3840 c1        1 CTJ     -0.044000
     56 H26        -2.4220    5.2850   -0.9660 h4        1 CTJ      0.266000
     57 H25        -3.6390    6.4340   -2.6330 ha        1 CTJ      0.183000
     58 H24        -2.5410    7.8910   -4.1080 ha        1 CTJ      0.160500
     59 H23        -0.2120    8.1520   -3.9560 ha        1 CTJ      0.160500
     60 H22         1.0050    6.9770   -2.3010 ha        1 CTJ      0.179000
@<TRIPOS>BOND
     1    1    2 1   
     2    1   32 1   
     3    3    4 1   
     4    3    8 1   
     5    4    5 1   
     6    4   33 1   
     7    4   34 1   
     8    5    6 1   
     9    5   28 1   
    10    6   29 1   
    11    7    8 1   
    12    7   35 1   
    13    8    9 1   
    14    8   36 1   
    15    9   10 1   
    16    9   37 1   
    17   10   11 1   
    18   10   38 1   
    19   11   12 1   
    20   11   13 1   
    21   13   14 1   
    22   13   16 1   
    23   14   15 1   
    24   14   23 1   
    25   15   17 1   
    26   17   18 1   
    27   18   23 1   
    28   19   20 1   
    29   20   22 1   
    30   20   24 1   
    31   20   25 1   
    32   21   40 1   
    33   21   41 1   
    34   22   42 1   
    35   22   43 1   
    36   22   44 1   
    37   24   45 1   
    38   24   46 1   
    39   24   47 1   
    40   25   26 1   
    41   25   27 1   
    42   28   48 1   
    43   28   49 1   
    44   28   50 1   
    45   29   30 1   
    46   29   31 1   
    47   50   51 1   
    48   50   55 1   
    49   51   52 1   
    50   51   56 1   
    51   52   57 1   
    52   53   54 1   
    53   53   58 1   
    54   54   59 1   
    55   55   60 1   
@<TRIPOS>SUBSTRUCTURE
     1 CTJ         1 TEMP              0 ****  ****    0 ROOT
