@<TRIPOS>MOLECULE
CTJ
   61    79     1     0     0
SMALL
bcc


@<TRIPOS>ATOM
      1 C           0.0000    0.0000    0.0000 c2        1 CTJ      0.374000
      2 O           1.2080    0.0000    0.0000 o         1 CTJ     -0.213000
      3 S1         -0.5950    2.7450    1.2930 ss        1 CTJ     -0.167000
      4 C2         -1.8590    4.0520    1.2760 c3        1 CTJ      0.453000
      5 C3         -2.9520    3.6750    0.3190 c2        1 CTJ      0.776000
      6 C4         -3.2230    2.4590   -0.0950 c3        1 CTJ     -0.320000
      7 N5         -2.5550    1.2890    0.2430 ny        1 CTJ     -0.161000
      8 C6         -1.6320    1.2490    1.3870 DU        1 CTJ     -0.329000
      9 CA         -0.7540    0.0000    1.3050 DU        1 CTJ     -0.683000
     10 N10         0.1980   -0.0030    2.4190 ny        1 CTJ      0.300000
     11 C11         0.7120   -1.1660    2.8630 c2        1 CTJ      0.184000
     12 O12         0.4600   -2.2040    2.2830 o         1 CTJ     -0.184000
     13 C13         1.5860   -1.1800    4.0610 c2        1 CTJ     -0.077000
     14 C14         1.9890    0.0920    4.6970 c3        1 CTJ     -0.051000
     15 C15         2.8780    0.1440    5.7080 c2        1 CTJ     -0.274000
     16 N16         1.9980   -2.3150    4.5520 n2        1 CTJ      0.109000
     17 S16         3.0820    1.8290    6.1790 ss        1 CTJ      0.329000
     18 C17         1.9250    2.3180    4.9450 c2        1 CTJ     -0.131000
     19 O17         1.7090   -3.5260    3.8780 os        1 CTJ     -0.172000
     20 C18         2.2220   -4.6900    4.5280 DU        1 CTJ     -0.199000
     21 N18         1.5330    3.6210    4.6890 n8        1 CTJ     -0.260000
     22 C19         3.7450   -4.5850    4.6360 c3        1 CTJ      0.135000
     23 N19         1.5020    1.2710    4.3090 n7        1 CTJ     -0.344000
     24 C20         1.6190   -4.7980    5.9300 c3        1 CTJ      0.103000
     25 C21         1.8570   -5.9140    3.7290 c2        1 CTJ      0.411000
     26 O2A         2.2380   -7.1300    4.1520 o         1 CTJ     -0.428000
     27 O2B         1.2240   -5.8010    2.7060 o         1 CTJ     -0.428000
     28 C3'        -3.8170    4.7900   -0.2130 c3        1 CTJ      0.614000
     29 C4'        -4.3600    2.3190   -1.0240 c2        1 CTJ      0.355000
     30 O4A        -5.6230    2.4180   -0.5610 o         1 CTJ     -0.438000
     31 O4B        -4.1590    2.1170   -2.2050 o         1 CTJ     -0.438000
     32 H          -0.7970    0.6750   -0.2880 h4        1 CTJ      0.066000
     33 H2         -2.4710    3.9590    0.3870 h1        1 CTJ     -0.432500
     34 H2A        -2.4970    3.9090    0.4130 h1        1 CTJ     -0.432500
     35 HN5        -3.2630    1.6760   -0.3490 DU        1 CTJ      0.406000
     36 H6         -2.4720    1.6890    0.8630 DU        1 CTJ      0.217000
     37 HA         -1.5450    0.6570    0.9650 DU        1 CTJ      0.319000
     38 HN10       -0.0180   -0.0180    1.4420 DU        1 CTJ      0.309000
     39 H15         2.1220    0.7340    5.2040 DU        1 CTJ      0.252000
     40 HN18        0.9380    3.8980    3.9330 hn        1 CTJ      0.232000
     41 HN1A        0.9490    3.1850    4.0020 hn        1 CTJ      0.232000
     42 H19         3.0000   -3.8540    4.3460 DU        1 CTJ     -0.165000
     43 H19A        2.9640   -4.0230    4.1380 DU        1 CTJ     -0.165000
     44 H19B        3.2730   -3.7070    4.2110 DU        1 CTJ      0.265000
     45 H20         2.0470   -3.8050    5.9850 DU        1 CTJ     -0.258000
     46 H20A        1.6890   -3.7310    5.7580 DU        1 CTJ      0.166500
     47 H20B        1.4900   -3.7320    5.7890 DU        1 CTJ      0.166500
     48 H3'        -3.1080    4.0000    0.0020 DU        1 CTJ     -0.279500
     49 H3'A       -3.1680    4.1030    0.3170 DU        1 CTJ     -0.279500
     50 N6         -3.1540    5.4170   -1.3590 nx        1 CTJ      0.306000
     51 C26        -3.4850    5.0370   -2.5770 c3        1 CTJ     -0.557000
     52 C25        -2.8830    5.6060   -3.6830 c2        1 CTJ      0.224000
     53 C24        -1.9200    6.5870   -3.4990 c2        1 CTJ      0.103000
     54 C23        -1.6000    6.9600   -2.2030 c2        1 CTJ     -0.041000
     55 C22        -2.2480    6.3500   -1.1460 c3        1 CTJ     -0.214000
     56 H26        -3.3430    3.9650   -2.5140 hx        1 CTJ      0.187000
     57 H25        -3.5120    4.7410   -3.8560 DU        1 CTJ      0.305000
     58 H24        -2.8350    6.0110   -3.5660 ha        1 CTJ     -0.168000
     59 H23        -2.5980    6.5420   -2.1450 DU        1 CTJ      0.053000
     60 H22        -3.2460    6.0110   -0.8930 DU        1 CTJ      0.182000
     61 H102       -0.0040    0.8030    2.9770 hn        1 CTJ      0.155000
@<TRIPOS>BOND
     1    1    2 1   
     2    1    9 1   
     3    1   32 1   
     4    3    4 1   
     5    3    8 1   
     6    4    5 1   
     7    4   33 1   
     8    4   34 1   
     9    5    6 1   
    10    5   28 1   
    11    6    7 1   
    12    6   29 1   
    13    6   35 1   
    14    7    8 1   
    15    7   35 1   
    16    7   36 1   
    17    8    9 1   
    18    8   36 1   
    19    8   37 1   
    20    9   10 1   
    21    9   37 1   
    22    9   38 1   
    23   10   11 1   
    24   10   38 1   
    25   10   61 1   
    26   11   12 1   
    27   11   13 1   
    28   13   14 1   
    29   13   16 1   
    30   14   15 1   
    31   14   23 1   
    32   14   39 1   
    33   15   17 1   
    34   15   39 1   
    35   16   19 1   
    36   17   18 1   
    37   18   21 1   
    38   18   23 1   
    39   19   20 1   
    40   20   22 1   
    41   20   24 1   
    42   20   25 1   
    43   20   42 1   
    44   20   43 1   
    45   21   40 1   
    46   21   41 1   
    47   22   42 1   
    48   22   43 1   
    49   22   44 1   
    50   23   39 1   
    51   24   45 1   
    52   24   46 1   
    53   24   47 1   
    54   25   26 1   
    55   25   27 1   
    56   28   48 1   
    57   28   49 1   
    58   28   50 1   
    59   29   30 1   
    60   29   31 1   
    61   42   44 1   
    62   43   44 1   
    63   45   46 1   
    64   45   47 1   
    65   48   49 1   
    66   50   51 1   
    67   50   55 1   
    68   50   60 1   
    69   51   52 1   
    70   51   56 1   
    71   51   57 1   
    72   52   53 1   
    73   52   57 1   
    74   53   54 1   
    75   53   58 1   
    76   54   55 1   
    77   54   59 1   
    78   55   59 1   
    79   55   60 1   
@<TRIPOS>SUBSTRUCTURE
     1 CTJ         1 TEMP              0 ****  ****    0 ROOT
