@<TRIPOS>MOLECULE
CTL
   26    27     1     0     0
SMALL
bcc


@<TRIPOS>ATOM
      1 C1         -0.0170   -0.0150   -0.0600 c3        1 CTL      0.196400
      2 C2          1.5380    0.0110   -0.0200 c3        1 CTL      0.093500
      3 C3          2.0230    0.0090    1.4290 c3        1 CTL     -0.098400
      4 C4          1.6380   -1.3070    2.0740 c3        1 CTL     -0.039100
      5 C5          0.2160   -1.6770    1.8450 ca        1 CTL     -0.065300
      6 C10        -0.3580   -2.6670    2.6530 ca        1 CTL     -0.120000
      7 C6         -0.5540   -1.0870    0.8330 ca        1 CTL     -0.168300
      8 C7         -1.8820   -1.4910    0.6370 ca        1 CTL     -0.097000
      9 C8         -2.4420   -2.4760    1.4460 ca        1 CTL     -0.116000
     10 C9         -1.6780   -3.0640    2.4560 ca        1 CTL     -0.086000
     11 O11        -0.4830    1.2860    0.2660 oh        1 CTL     -0.629800
     12 N12         2.0490    1.2120   -0.7680 n4        1 CTL     -0.835600
     13 H1         -0.3510   -0.1950   -1.1260 h1        1 CTL      0.084700
     14 H2          1.9280   -0.9060   -0.5540 hx        1 CTL      0.117700
     15 H31         3.1360    0.1330    1.4840 hc        1 CTL      0.071700
     16 H32         1.5460    0.8610    1.9850 hc        1 CTL      0.071700
     17 H41         2.2930   -2.1300    1.6740 hc        1 CTL      0.081700
     18 H42         1.8390   -1.2340    3.1790 hc        1 CTL      0.081700
     19 H10         0.2430   -3.1330    3.4500 ha        1 CTL      0.152000
     20 H7         -2.4830   -1.0240   -0.1590 ha        1 CTL      0.148000
     21 H8         -3.4860   -2.7900    1.2880 ha        1 CTL      0.159000
     22 H9         -2.1190   -3.8450    3.0970 ha        1 CTL      0.158000
     23 H11        -0.9620    1.2480    1.1060 ho        1 CTL      0.452000
     24 H121        3.0580    1.3100   -0.6350 hn        1 CTL      0.463133
     25 H122        1.5690    2.0490   -0.4070 hn        1 CTL      0.463133
     26 H123        1.8360    1.1160   -1.7640 hn        1 CTL      0.463133
@<TRIPOS>BOND
     1    1    2 1   
     2    1    7 1   
     3    1   11 1   
     4    1   13 1   
     5    2    3 1   
     6    2   12 1   
     7    2   14 1   
     8    3    4 1   
     9    3   15 1   
    10    3   16 1   
    11    4    5 1   
    12    4   17 1   
    13    4   18 1   
    14    5    6 ar  
    15    5    7 ar  
    16    6   10 ar  
    17    6   19 1   
    18    7    8 ar  
    19    8    9 ar  
    20    8   20 1   
    21    9   10 ar  
    22    9   21 1   
    23   10   22 1   
    24   11   23 1   
    25   12   24 1   
    26   12   25 1   
    27   12   26 1   
@<TRIPOS>SUBSTRUCTURE
     1 CTL         1 TEMP              0 ****  ****    0 ROOT
