@<TRIPOS>MOLECULE
CTL
   25    24     1     0     0
SMALL
bcc


@<TRIPOS>ATOM
      1 C1         -0.2080    0.6750   -1.1950 c3        1 CTL      0.084000
      2 C2          1.2380    0.6750   -1.1950 c3        1 CTL     -0.064000
      3 C3          1.9060    0.6750    0.1250 c3        1 CTL     -0.157000
      4 C4          1.5020   -0.3490    1.0560 c3        1 CTL     -0.120000
      5 C5         -0.0740   -0.7550    1.0490 c2        1 CTL     -0.051000
      6 C10        -0.5870   -1.7170    1.8880 c1        1 CTL     -0.137000
      7 C6         -0.9340   -0.1750   -0.0130 c2        1 CTL     -0.071000
      8 C7         -2.3080   -0.3640    0.0550 c1        1 CTL     -0.104000
      9 C8         -2.8300   -1.3520    0.9200 c1        1 CTL     -0.129000
     10 C9         -1.9620   -2.0340    1.8430 c1        1 CTL     -0.129000
     11 O11        -0.6500    2.0350   -1.0970 oh        1 CTL     -0.322000
     12 N12         1.7040    1.9130   -1.9520 n3        1 CTL     -0.360000
     13 H1         -0.5100    0.3180   -2.0520 h1        1 CTL      0.074000
     14 H2          1.5400   -0.1130   -1.6860 h1        1 CTL      0.066000
     15 H31         2.8630    0.5650   -0.0330 hc        1 CTL      0.094000
     16 H32         1.7240    1.5380    0.5430 hc        1 CTL      0.094000
     17 H41         1.7170   -0.0290    1.9530 hc        1 CTL      0.091000
     18 H42         2.0130   -1.1530    0.8460 hc        1 CTL      0.091000
     19 H10         0.0000   -2.1800    2.5160 ha        1 CTL      0.130000
     20 H7         -2.8970    0.0980   -0.5710 ha        1 CTL      0.136000
     21 H8         -3.7800   -1.5730    0.8900 ha        1 CTL      0.131000
     22 H9         -2.3250   -2.7160    2.4390 ha        1 CTL      0.131000
     23 H11        -1.3010    2.1780   -1.6840 ho        1 CTL      0.217000
     24 H121        2.5920    2.0490   -1.7960 hn        1 CTL      0.152000
     25 H122        1.5670    1.7920   -2.8460 hn        1 CTL      0.152000
@<TRIPOS>BOND
     1    1    2 1   
     2    1    7 1   
     3    1   11 1   
     4    1   13 1   
     5    2    3 1   
     6    2   12 1   
     7    2   14 1   
     8    3    4 1   
     9    3   15 1   
    10    3   16 1   
    11    4    5 1   
    12    4   17 1   
    13    4   18 1   
    14    5    6 1   
    15    5    7 1   
    16    6   19 1   
    17    7    8 1   
    18    8   20 1   
    19    9   10 1   
    20    9   21 1   
    21   10   22 1   
    22   11   23 1   
    23   12   24 1   
    24   12   25 1   
@<TRIPOS>SUBSTRUCTURE
     1 CTL         1 TEMP              0 ****  ****    0 ROOT
