@<TRIPOS>MOLECULE
CTL
   26    27     1     0     0
SMALL
bcc


@<TRIPOS>ATOM
      1 C1         -0.0140   -0.0040   -0.0530 c3        1 CTL      0.196400
      2 C2          1.5420    0.0150   -0.0120 c3        1 CTL      0.093500
      3 C3          2.0260   -0.0040    1.4370 c3        1 CTL     -0.098400
      4 C4          1.6350   -1.3250    2.0680 c3        1 CTL     -0.039100
      5 C5          0.2110   -1.6850    1.8350 ca        1 CTL     -0.065300
      6 C10        -0.3670   -2.6810    2.6340 ca        1 CTL     -0.120000
      7 C6         -0.5560   -1.0810    0.8300 ca        1 CTL     -0.168300
      8 C7         -1.8860   -1.4770    0.6300 ca        1 CTL     -0.097000
      9 C8         -2.4510   -2.4670    1.4290 ca        1 CTL     -0.116000
     10 C9         -1.6900   -3.0700    2.4320 ca        1 CTL     -0.086000
     11 O11        -0.4730    1.2960    0.2870 oh        1 CTL     -0.629800
     12 N12         2.0590    1.2200   -0.7480 nz        1 CTL     -0.835600
     13 H1         -0.3480   -0.1720   -1.1200 h1        1 CTL      0.084700
     14 H2          1.9270   -0.8990   -0.5560 hx        1 CTL      0.117700
     15 H31         3.1410    0.1140    1.4930 hc        1 CTL      0.071700
     16 H32         1.5540    0.8440    2.0020 hc        1 CTL      0.071700
     17 H41         2.2860   -2.1470    1.6600 hc        1 CTL      0.081700
     18 H42         1.8370   -1.2640    3.1740 hc        1 CTL      0.081700
     19 H10         0.2320   -3.1580    3.4260 ha        1 CTL      0.152000
     20 H7         -2.4850   -0.9990   -0.1620 ha        1 CTL      0.148000
     21 H8         -3.4960   -2.7740    1.2680 ha        1 CTL      0.159000
     22 H9         -2.1340   -3.8540    3.0660 ha        1 CTL      0.158000
     23 H11        -0.9530    1.2530    1.1260 ho        1 CTL      0.452000
     24 H121        3.0680    1.3130   -0.6140 hn        1 CTL      0.463133
     25 H122        1.5830    2.0560   -0.3790 hn        1 CTL      0.463133
     26 H123        1.8450    1.1360   -1.7440 hn        1 CTL      0.463133
@<TRIPOS>BOND
     1    1    2 1   
     2    1    7 1   
     3    1   11 1   
     4    1   13 1   
     5    2    3 1   
     6    2   12 1   
     7    2   14 1   
     8    3    4 1   
     9    3   15 1   
    10    3   16 1   
    11    4    5 1   
    12    4   17 1   
    13    4   18 1   
    14    5    6 ar  
    15    5    7 ar  
    16    6   10 ar  
    17    6   19 1   
    18    7    8 ar  
    19    8    9 ar  
    20    8   20 1   
    21    9   10 ar  
    22    9   21 1   
    23   10   22 1   
    24   11   23 1   
    25   12   24 1   
    26   12   25 1   
    27   12   26 1   
@<TRIPOS>SUBSTRUCTURE
     1 CTL         1 TEMP              0 ****  ****    0 ROOT
