@<TRIPOS>MOLECULE
CTL
   25    26     1     0     0
SMALL
bcc


@<TRIPOS>ATOM
      1 C1          0.9710   -0.8890    0.4780 c3        1 CTL      0.147400
      2 C2          1.9450    0.3160    0.5840 c3        1 CTL      0.135500
      3 C3          1.6110    1.3280   -0.5180 c3        1 CTL     -0.074400
      4 C4          0.2250    1.8940   -0.2990 c3        1 CTL     -0.040100
      5 C5         -0.8040    0.8430   -0.0760 ca        1 CTL     -0.059300
      6 C10        -2.1570    1.1780   -0.2250 ca        1 CTL     -0.137000
      7 C6         -0.4560   -0.4620    0.2990 ca        1 CTL     -0.124300
      8 C7         -1.4620   -1.4130    0.5130 ca        1 CTL     -0.104000
      9 C8         -2.8030   -1.0720    0.3620 ca        1 CTL     -0.138000
     10 C9         -3.1510    0.2290   -0.0070 ca        1 CTL     -0.117000
     11 O11         1.3820   -1.7790   -0.5510 oh        1 CTL     -0.599800
     12 N12         3.3470   -0.0560    0.5760 n3        1 CTL     -0.887800
     13 H1          1.0600   -1.5160    1.4140 h1        1 CTL      0.076700
     14 H2          1.7440    0.8090    1.5820 h1        1 CTL      0.067700
     15 H31         2.3570    2.1650   -0.5130 hc        1 CTL      0.051200
     16 H32         1.6700    0.8290   -1.5210 hc        1 CTL      0.051200
     17 H41         0.2370    2.5750    0.5960 hc        1 CTL      0.055700
     18 H42        -0.0610    2.5210   -1.1860 hc        1 CTL      0.055700
     19 H10        -2.4300    2.2030   -0.5180 ha        1 CTL      0.133000
     20 H7         -1.1800   -2.4390    0.7950 ha        1 CTL      0.139000
     21 H8         -3.5860   -1.8250    0.5320 ha        1 CTL      0.134000
     22 H9         -4.2090    0.5030   -0.1270 ha        1 CTL      0.133000
     23 H11         1.2010   -1.3500   -1.3960 ho        1 CTL      0.404000
     24 H121        3.5200   -0.7270    1.3000 hn        1 CTL      0.349300
     25 H122        3.5850   -0.4750   -0.3040 hn        1 CTL      0.349300
@<TRIPOS>BOND
     1    1    2 1   
     2    1    7 1   
     3    1   11 1   
     4    1   13 1   
     5    2    3 1   
     6    2   12 1   
     7    2   14 1   
     8    3    4 1   
     9    3   15 1   
    10    3   16 1   
    11    4    5 1   
    12    4   17 1   
    13    4   18 1   
    14    5    6 ar  
    15    5    7 ar  
    16    6   10 ar  
    17    6   19 1   
    18    7    8 ar  
    19    8    9 ar  
    20    8   20 1   
    21    9   10 ar  
    22    9   21 1   
    23   10   22 1   
    24   11   23 1   
    25   12   24 1   
    26   12   25 1   
@<TRIPOS>SUBSTRUCTURE
     1 CTL         1 TEMP              0 ****  ****    0 ROOT
