@<TRIPOS>MOLECULE
CTL
   26    27     1     0     0
SMALL
bcc


@<TRIPOS>ATOM
      1 C1         -0.0120   -0.0050   -0.0550 c3        1 CTL      0.196400
      2 C2          1.5440    0.0180   -0.0100 c3        1 CTL      0.093500
      3 C3          2.0250   -0.0050    1.4400 c3        1 CTL     -0.098400
      4 C4          1.6360   -1.3300    2.0650 c3        1 CTL     -0.039100
      5 C5          0.2140   -1.6940    1.8270 ca        1 CTL     -0.065300
      6 C10        -0.3630   -2.6940    2.6200 ca        1 CTL     -0.120000
      7 C6         -0.5520   -1.0890    0.8210 ca        1 CTL     -0.168300
      8 C7         -1.8800   -1.4880    0.6170 ca        1 CTL     -0.097000
      9 C8         -2.4440   -2.4830    1.4100 ca        1 CTL     -0.116000
     10 C9         -1.6840   -3.0870    2.4130 ca        1 CTL     -0.086000
     11 O11        -0.4770    1.2920    0.2880 oh        1 CTL     -0.629800
     12 N12         2.0590    1.2280   -0.7400 n4        1 CTL     -0.835600
     13 H1         -0.3430   -0.1700   -1.1250 h1        1 CTL      0.084700
     14 H2          1.9340   -0.8920   -0.5570 hx        1 CTL      0.117700
     15 H31         3.1380    0.1170    1.5000 hc        1 CTL      0.071700
     16 H32         1.5480    0.8390    2.0070 hc        1 CTL      0.071700
     17 H41         1.8350   -1.2730    3.1710 hc        1 CTL      0.081700
     18 H42         2.2910   -2.1480    1.6550 hc        1 CTL      0.081700
     19 H10         0.2350   -3.1720    3.4110 ha        1 CTL      0.152000
     20 H7         -2.4790   -1.0090   -0.1750 ha        1 CTL      0.148000
     21 H8         -3.4890   -2.7930    1.2450 ha        1 CTL      0.159000
     22 H9         -2.1280   -3.8750    3.0430 ha        1 CTL      0.158000
     23 H11        -0.9580    1.2430    1.1260 ho        1 CTL      0.452000
     24 H121        3.0670    1.3240   -0.6030 hn        1 CTL      0.463133
     25 H122        1.5780    2.0610   -0.3690 hn        1 CTL      0.463133
     26 H123        1.8480    1.1470   -1.7380 hn        1 CTL      0.463133
@<TRIPOS>BOND
     1    1    2 1   
     2    1    7 1   
     3    1   11 1   
     4    1   13 1   
     5    2    3 1   
     6    2   12 1   
     7    2   14 1   
     8    3    4 1   
     9    3   15 1   
    10    3   16 1   
    11    4    5 1   
    12    4   17 1   
    13    4   18 1   
    14    5    6 ar  
    15    5    7 ar  
    16    6   10 ar  
    17    6   19 1   
    18    7    8 ar  
    19    8    9 ar  
    20    8   20 1   
    21    9   10 ar  
    22    9   21 1   
    23   10   22 1   
    24   11   23 1   
    25   12   24 1   
    26   12   25 1   
    27   12   26 1   
@<TRIPOS>SUBSTRUCTURE
     1 CTL         1 TEMP              0 ****  ****    0 ROOT
