@<TRIPOS>MOLECULE
CTM
   50    52     1     0     0
SMALL
bcc


@<TRIPOS>ATOM
      1 N1         -3.1100   -0.0240    0.5160 nc        1 CTM     -0.623000
      2 C2         -4.1280    0.7230    0.0720 cd        1 CTM      0.434900
      3 S3         -3.6940    2.3590   -0.2930 ss        1 CTM     -0.103300
      4 C4         -1.9520    0.7460    0.5570 cc        1 CTM      0.336600
      5 C5         -2.1150    2.0660    0.1460 cd        1 CTM     -0.216400
      6 C6          7.5320    0.2440   -1.0810 c         1 CTM      0.897600
      7 C7          4.3450    0.3400    0.8510 ca        1 CTM     -0.070300
      8 C8          5.8000    0.0350    0.7520 c3        1 CTM     -0.035100
      9 C9         -5.4950    0.2570   -0.1010 ca        1 CTM     -0.114500
     10 C10         3.8410    1.6070    0.4930 ca        1 CTM     -0.033300
     11 C11         6.2040   -0.4310   -0.6500 c3        1 CTM      0.027100
     12 C12         2.4690    1.8600    0.5890 ca        1 CTM     -0.162000
     13 C14         3.4630   -0.6470    1.3030 ca        1 CTM     -0.102000
     14 C15        -6.4080    1.0400   -0.8260 ca        1 CTM     -0.101000
     15 C16        -5.9190   -0.9630    0.4460 ca        1 CTM     -0.101000
     16 C17        -0.6570    0.1470    1.0060 c3        1 CTM      0.104100
     17 C18         1.6070    0.8560    1.0510 ca        1 CTM      0.085100
     18 O19         0.2710    1.2240    1.1810 os        1 CTM     -0.347900
     19 C21        -8.1340   -0.6000   -0.4440 ca        1 CTM      0.020400
     20 C22         2.0950   -0.4020    1.4120 ca        1 CTM     -0.203000
     21 C23        -7.7220    0.6180   -0.9980 ca        1 CTM     -0.128000
     22 C24        -7.2340   -1.3910    0.2760 ca        1 CTM     -0.128000
     23 CL25       -9.7400   -1.1190   -0.6510 cl        1 CTM     -0.101400
     24 O26         6.2540   -1.8610   -0.5660 os        1 CTM     -0.436600
     25 C28         6.4800   -2.4900   -1.8230 c3        1 CTM      0.125400
     26 C29         6.4610   -3.9820   -1.5750 c3        1 CTM     -0.090100
     27 H5         -1.3070    2.7990    0.1240 h4        1 CTM      0.204000
     28 H8          6.3990    0.9540    0.9990 hc        1 CTM      0.067200
     29 H8A         6.0720   -0.7640    1.4920 hc        1 CTM      0.067200
     30 H11         5.4190   -0.1440   -1.4040 h1        1 CTM      0.023700
     31 H12         2.0600    2.8410    0.3110 ha        1 CTM      0.132000
     32 H14         3.8600   -1.6390    1.5670 ha        1 CTM      0.138000
     33 H15        -6.0840    1.9960   -1.2670 ha        1 CTM      0.151500
     34 H16        -5.2130   -1.5900    1.0130 ha        1 CTM      0.151500
     35 H17        -0.7820   -0.3740    1.9930 h1        1 CTM      0.061700
     36 H17A       -0.2840   -0.5820    0.2360 h1        1 CTM      0.061700
     37 H22         1.4190   -1.1870    1.7750 ha        1 CTM      0.122000
     38 H23        -8.4300    1.2380   -1.5670 ha        1 CTM      0.147000
     39 H24        -7.5590   -2.3490    0.7080 ha        1 CTM      0.147000
     40 H27         5.5540    2.2600   -0.6520 hc        1 CTM      0.065033
     41 H27A        4.1840    3.4660   -0.5390 hc        1 CTM      0.065033
     42 H27B        5.2560    3.1570    0.8910 hc        1 CTM      0.065033
     43 H28         5.6600   -2.2000   -2.5370 h1        1 CTM      0.041200
     44 H28A        7.4700   -2.1590   -2.2390 h1        1 CTM      0.041200
     45 H29         7.2620   -4.2600   -0.8490 hc        1 CTM      0.025033
     46 H29A        5.4790   -4.3010   -1.1510 hc        1 CTM      0.025033
     47 H29B        6.6350   -4.5210   -2.5360 hc        1 CTM      0.025033
     48 O13         8.5180   -0.4580   -1.4320 o         1 CTM     -0.835800
     49 C27         4.7470    2.6780    0.0170 c3        1 CTM     -0.087800
     50 O20         7.5330    1.5120   -1.0790 o         1 CTM     -0.835800
@<TRIPOS>BOND
     1    1    2 2   
     2    1    4 1   
     3    2    3 1   
     4    2    9 1   
     5    3    5 1   
     6    4    5 2   
     7    4   16 1   
     8    5   27 1   
     9    6   11 1   
    10    6   48 1   
    11    6   50 1   
    12    7    8 1   
    13    7   10 ar  
    14    7   13 ar  
    15    8   11 1   
    16    8   28 1   
    17    8   29 1   
    18    9   14 ar  
    19    9   15 ar  
    20   10   12 ar  
    21   10   49 1   
    22   11   24 1   
    23   11   30 1   
    24   12   17 ar  
    25   12   31 1   
    26   13   20 ar  
    27   13   32 1   
    28   14   21 ar  
    29   14   33 1   
    30   15   22 ar  
    31   15   34 1   
    32   16   18 1   
    33   16   35 1   
    34   16   36 1   
    35   17   18 1   
    36   17   20 ar  
    37   19   21 ar  
    38   19   22 ar  
    39   19   23 1   
    40   20   37 1   
    41   21   38 1   
    42   22   39 1   
    43   24   25 1   
    44   25   26 1   
    45   25   43 1   
    46   25   44 1   
    47   26   45 1   
    48   26   46 1   
    49   26   47 1   
    50   40   49 1   
    51   41   49 1   
    52   42   49 1   
@<TRIPOS>SUBSTRUCTURE
     1 CTM         1 TEMP              0 ****  ****    0 ROOT
