@<TRIPOS>MOLECULE
CTM
   50    43     1     0     0
SMALL
bcc


@<TRIPOS>ATOM
      1 N1          4.1840    1.7660   -0.9800 ne        1 CTM     -0.439700
      2 C2          5.3650    1.5160   -1.7570 cf        1 CTM      0.270100
      3 S3          4.9290    0.8630   -3.0810 ss        1 CTM      0.079700
      4 C4          2.9450    1.2740   -1.7950 cg        1 CTM     -0.072000
      5 C5          3.4140    0.7360   -3.0530 c1        1 CTM     -0.200900
      6 C6         -5.2380   -1.8300    2.7590 c1        1 CTM      0.785000
      7 C7         -2.9360   -0.2390    0.6240 cg        1 CTM     -0.097300
      8 C8         -4.3220   -0.1510    1.2030 c2        1 CTM     -0.132000
      9 C9          6.6050    1.8460   -1.4190 ch        1 CTM     -0.033200
     10 C10        -1.8250   -0.1850    1.4710 c1        1 CTM      0.012900
     11 C11        -4.9020   -1.5710    1.3440 c2        1 CTM      0.013100
     12 C12        -0.5400   -0.1040    0.9330 c1        1 CTM     -0.156500
     13 O13        -6.1130   -1.1610    3.3190 o         1 CTM     -0.804500
     14 C14        -2.7620   -0.2110   -0.7650 ce        1 CTM     -0.073700
     15 C15         7.1790    3.0630   -1.6910 c1        1 CTM     -0.029500
     16 C16         7.3350    0.8640   -0.8040 c1        1 CTM     -0.063500
     17 C17         1.4210    1.3220   -1.3110 c         1 CTM      0.476700
     18 C18        -0.3650   -0.0770   -0.4480 ch        1 CTM      0.006700
     19 O19         0.9760   -0.0130   -1.0110 o         1 CTM     -0.457100
     20 O20        -4.7180   -2.7600    3.3430 o         1 CTM     -0.804500
     21 C21         9.2320    2.3070   -0.7250 c1        1 CTM      0.029900
     22 C22        -1.4900   -0.1310   -1.3030 cf        1 CTM     -0.136700
     23 C23         8.4920    3.2970   -1.3460 c1        1 CTM     -0.074500
     24 C24         8.6590    1.1000   -0.4560 c1        1 CTM     -0.063500
     25 CL25       10.8470    2.2910    0.0020 cl        1 CTM     -0.116900
     26 O26        -6.0640   -1.6870    0.5580 os        1 CTM     -0.412900
     27 C27        -1.5990   -0.1930    2.9610 c3        1 CTM     -0.120000
     28 C28        -6.6040   -3.0020    0.5210 c3        1 CTM      0.120400
     29 C29        -8.1310   -2.9260    0.2540 c3        1 CTM     -0.091100
     30 H5          2.8600    0.3450   -3.7490 DU        1 CTM      0.213000
     31 H8         -4.2800    0.2860    2.1070 ha        1 CTM      0.107000
     32 H8A        -4.9120    0.3960    0.5910 ha        1 CTM      0.107000
     33 H11        -4.2450   -2.2170    1.0470 h4        1 CTM      0.063000
     34 H12         0.2510   -0.0670    1.5360 ha        1 CTM      0.072500
     35 H14        -3.5460   -0.2490   -1.3580 ha        1 CTM      0.135000
     36 H15         6.6540    3.7650   -2.1300 ha        1 CTM      0.101500
     37 H16         6.9690   -0.0040   -0.7090 ha        1 CTM      0.088000
     38 H17         1.3480    1.8850   -0.5000 h4        1 CTM      0.015200
     39 H17A        0.8950    1.6800   -1.9830 h4        1 CTM      0.015200
     40 H22        -1.3640   -0.1870   -2.2920 ha        1 CTM      0.133000
     41 H23         8.8980    4.1570   -1.5390 ha        1 CTM      0.087500
     42 H24         9.1760    0.4050   -0.0200 ha        1 CTM      0.088000
     43 H27        -0.8170    0.3310    3.1690 hc        1 CTM      0.064033
     44 H27A       -2.4140    0.2100    3.4310 hc        1 CTM      0.064033
     45 H27B       -1.4700   -1.0840    3.2580 hc        1 CTM      0.064033
     46 H28        -6.1990   -3.4830   -0.1550 h1        1 CTM      0.044200
     47 H28A       -6.4420   -3.4480    1.3830 h1        1 CTM      0.044200
     48 H29        -8.5460   -2.4150    0.9390 hc        1 CTM      0.026033
     49 H29A       -8.2910   -2.4960   -0.6190 hc        1 CTM      0.026033
     50 H29B       -8.5020   -3.8160    0.2470 hc        1 CTM      0.026033
@<TRIPOS>BOND
     1    1    2 2   
     2    1    4 1   
     3    2    3 1   
     4    2    9 1   
     5    3    5 1   
     6    4    5 3   
     7    6   13 2   
     8    6   20 2   
     9    7   10 3   
    10    7   14 1   
    11    8   11 2   
    12    8   31 1   
    13    8   32 1   
    14    9   15 3   
    15   10   27 1   
    16   11   26 1   
    17   11   33 1   
    18   12   18 3   
    19   12   34 1   
    20   14   22 2   
    21   14   35 1   
    22   15   36 1   
    23   16   24 3   
    24   16   37 1   
    25   17   19 2   
    26   17   38 1   
    27   17   39 1   
    28   18   22 1   
    29   21   23 3   
    30   21   25 1   
    31   22   40 1   
    32   23   41 1   
    33   24   42 1   
    34   26   28 1   
    35   27   43 1   
    36   27   44 1   
    37   27   45 1   
    38   28   29 1   
    39   28   46 1   
    40   28   47 1   
    41   29   48 1   
    42   29   49 1   
    43   29   50 1   
@<TRIPOS>SUBSTRUCTURE
     1 CTM         1 TEMP              0 ****  ****    0 ROOT
