@<TRIPOS>MOLECULE
CTM
   50    53     1     0     0
SMALL
bcc


@<TRIPOS>ATOM
      1 N1         -0.0900    0.9410   -0.3880 nc        1 CTM     -0.638000
      2 C2          1.2080    0.8430   -0.0890 cd        1 CTM      0.375700
      3 S3          1.5480    0.7980    1.6000 ss        1 CTM     -0.079300
      4 C4         -0.8340    0.9770    0.7900 cc        1 CTM      0.329600
      5 C5         -0.0770    0.9110    1.9550 cd        1 CTM     -0.227400
      6 C6         -7.5410   -2.4610    5.2520 c         1 CTM      0.898600
      7 C7         -6.5660   -0.1290    3.0860 ca        1 CTM     -0.060300
      8 C8         -7.9090   -0.6160    3.5010 c3        1 CTM     -0.038100
      9 C9          2.2920    0.7870   -1.1020 c3        1 CTM     -0.059800
     10 C10        -5.5230   -0.1020    4.0240 ca        1 CTM     -0.096000
     11 C11        -7.9170   -2.1190    3.7840 c3        1 CTM      0.030100
     12 C12        -4.2530    0.3620    3.6780 ca        1 CTM     -0.097300
     13 C14        -6.3310    0.3220    1.7850 ca        1 CTM     -0.125000
     14 C15         3.6810    0.7540   -0.4430 c2        1 CTM     -0.196200
     15 C16         2.1640   -0.5060   -2.0100 c3        1 CTM      0.028900
     16 C17        -2.3250    1.0700    0.7430 c3        1 CTM      0.104100
     17 C18        -4.0420    0.8140    2.3600 ca        1 CTM      0.077100
     18 O19        -2.7840    1.3370    2.0740 os        1 CTM     -0.343900
     19 C21         4.7010   -1.5390   -1.5420 cc        1 CTM      0.072400
     20 C22        -5.0730    0.7970    1.4160 ca        1 CTM     -0.194000
     21 C23         4.3090   -0.3230   -0.8910 cc        1 CTM     -0.139000
     22 C24         3.4700   -1.1320   -1.8410 cd        1 CTM     -0.142300
     23 CL25        5.9050   -2.6170   -1.7190 cl        1 CTM      0.029600
     24 O26        -9.2530   -2.5360    3.4580 os        1 CTM     -0.440600
     25 C28        -9.3980   -3.9520    3.4000 c3        1 CTM      0.119400
     26 C29       -10.8760   -4.2360    3.2510 c3        1 CTM     -0.091100
     27 H5         -0.5060    0.9320    2.9580 h4        1 CTM      0.203000
     28 H8         -8.2160   -0.0890    4.4470 hc        1 CTM      0.061700
     29 H8A        -8.6680   -0.3840    2.7080 hc        1 CTM      0.061700
     30 H11        -7.1990   -2.6530    3.1030 h1        1 CTM      0.022700
     31 H12        -5.7350   -0.4770    5.0490 ha        1 CTM      0.204000
     32 H14        -7.1420    0.3020    1.0420 ha        1 CTM      0.124000
     33 H15         4.0030    1.5360    0.2400 ha        1 CTM      0.164000
     34 H16         1.9680   -0.2140   -3.0710 hc        1 CTM      0.088200
     35 H17        -2.6490    1.9250    0.0890 h1        1 CTM      0.058700
     36 H17A       -2.7570    0.1100    0.3510 h1        1 CTM      0.058700
     37 H22        -4.8960    1.1570    0.3930 ha        1 CTM      0.119000
     38 H23         2.2310    1.6930   -1.7650 hc        1 CTM      0.079700
     39 H24         1.3330   -1.1680   -1.6600 hc        1 CTM      0.088200
     40 H27        -2.1940    0.0880    4.2070 hc        1 CTM      0.038700
     41 H27A       -3.0400    1.4320    5.0750 hc        1 CTM      0.038700
     42 H27B       -3.3840   -0.2920    5.5310 hc        1 CTM      0.038700
     43 H28        -8.8290   -4.3380    2.5100 h1        1 CTM      0.045200
     44 H28A       -8.9820   -4.4230    4.3330 h1        1 CTM      0.045200
     45 H29       -11.2810   -3.7520    2.3300 hc        1 CTM      0.025700
     46 H29A      -11.0370   -5.3380    3.1840 hc        1 CTM      0.025700
     47 H29B      -11.4350   -3.8370    4.1300 hc        1 CTM      0.025700
     48 O13        -7.3640   -3.6790    5.5350 o         1 CTM     -0.837800
     49 C27        -3.1620    0.3940    4.6760 c3        1 CTM     -0.036800
     50 O20        -7.3870   -1.5180    6.0790 o         1 CTM     -0.837800
@<TRIPOS>BOND
     1    1    2 2   
     2    1    4 1   
     3    2    3 1   
     4    2    9 1   
     5    3    5 1   
     6    4    5 2   
     7    4   16 1   
     8    5   27 1   
     9    6   11 1   
    10    6   48 1   
    11    6   50 1   
    12    7    8 1   
    13    7   10 ar  
    14    7   13 ar  
    15    8   11 1   
    16    8   28 1   
    17    8   29 1   
    18    9   14 1   
    19    9   15 1   
    20    9   38 1   
    21   10   12 ar  
    22   10   31 1   
    23   11   24 1   
    24   11   30 1   
    25   12   17 ar  
    26   12   49 1   
    27   13   20 ar  
    28   13   32 1   
    29   14   21 2   
    30   14   33 1   
    31   15   22 1   
    32   15   34 1   
    33   15   39 1   
    34   16   18 1   
    35   16   35 1   
    36   16   36 1   
    37   17   18 1   
    38   17   20 ar  
    39   19   21 1   
    40   19   22 2   
    41   19   23 1   
    42   20   37 1   
    43   21   22 1   
    44   24   25 1   
    45   25   26 1   
    46   25   43 1   
    47   25   44 1   
    48   26   45 1   
    49   26   46 1   
    50   26   47 1   
    51   40   49 1   
    52   41   49 1   
    53   42   49 1   
@<TRIPOS>SUBSTRUCTURE
     1 CTM         1 TEMP              0 ****  ****    0 ROOT
