@<TRIPOS>MOLECULE
CTN
   30    29     1     0     0
SMALL
bcc


@<TRIPOS>ATOM
      1 O5'        -2.3700    2.2780   -2.7180 oh        1 CTN     -0.324000
      2 C5'        -0.9570    2.2020   -2.4880 c3        1 CTN     -0.039000
      3 C4'        -0.6890    2.1170   -0.9770 c3        1 CTN     -0.047000
      4 O4'        -1.1360    0.9990   -0.5040 os        1 CTN     -0.287000
      5 C1'        -0.1380    0.5790    0.6620 c3        1 CTN      0.115000
      6 N1         -0.1960   -0.8120    0.8700 n3        1 CTN     -0.285000
      7 C6          0.7810   -1.4320    1.5540 c2        1 CTN      0.071000
      8 C5          0.7230   -2.7820    1.7520 c1        1 CTN     -0.338000
      9 C4         -0.3460   -3.5110    1.2460 c1        1 CTN      0.235000
     10 N3         -1.3060   -2.8950    0.5720 n1        1 CTN     -0.299000
     11 C2         -1.2470   -1.5330    0.3730 c1        1 CTN      0.361000
     12 O2         -2.1220   -0.9750   -0.2430 o         1 CTN     -0.369000
     13 N4         -0.4210   -4.9250    1.4640 n3        1 CTN     -0.360000
     14 C2'         1.0880    0.9330    0.2520 c3        1 CTN      0.030000
     15 O2'         1.9150    1.3610    1.4070 oh        1 CTN     -0.308000
     16 C3'         0.8640    2.0940   -0.6970 c3        1 CTN     -0.022000
     17 O3'         1.2540    3.2570   -0.1230 oh        1 CTN     -0.326000
     18 H5'        -2.5280    2.3970   -3.6100 ho        1 CTN      0.209000
     19 H5'1       -0.5230    3.0000   -2.8530 h1        1 CTN      0.105000
     20 H5'2       -0.5900    1.3920   -2.9360 h1        1 CTN      0.105000
     21 H4'        -1.1100    2.8770   -0.5100 h1        1 CTN      0.124000
     22 H1'        -0.3710    1.0600    1.5000 h2        1 CTN      0.130000
     23 H6          1.5490   -0.9070    1.9160 h4        1 CTN      0.159000
     24 H5          1.4400   -3.2390    2.2540 ha        1 CTN      0.156000
     25 HN41       -0.9820   -5.4410    0.9440 hn        1 CTN      0.237500
     26 HN42        0.0190   -5.2950    2.1480 hn        1 CTN      0.237500
     27 H2'         1.5190    0.1840   -0.2190 h1        1 CTN      0.161000
     28 H1          2.7850    1.3440    1.1770 ho        1 CTN      0.222000
     29 H3'         1.3460    1.9510   -1.5140 h1        1 CTN      0.131000
     30 H2          1.7500    3.7200   -0.7010 ho        1 CTN      0.216000
@<TRIPOS>BOND
     1    1    2 1   
     2    1   18 1   
     3    2    3 1   
     4    2   19 1   
     5    2   20 1   
     6    3    4 1   
     7    3   16 1   
     8    3   21 1   
     9    4    5 1   
    10    5    6 1   
    11    5   14 1   
    12    5   22 1   
    13    6    7 1   
    14    6   11 1   
    15    7    8 1   
    16    7   23 1   
    17    8   24 1   
    18    9   10 1   
    19    9   13 1   
    20   11   12 1   
    21   13   25 1   
    22   13   26 1   
    23   14   15 1   
    24   14   16 1   
    25   14   27 1   
    26   15   28 1   
    27   16   17 1   
    28   16   29 1   
    29   17   30 1   
@<TRIPOS>SUBSTRUCTURE
     1 CTN         1 TEMP              0 ****  ****    0 ROOT
