@<TRIPOS>MOLECULE
CTN
   30    31     1     0     0
SMALL
bcc


@<TRIPOS>ATOM
      1 O5'        -3.4020    2.2660    0.4090 oh        1 CTN     -0.595800
      2 C5'        -2.1470    1.7500    0.0180 c3        1 CTN      0.102400
      3 C4'        -2.2970    0.3210   -0.5090 c3        1 CTN      0.075100
      4 O4'        -1.1740    0.0010   -1.3390 os        1 CTN     -0.421600
      5 C1'        -0.3670   -1.0310   -0.7520 c3        1 CTN      0.263500
      6 N1          0.9350   -0.5080   -0.3570 n         1 CTN     -0.390000
      7 C6          1.9770   -0.5970   -1.2510 cc        1 CTN      0.074600
      8 C5          3.2170   -0.0840   -0.9810 cd        1 CTN     -0.426600
      9 C4          3.4100    0.6060    0.2950 cd        1 CTN      0.760500
     10 N3          2.4030    0.7640    1.1740 nc        1 CTN     -0.726100
     11 C2          1.1460    0.2290    0.8710 c         1 CTN      0.842900
     12 O2          0.1770    0.3590    1.6490 o         1 CTN     -0.643500
     13 N4          4.6650    1.0780    0.6020 nh        1 CTN     -0.921800
     14 C2'        -1.1980   -1.6930    0.3940 c3        1 CTN      0.137100
     15 O2'        -1.5620   -2.9940    0.0080 oh        1 CTN     -0.581800
     16 C3'        -2.3840   -0.7300    0.6160 c3        1 CTN      0.093100
     17 O3'        -3.5820   -1.4760    0.5020 oh        1 CTN     -0.604800
     18 H5'        -3.9180    2.4070   -0.3940 ho        1 CTN      0.395000
     19 H5'1       -1.5150    1.7760    0.9480 h1        1 CTN      0.075200
     20 H5'2       -1.6760    2.3920   -0.7730 h1        1 CTN      0.075200
     21 H4'        -3.1960    0.2480   -1.1830 h1        1 CTN      0.069700
     22 H1'        -0.2060   -1.7820   -1.5850 h2        1 CTN      0.089700
     23 H6          1.7740   -1.1170   -2.2080 h4        1 CTN      0.158000
     24 H5          4.0400   -0.1890   -1.6960 ha        1 CTN      0.155000
     25 HN41        4.8100    1.6190    1.4190 hn        1 CTN      0.440800
     26 HN42        5.3470    1.0980   -0.1130 hn        1 CTN      0.440800
     27 H2'        -0.6010   -1.8210    1.3380 h1        1 CTN      0.120700
     28 H1         -2.3580   -2.9430   -0.5390 ho        1 CTN      0.423000
     29 H3'        -2.2980   -0.2430    1.6250 h1        1 CTN      0.097700
     30 H2         -4.2650   -0.9790    0.9670 ho        1 CTN      0.422000
@<TRIPOS>BOND
     1    1    2 1   
     2    1   18 1   
     3    2    3 1   
     4    2   19 1   
     5    2   20 1   
     6    3    4 1   
     7    3   16 1   
     8    3   21 1   
     9    4    5 1   
    10    5    6 1   
    11    5   14 1   
    12    5   22 1   
    13    6    7 1   
    14    6   11 1   
    15    7    8 2   
    16    7   23 1   
    17    8    9 1   
    18    8   24 1   
    19    9   10 2   
    20    9   13 1   
    21   10   11 1   
    22   11   12 2   
    23   13   25 1   
    24   13   26 1   
    25   14   15 1   
    26   14   16 1   
    27   14   27 1   
    28   15   28 1   
    29   16   17 1   
    30   16   29 1   
    31   17   30 1   
@<TRIPOS>SUBSTRUCTURE
     1 CTN         1 TEMP              0 ****  ****    0 ROOT
