@<TRIPOS>MOLECULE
CTN
   31    32     1     0     0
SMALL
bcc


@<TRIPOS>ATOM
      1 O5'         0.6840   -2.0490    1.3610 oh        1 CTN     -0.606800
      2 C5'         1.5730   -1.2280    0.6310 c3        1 CTN      0.106400
      3 C4'         2.1400   -0.1120    1.5120 c3        1 CTN      0.087100
      4 O4'         1.8890   -0.4270    2.8950 os        1 CTN     -0.406600
      5 C1'         3.0670   -0.9200    3.5230 c3        1 CTN      0.248500
      6 N1          2.9700   -2.3860    3.6900 n         1 CTN     -0.338000
      7 C6          2.2480   -2.8560    4.7500 cc        1 CTN      0.135600
      8 C5          1.9790   -4.2050    4.9380 cd        1 CTN     -0.440600
      9 C4          2.4590   -5.0820    3.9110 cd        1 CTN      0.611500
     10 N3          3.1420   -4.7080    2.8500 nc        1 CTN     -0.620100
     11 C2          3.4140   -3.3160    2.6810 c         1 CTN      0.844900
     12 O2          4.0420   -2.9350    1.6840 o         1 CTN     -0.537500
     13 N4          2.1520   -6.5320    4.0490 n4        1 CTN     -0.802600
     14 C2'         4.2840   -0.3950    2.6960 c3        1 CTN      0.100100
     15 O2'         4.8960    0.6510    3.4030 oh        1 CTN     -0.574800
     16 C3'         3.6620    0.0690    1.3530 c3        1 CTN      0.093100
     17 O3'         3.9000    1.4490    1.1620 oh        1 CTN     -0.587800
     18 H5'        -0.0110   -1.4780    1.7140 ho        1 CTN      0.414000
     19 H5'1        2.3770   -1.9320    0.2790 h1        1 CTN      0.071700
     20 H5'2        1.0550   -0.7770   -0.2570 h1        1 CTN      0.071700
     21 H4'         1.5980    0.8600    1.3430 h1        1 CTN      0.116700
     22 H1'         3.0750   -0.4680    4.5620 h2        1 CTN      0.116700
     23 H6          1.8770   -2.1070    5.4840 h4        1 CTN      0.200000
     24 H5          1.4200   -4.5500    5.8150 ha        1 CTN      0.184000
     25 HN41        2.5680   -7.0790    3.2800 hn        1 CTN      0.478800
     26 HN42        1.1320   -6.6490    4.0350 hn        1 CTN      0.478800
     27 H2'         5.0910   -1.1620    2.5530 h1        1 CTN      0.124700
     28 H1          4.3510    1.4500    3.3080 ho        1 CTN      0.432000
     29 H3'         4.0700   -0.5380    0.5020 h1        1 CTN      0.090700
     30 H2          4.8290    1.5480    0.9110 ho        1 CTN      0.431000
     31 H43         2.5260   -6.8620    4.9450 hn        1 CTN      0.478800
@<TRIPOS>BOND
     1    1    2 1   
     2    1   18 1   
     3    2    3 1   
     4    2   19 1   
     5    2   20 1   
     6    3    4 1   
     7    3   16 1   
     8    3   21 1   
     9    4    5 1   
    10    5    6 1   
    11    5   14 1   
    12    5   22 1   
    13    6    7 1   
    14    6   11 1   
    15    7    8 2   
    16    7   23 1   
    17    8    9 1   
    18    8   24 1   
    19    9   10 2   
    20    9   13 1   
    21   10   11 1   
    22   11   12 2   
    23   13   25 1   
    24   13   26 1   
    25   13   31 1   
    26   14   15 1   
    27   14   16 1   
    28   14   27 1   
    29   15   28 1   
    30   16   17 1   
    31   16   29 1   
    32   17   30 1   
@<TRIPOS>SUBSTRUCTURE
     1 CTN         1 TEMP              0 ****  ****    0 ROOT
