@<TRIPOS>MOLECULE
CTN
   30    31     1     0     0
SMALL
bcc


@<TRIPOS>ATOM
      1 O5'         0.1000   -0.8300    0.5050 oh        1 CTN     -0.596800
      2 C5'         1.5080   -0.8150    0.4050 c3        1 CTN      0.112400
      3 C4'         2.1250    0.0340    1.5150 c3        1 CTN      0.070100
      4 O4'         1.7790   -0.5310    2.7890 os        1 CTN     -0.432600
      5 C1'         2.9310   -1.0490    3.4720 c3        1 CTN      0.302500
      6 N1          2.8380   -2.4960    3.6200 n         1 CTN     -0.395000
      7 C6          2.2710   -3.0000    4.7690 cc        1 CTN      0.073600
      8 C5          2.0890   -4.3420    4.9660 cd        1 CTN     -0.422600
      9 C4          2.4880   -5.2530    3.8920 cd        1 CTN      0.760500
     10 N3          2.9960   -4.8000    2.7320 nc        1 CTN     -0.725100
     11 C2          3.1720   -3.4230    2.5570 c         1 CTN      0.841900
     12 O2          3.6300   -2.9520    1.4950 o         1 CTN     -0.640500
     13 N4          2.3600   -6.6070    4.1000 nv        1 CTN     -0.919800
     14 C2'         4.1910   -0.5420    2.7150 c3        1 CTN      0.089100
     15 O2'         4.7820    0.4300    3.5620 oh        1 CTN     -0.607800
     16 C3'         3.6570    0.1060    1.4170 c3        1 CTN      0.097100
     17 O3'         4.1300    1.4270    1.2800 oh        1 CTN     -0.589800
     18 H5'        -0.1160   -1.1830    1.3780 ho        1 CTN      0.408000
     19 H5'1        1.9180   -1.8610    0.4420 h1        1 CTN      0.069700
     20 H5'2        1.7250   -0.3510   -0.5940 h1        1 CTN      0.069700
     21 H4'         1.6600    1.0600    1.5170 h1        1 CTN      0.083700
     22 H1'         2.8920   -0.5840    4.5050 h2        1 CTN      0.098700
     23 H6          1.9730   -2.2670    5.5440 h4        1 CTN      0.160000
     24 H5          1.6590   -4.7220    5.8980 ha        1 CTN      0.156000
     25 HN41        1.8370   -6.9150    4.8800 hn        1 CTN      0.441300
     26 HN42        2.5420   -7.2450    3.3630 hn        1 CTN      0.441300
     27 H2'         4.9280   -1.3570    2.4890 h1        1 CTN      0.097700
     28 H1          5.5380    0.7910    3.0780 ho        1 CTN      0.425000
     29 H3'         4.0390   -0.4400    0.5110 h1        1 CTN      0.118700
     30 H2          3.7970    1.9380    2.0310 ho        1 CTN      0.412000
@<TRIPOS>BOND
     1    1    2 1   
     2    1   18 1   
     3    2    3 1   
     4    2   19 1   
     5    2   20 1   
     6    3    4 1   
     7    3   16 1   
     8    3   21 1   
     9    4    5 1   
    10    5    6 1   
    11    5   14 1   
    12    5   22 1   
    13    6    7 1   
    14    6   11 1   
    15    7    8 2   
    16    7   23 1   
    17    8    9 1   
    18    8   24 1   
    19    9   10 2   
    20    9   13 1   
    21   10   11 1   
    22   11   12 2   
    23   13   25 1   
    24   13   26 1   
    25   14   15 1   
    26   14   16 1   
    27   14   27 1   
    28   15   28 1   
    29   16   17 1   
    30   16   29 1   
    31   17   30 1   
@<TRIPOS>SUBSTRUCTURE
     1 CTN         1 TEMP              0 ****  ****    0 ROOT
