@<TRIPOS>MOLECULE
CTS
   28    29     1     0     0
SMALL
bcc


@<TRIPOS>ATOM
      1 C1         -0.0720    0.2570   -1.6120 c3        1 CTS      0.120800
      2 C2          1.3250    0.2570   -1.6120 c3        1 CTS      0.115100
      3 C3          1.8980    0.2570   -0.1590 c3        1 CTS      0.079100
      4 C4          0.8370    0.7390    0.9340 c3        1 CTS      0.155100
      5 C5         -0.1940   -0.3980    0.6970 c3        1 CTS      0.165500
      6 C6         -1.2370   -0.2380    1.5260 c3        1 CTS      0.123100
      7 O2          1.7990   -0.9320   -2.3090 oh        1 CTS     -0.603800
      8 O3          2.9780    1.0810   -0.1150 oh        1 CTS     -0.609800
      9 O4          1.3220    0.7040    2.1140 oh        1 CTS     -0.601800
     10 O6         -1.4490    1.1770    1.8030 oh        1 CTS     -0.597800
     11 N          -0.8080   -0.4020   -0.8000 n3        1 CTS     -0.708600
     12 C7         -2.4580   -0.8250    0.7600 c3        1 CTS     -0.137400
     13 C8         -1.9660   -1.0400   -0.7220 c3        1 CTS      0.158800
     14 H11        -0.3400    1.1910   -1.5200 h1        1 CTS      0.054200
     15 H12        -0.3400   -0.0260   -2.5070 h1        1 CTS      0.054200
     16 H2          1.6440    1.0510   -2.0810 h1        1 CTS      0.087700
     17 H3          2.1860   -0.6490    0.0630 h1        1 CTS      0.057700
     18 H4          0.4660    1.6150    0.7150 h1        1 CTS      0.078700
     19 H5          0.2290   -1.2600    0.8740 h1        1 CTS      0.084700
     20 H6         -1.0900   -0.7290    2.3570 h1        1 CTS      0.056700
     21 HO2         2.2680   -0.6900   -3.0230 ho        1 CTS      0.413000
     22 HO3         3.7090    0.6030    0.0450 ho        1 CTS      0.415000
     23 HO4         1.5940    1.5160    2.3470 ho        1 CTS      0.421000
     24 HO6        -1.9270    1.2650    2.5460 ho        1 CTS      0.403000
     25 H71        -2.7250   -1.6770    1.1530 hc        1 CTS      0.055700
     26 H72        -3.2030   -0.1950    0.7790 hc        1 CTS      0.055700
     27 H81        -1.8410   -1.9910   -0.9020 h1        1 CTS      0.052200
     28 H82        -2.6060   -0.6570   -1.3510 h1        1 CTS      0.052200
@<TRIPOS>BOND
     1    1    2 1   
     2    1   11 1   
     3    1   14 1   
     4    1   15 1   
     5    2    3 1   
     6    2    7 1   
     7    2   16 1   
     8    3    4 1   
     9    3    8 1   
    10    3   17 1   
    11    4    5 1   
    12    4    9 1   
    13    4   18 1   
    14    5    6 1   
    15    5   11 1   
    16    5   19 1   
    17    6   10 1   
    18    6   12 1   
    19    6   20 1   
    20    7   21 1   
    21    8   22 1   
    22    9   23 1   
    23   10   24 1   
    24   11   13 1   
    25   12   13 1   
    26   12   25 1   
    27   12   26 1   
    28   13   27 1   
    29   13   28 1   
@<TRIPOS>SUBSTRUCTURE
     1 CTS         1 TEMP              0 ****  ****    0 ROOT
