@<TRIPOS>MOLECULE
CTS
   28    29     1     0     0
SMALL
bcc


@<TRIPOS>ATOM
      1 C1          1.7790    0.1520   -0.6770 c3        1 CTS      0.160800
      2 C2          0.8620   -0.3410   -1.8210 c3        1 CTS      0.104100
      3 C3         -0.5700    0.2010   -1.6750 c3        1 CTS      0.109100
      4 C4         -1.1470   -0.0460   -0.2630 c3        1 CTS      0.169100
      5 C5         -0.1440    0.4890    0.7690 c3        1 CTS      0.187500
      6 C6         -0.4930    0.2670    2.2630 c3        1 CTS      0.152100
      7 O2          1.3330    0.1500   -3.0680 oh        1 CTS     -0.608800
      8 O3         -1.4440   -0.4570   -2.5780 oh        1 CTS     -0.608800
      9 O4         -2.3360    0.7120   -0.1100 oh        1 CTS     -0.600800
     10 O6         -1.2280   -0.9350    2.3870 oh        1 CTS     -0.580800
     11 N           1.1670   -0.1490    0.5890 n3        1 CTS     -0.750600
     12 C7          0.8850    0.1700    2.9530 c3        1 CTS     -0.124400
     13 C8          1.9220    0.0430    1.8170 c3        1 CTS      0.188800
     14 H11         1.9790    1.2530   -0.8280 h1        1 CTS      0.038700
     15 H12         2.7640   -0.3880   -0.7350 h1        1 CTS      0.038700
     16 H2          0.8380   -1.4660   -1.8410 h1        1 CTS      0.063700
     17 H3         -0.5710    1.3060   -1.8930 h1        1 CTS      0.057700
     18 H4         -1.3560   -1.1380   -0.1010 h1        1 CTS      0.084700
     19 H5         -0.0820    1.6120    0.6190 h1        1 CTS      0.039700
     20 H6         -1.0990    1.1280    2.6520 h1        1 CTS      0.050700
     21 HO2         2.2210   -0.2030   -3.1920 ho        1 CTS      0.407000
     22 HO3        -1.0720   -0.3320   -3.4600 ho        1 CTS      0.419000
     23 HO4        -2.9630    0.3530   -0.7520 ho        1 CTS      0.419000
     24 HO6        -1.4560   -1.0210    3.3200 ho        1 CTS      0.398000
     25 H71         1.0860    1.0820    3.5630 hc        1 CTS      0.054700
     26 H72         0.9260   -0.7250    3.6190 hc        1 CTS      0.054700
     27 H81         2.5790    0.9570    1.7850 h1        1 CTS      0.037200
     28 H82         2.5790   -0.8540    1.9660 h1        1 CTS      0.037200
@<TRIPOS>BOND
     1    1    2 1   
     2    1   11 1   
     3    1   14 1   
     4    1   15 1   
     5    2    3 1   
     6    2    7 1   
     7    2   16 1   
     8    3    4 1   
     9    3    8 1   
    10    3   17 1   
    11    4    5 1   
    12    4    9 1   
    13    4   18 1   
    14    5    6 1   
    15    5   11 1   
    16    5   19 1   
    17    6   10 1   
    18    6   12 1   
    19    6   20 1   
    20    7   21 1   
    21    8   22 1   
    22    9   23 1   
    23   10   24 1   
    24   11   13 1   
    25   12   13 1   
    26   12   25 1   
    27   12   26 1   
    28   13   27 1   
    29   13   28 1   
@<TRIPOS>SUBSTRUCTURE
     1 CTS         1 TEMP              0 ****  ****    0 ROOT
