@<TRIPOS>MOLECULE
CTS
   28    29     1     0     0
SMALL
bcc


@<TRIPOS>ATOM
      1 C1          0.0730   -0.0210    0.0000 c3        1 CTS      0.160800
      2 C2          1.6170    0.0110    0.0590 c3        1 CTS      0.104100
      3 C3          2.1310    0.0310    1.5090 c3        1 CTS      0.109100
      4 C4          1.4510    1.1310    2.3550 c3        1 CTS      0.169100
      5 C5         -0.0700    0.9820    2.2080 c3        1 CTS      0.187500
      6 C6         -0.9470    2.0460    2.9170 c3        1 CTS      0.152100
      7 O2          2.1510   -1.1710   -0.5210 oh        1 CTS     -0.608800
      8 O3          3.5200    0.3120    1.5400 oh        1 CTS     -0.608800
      9 O4          1.7540    0.9160    3.7240 oh        1 CTS     -0.600800
     10 O6         -0.2460    3.2740    2.9420 oh        1 CTS     -0.580800
     11 N          -0.4580    1.0550    0.7940 n3        1 CTS     -0.750600
     12 C7         -2.2130    2.1270    2.0350 c3        1 CTS     -0.124400
     13 C8         -1.8810    1.3530    0.7430 c3        1 CTS      0.188800
     14 H11        -0.2600    0.1230   -1.0650 h1        1 CTS      0.038700
     15 H12        -0.2770   -1.0410    0.3360 h1        1 CTS      0.038700
     16 H2          2.0080    0.9130   -0.4890 h1        1 CTS      0.063700
     17 H3          1.9430   -0.9750    1.9810 h1        1 CTS      0.057700
     18 H4          1.7950    2.1510    2.0340 h1        1 CTS      0.084700
     19 H5         -0.3500   -0.0180    2.6630 h1        1 CTS      0.039700
     20 H6         -1.1840    1.7200    3.9640 h1        1 CTS      0.050700
     21 HO2         1.8640   -1.1860   -1.4410 ho        1 CTS      0.407000
     22 HO3         3.9480   -0.3550    0.9880 ho        1 CTS      0.419000
     23 HO4         2.7100    1.0290    3.8040 ho        1 CTS      0.419000
     24 HO6        -0.8050    3.8990    3.4200 ho        1 CTS      0.398000
     25 H71        -3.0850    1.6630    2.5540 hc        1 CTS      0.054700
     26 H72        -2.4580    3.1900    1.8010 hc        1 CTS      0.054700
     27 H81        -2.5160    0.4260    0.6690 h1        1 CTS      0.037200
     28 H82        -2.0730    1.9810   -0.1680 h1        1 CTS      0.037200
@<TRIPOS>BOND
     1    1    2 1   
     2    1   11 1   
     3    1   14 1   
     4    1   15 1   
     5    2    3 1   
     6    2    7 1   
     7    2   16 1   
     8    3    4 1   
     9    3    8 1   
    10    3   17 1   
    11    4    5 1   
    12    4    9 1   
    13    4   18 1   
    14    5    6 1   
    15    5   11 1   
    16    5   19 1   
    17    6   10 1   
    18    6   12 1   
    19    6   20 1   
    20    7   21 1   
    21    8   22 1   
    22    9   23 1   
    23   10   24 1   
    24   11   13 1   
    25   12   13 1   
    26   12   25 1   
    27   12   26 1   
    28   13   27 1   
    29   13   28 1   
@<TRIPOS>SUBSTRUCTURE
     1 CTS         1 TEMP              0 ****  ****    0 ROOT
