@<TRIPOS>MOLECULE
CTS
   28    29     1     0     0
SMALL
bcc


@<TRIPOS>ATOM
      1 C1          0.0770   -0.0350    0.0090 c3        1 CTS      0.160800
      2 C2          1.6210    0.0060    0.0670 c3        1 CTS      0.104100
      3 C3          2.1350    0.0410    1.5160 c3        1 CTS      0.109100
      4 C4          1.4500    1.1450    2.3520 c3        1 CTS      0.169100
      5 C5         -0.0700    0.9870    2.2080 c3        1 CTS      0.187500
      6 C6         -0.9530    2.0530    2.9080 c3        1 CTS      0.152100
      7 O2          2.1620   -1.1790   -0.5030 oh        1 CTS     -0.608800
      8 O3          3.5240    0.3300    1.5450 oh        1 CTS     -0.608800
      9 O4          1.7550    0.9440    3.7230 oh        1 CTS     -0.600800
     10 O6         -0.2580    3.2850    2.9200 oh        1 CTS     -0.580800
     11 N          -0.4590    1.0450    0.7930 n3        1 CTS     -0.750600
     12 C7         -2.2190    2.1180    2.0250 c3        1 CTS     -0.124400
     13 C8         -1.8830    1.3340    0.7390 c3        1 CTS      0.188800
     14 H11        -0.2670   -1.0540    0.3540 h1        1 CTS      0.038700
     15 H12        -0.2560    0.0970   -1.0570 h1        1 CTS      0.038700
     16 H2          2.0070    0.9040   -0.4900 h1        1 CTS      0.063700
     17 H3          1.9530   -0.9620    1.9980 h1        1 CTS      0.057700
     18 H4          1.7890    2.1640    2.0220 h1        1 CTS      0.084700
     19 H5         -0.3450   -0.0110    2.6720 h1        1 CTS      0.039700
     20 H6         -1.1870    1.7340    3.9570 h1        1 CTS      0.050700
     21 HO2         1.8740   -1.2040   -1.4230 ho        1 CTS      0.407000
     22 HO3         3.9550   -0.3400    0.9980 ho        1 CTS      0.419000
     23 HO4         2.7110    1.0630    3.8020 ho        1 CTS      0.419000
     24 HO6        -0.8200    3.9110    3.3920 ho        1 CTS      0.398000
     25 H71        -3.0880    1.6550    2.5480 hc        1 CTS      0.054700
     26 H72        -2.4700    3.1780    1.7810 hc        1 CTS      0.054700
     27 H81        -2.0790    1.9530   -0.1760 h1        1 CTS      0.037200
     28 H82        -2.5140    0.4040    0.6750 h1        1 CTS      0.037200
@<TRIPOS>BOND
     1    1    2 1   
     2    1   11 1   
     3    1   14 1   
     4    1   15 1   
     5    2    3 1   
     6    2    7 1   
     7    2   16 1   
     8    3    4 1   
     9    3    8 1   
    10    3   17 1   
    11    4    5 1   
    12    4    9 1   
    13    4   18 1   
    14    5    6 1   
    15    5   11 1   
    16    5   19 1   
    17    6   10 1   
    18    6   12 1   
    19    6   20 1   
    20    7   21 1   
    21    8   22 1   
    22    9   23 1   
    23   10   24 1   
    24   11   13 1   
    25   12   13 1   
    26   12   25 1   
    27   12   26 1   
    28   13   27 1   
    29   13   28 1   
@<TRIPOS>SUBSTRUCTURE
     1 CTS         1 TEMP              0 ****  ****    0 ROOT
