@<TRIPOS>MOLECULE
CTS
   28    29     1     0     0
SMALL
bcc


@<TRIPOS>ATOM
      1 C1          0.0690   -0.0320    0.0080 c3        1 CTS      0.160800
      2 C2          1.6130    0.0070    0.0580 c3        1 CTS      0.104100
      3 C3          2.1340    0.0380    1.5050 c3        1 CTS      0.109100
      4 C4          1.4550    1.1410    2.3470 c3        1 CTS      0.169100
      5 C5         -0.0670    0.9860    2.2100 c3        1 CTS      0.187500
      6 C6         -0.9440    2.0510    2.9160 c3        1 CTS      0.152100
      7 O2          2.1490   -1.1770   -0.5170 oh        1 CTS     -0.608800
      8 O3          3.5230    0.3250    1.5280 oh        1 CTS     -0.608800
      9 O4          1.7660    0.9360    3.7160 oh        1 CTS     -0.600800
     10 O6         -0.2470    3.2820    2.9290 oh        1 CTS     -0.580800
     11 N          -0.4630    1.0480    0.7970 n3        1 CTS     -0.750600
     12 C7         -2.2150    2.1210    2.0400 c3        1 CTS     -0.124400
     13 C8         -1.8860    1.3390    0.7510 c3        1 CTS      0.188800
     14 H11        -0.2700    0.1040   -1.0560 h1        1 CTS      0.038700
     15 H12        -0.2760   -1.0500    0.3520 h1        1 CTS      0.038700
     16 H2          1.9980    0.9060   -0.4980 h1        1 CTS      0.063700
     17 H3          1.9520   -0.9660    1.9850 h1        1 CTS      0.057700
     18 H4          1.7930    2.1610    2.0180 h1        1 CTS      0.084700
     19 H5         -0.3410   -0.0130    2.6730 h1        1 CTS      0.039700
     20 H6         -1.1740    1.7310    3.9660 h1        1 CTS      0.050700
     21 HO2         1.8570   -1.1990   -1.4350 ho        1 CTS      0.407000
     22 HO3         3.9510   -0.3440    0.9780 ho        1 CTS      0.419000
     23 HO4         2.7220    1.0540    3.7910 ho        1 CTS      0.419000
     24 HO6        -0.8060    3.9080    3.4040 ho        1 CTS      0.398000
     25 H71        -3.0820    1.6580    2.5660 hc        1 CTS      0.054700
     26 H72        -2.4650    3.1820    1.8000 hc        1 CTS      0.054700
     27 H81        -2.0860    1.9610   -0.1620 h1        1 CTS      0.037200
     28 H82        -2.5190    0.4100    0.6870 h1        1 CTS      0.037200
@<TRIPOS>BOND
     1    1    2 1   
     2    1   11 1   
     3    1   14 1   
     4    1   15 1   
     5    2    3 1   
     6    2    7 1   
     7    2   16 1   
     8    3    4 1   
     9    3    8 1   
    10    3   17 1   
    11    4    5 1   
    12    4    9 1   
    13    4   18 1   
    14    5    6 1   
    15    5   11 1   
    16    5   19 1   
    17    6   10 1   
    18    6   12 1   
    19    6   20 1   
    20    7   21 1   
    21    8   22 1   
    22    9   23 1   
    23   10   24 1   
    24   11   13 1   
    25   12   13 1   
    26   12   25 1   
    27   12   26 1   
    28   13   27 1   
    29   13   28 1   
@<TRIPOS>SUBSTRUCTURE
     1 CTS         1 TEMP              0 ****  ****    0 ROOT
