@<TRIPOS>MOLECULE
CTV
   26    25     1     0     0
SMALL
bcc


@<TRIPOS>ATOM
      1 C1          0.1770    0.6310   -0.2150 c3        1 CTV     -0.059900
      2 N1          0.0350   -4.6880    3.6050 n1        1 CTV     -0.376800
      3 C2          2.3070    0.0220   -1.4040 c3        1 CTV     -0.059900
      4 C3          1.5140   -0.0060   -0.1520 c2        1 CTV     -0.115400
      5 C4          1.9810   -0.5810    0.9690 c2        1 CTV     -0.183200
      6 C5          1.2180   -0.6250    2.2370 c3        1 CTV     -0.038200
      7 C6          1.9210   -1.4670    3.2880 c3        1 CTV     -0.059200
      8 C7          1.1660   -1.4890    4.5730 c2        1 CTV     -0.041400
      9 C8          0.3980   -2.5230    4.9620 ce        1 CTV     -0.089700
     10 C9          1.3250   -0.2930    5.4360 c3        1 CTV     -0.072900
     11 C10         0.2080   -3.7050    4.2050 cg        1 CTV      0.192500
     12 H1          0.0260    1.1650   -1.1850 hc        1 CTV      0.042033
     13 H1A         0.0540    1.3690    0.6180 hc        1 CTV      0.042033
     14 H2          2.5070    1.0800   -1.7070 hc        1 CTV      0.042033
     15 H2A         3.2860   -0.5030   -1.2860 hc        1 CTV      0.042033
     16 H2B         1.7370   -0.4750   -2.2290 hc        1 CTV      0.042033
     17 H4          2.9760   -1.0530    0.9830 ha        1 CTV      0.124000
     18 H5          1.0760    0.4220    2.6240 hc        1 CTV      0.051200
     19 H5A         0.1910   -1.0430    2.0470 hc        1 CTV      0.051200
     20 H6          2.0520   -2.5110    2.8960 hc        1 CTV      0.059200
     21 H6A         2.9470   -1.0490    3.4740 hc        1 CTV      0.059200
     22 H8         -0.1430   -2.5060    5.9260 ha        1 CTV      0.151000
     23 H9          0.6660   -0.3390    6.3380 hc        1 CTV      0.052367
     24 H9A         2.3880   -0.2120    5.7780 hc        1 CTV      0.052367
     25 H9B         1.0730    0.6330    4.8600 hc        1 CTV      0.052367
     26 H15        -0.6240   -0.1430   -0.1100 hc        1 CTV      0.042033
@<TRIPOS>BOND
     1    1    4 1   
     2    1   12 1   
     3    1   13 1   
     4    1   26 1   
     5    2   11 3   
     6    3    4 1   
     7    3   14 1   
     8    3   15 1   
     9    3   16 1   
    10    4    5 2   
    11    5    6 1   
    12    5   17 1   
    13    6    7 1   
    14    6   18 1   
    15    6   19 1   
    16    7    8 1   
    17    7   20 1   
    18    7   21 1   
    19    8    9 2   
    20    8   10 1   
    21    9   11 1   
    22    9   22 1   
    23   10   23 1   
    24   10   24 1   
    25   10   25 1   
@<TRIPOS>SUBSTRUCTURE
     1 CTV         1 TEMP              0 ****  ****    0 ROOT
