@<TRIPOS>MOLECULE
CTV
   26    25     1     0     0
SMALL
bcc


@<TRIPOS>ATOM
      1 C1          0.1650    0.6260   -0.2120 c3        1 CTV     -0.059900
      2 N1          0.0370   -4.6870    3.5920 n1        1 CTV     -0.376800
      3 C2          2.2980    0.0320   -1.4040 c3        1 CTV     -0.059900
      4 C3          1.5070   -0.0010   -0.1510 c2        1 CTV     -0.115400
      5 C4          1.9800   -0.5720    0.9690 c2        1 CTV     -0.183200
      6 C5          1.2200   -0.6210    2.2400 c3        1 CTV     -0.038200
      7 C6          1.9250   -1.4670    3.2850 c3        1 CTV     -0.059200
      8 C7          1.1730   -1.4940    4.5720 c2        1 CTV     -0.041400
      9 C8          0.4050   -2.5280    4.9580 ce        1 CTV     -0.089700
     10 C9          1.3360   -0.3010    5.4400 c3        1 CTV     -0.072900
     11 C10         0.2120   -3.7070    4.1960 cg        1 CTV      0.192500
     12 H1          0.0120    1.1650   -1.1790 hc        1 CTV      0.042033
     13 H1A         0.0350    1.3570    0.6250 hc        1 CTV      0.042033
     14 H2          2.4910    1.0920   -1.7070 hc        1 CTV      0.042033
     15 H2A         3.2810   -0.4870   -1.2880 hc        1 CTV      0.042033
     16 H2B         1.7300   -0.4680   -2.2280 hc        1 CTV      0.042033
     17 H4          2.9790   -1.0360    0.9820 ha        1 CTV      0.124000
     18 H5          1.0790    0.4250    2.6300 hc        1 CTV      0.051200
     19 H5A         0.1920   -1.0380    2.0500 hc        1 CTV      0.051200
     20 H6          2.0550   -2.5100    2.8890 hc        1 CTV      0.059200
     21 H6A         2.9520   -1.0500    3.4710 hc        1 CTV      0.059200
     22 H8         -0.1330   -2.5150    5.9230 ha        1 CTV      0.151000
     23 H9          0.6780   -0.3510    6.3420 hc        1 CTV      0.052367
     24 H9A         2.3990   -0.2240    5.7800 hc        1 CTV      0.052367
     25 H9B         1.0840    0.6270    4.8670 hc        1 CTV      0.052367
     26 H15        -0.6300   -0.1550   -0.1140 hc        1 CTV      0.042033
@<TRIPOS>BOND
     1    1    4 1   
     2    1   12 1   
     3    1   13 1   
     4    1   26 1   
     5    2   11 3   
     6    3    4 1   
     7    3   14 1   
     8    3   15 1   
     9    3   16 1   
    10    4    5 2   
    11    5    6 1   
    12    5   17 1   
    13    6    7 1   
    14    6   18 1   
    15    6   19 1   
    16    7    8 1   
    17    7   20 1   
    18    7   21 1   
    19    8    9 2   
    20    8   10 1   
    21    9   11 1   
    22    9   22 1   
    23   10   23 1   
    24   10   24 1   
    25   10   25 1   
@<TRIPOS>SUBSTRUCTURE
     1 CTV         1 TEMP              0 ****  ****    0 ROOT
