@<TRIPOS>MOLECULE
CTX
   58    60     1     0     0
SMALL
bcc


@<TRIPOS>ATOM
      1 CA          0.8510   -0.0340   -0.1170 c3        1 CTX     -0.216000
      2 CB          1.9050    0.9100    0.4180 c3        1 CTX     -0.130000
      3 CA1         2.7980   -0.8550    9.1310 c3        1 CTX     -0.009000
      4 CB1         3.0470    0.5320    9.6520 c2        1 CTX     -0.121000
      5 C1          3.0080   -0.5530    6.7500 c2        1 CTX      0.274000
      6 C2          3.9020   -0.8080    5.5910 c3        1 CTX     -0.177000
      7 C3          3.4320   -0.2490    4.3080 c2        1 CTX      0.024000
      8 C5          1.4640    0.6820    5.3730 c2        1 CTX      0.126000
      9 C6          1.8210    0.1790    6.6100 c2        1 CTX     -0.294000
     10 C4          2.2700    0.4800    4.2120 c2        1 CTX     -0.082000
     11 C7          1.8450    1.0120    2.9170 c2        1 CTX     -0.067000
     12 C8          0.8550    2.0790    2.9350 c2        1 CTX     -0.043000
     13 C9          1.2170    3.4840    2.5110 c3        1 CTX     -0.109000
     14 C10         0.1060    4.0480    1.6600 c2        1 CTX     -0.145000
     15 C11        -1.1760    3.6230    1.7290 c2        1 CTX     -0.142000
     16 C12        -1.5080    2.7060    2.8330 c2        1 CTX     -0.050000
     17 C13        -0.4510    1.9750    3.1720 c1        1 CTX     -0.199000
     18 C14         3.6900   -3.0340    1.7980 c3        1 CTX     -0.222000
     19 C15         4.8810   -2.8460    2.6630 c2        1 CTX     -0.139000
     20 C16         5.1540   -1.6790    3.2550 c2        1 CTX     -0.217000
     21 C17         4.2920   -0.4690    3.1070 c3        1 CTX     -0.072000
     22 C18         3.4710   -0.5170    1.8070 c3        1 CTX     -0.139000
     23 C19         2.9880   -1.8340    1.3820 c1        1 CTX     -0.007000
     24 C20         2.3720    0.5070    1.7750 c2        1 CTX      0.013000
     25 NI          3.4950    1.4820    8.9170 n2        1 CTX     -0.187000
     26 C21        -0.6390    0.4470    9.3560 c3        1 CTX     -0.276000
     27 C22         3.7410    2.7880    9.4370 c3        1 CTX     -0.158000
     28 HA1         1.2320   -1.0850   -0.1200 hc        1 CTX      0.093333
     29 HA2         0.5830    0.2600   -1.1610 hc        1 CTX      0.093333
     30 HA3        -0.0700    0.0090    0.5130 hc        1 CTX      0.093333
     31 HB1         2.7780    0.9310   -0.2890 hc        1 CTX      0.093500
     32 HB2         1.4800    1.9520    0.4530 hc        1 CTX      0.093500
     33 HA11        1.1750    0.3690    7.4860 ha        1 CTX      0.185000
     34 HA12        3.2900   -1.6140    9.8060 h1        1 CTX      0.144500
     35 HB11        1.6960   -1.0550    9.0480 h1        1 CTX      0.144500
     36 HB12        2.7980    0.6150   10.7340 h4        1 CTX      0.141000
     37 H2          4.0640   -1.9270    5.4830 hc        1 CTX      0.199500
     38 H3          4.9260   -0.3810    5.8330 hc        1 CTX      0.199500
     39 H5          4.9690    0.4410    3.0450 hc        1 CTX      0.137000
     40 H6          0.5140    1.2480    5.2610 ha        1 CTX      0.198000
     41 H9          2.1690    3.4400    1.9180 hc        1 CTX      0.118000
     42 H10         1.3900    4.1730    3.3810 hc        1 CTX      0.118000
     43 H11         0.4070    4.8660    0.9880 ha        1 CTX      0.149000
     44 H12        -1.9790    4.0050    1.0880 ha        1 CTX      0.157000
     45 H13        -2.4810    2.7580    3.3300 ha        1 CTX      0.167000
     46 H14         3.9820   -3.5860    0.8520 hc        1 CTX      0.169500
     47 H15         2.9340   -3.7060    2.3070 hc        1 CTX      0.169500
     48 H16         5.5450   -3.7180    2.7800 ha        1 CTX      0.149000
     49 H17         6.0580   -1.5420    3.8700 ha        1 CTX      0.136000
     50 H19         4.1960   -0.2550    0.9600 hc        1 CTX      0.171000
     51 H211        0.3780    0.7110    9.7250 hc        1 CTX      0.069750
     52 H212       -1.3630    0.5080   10.1970 hc        1 CTX      0.069750
     53 H213       -0.9430    1.1590    8.5580 hc        1 CTX      0.069750
     54 H221       -0.6340   -0.5890    8.9500 hc        1 CTX      0.069750
     55 H222        4.8330    3.0150    9.2940 h1        1 CTX      0.104667
     56 H223        3.1450    3.5200    8.8280 h1        1 CTX      0.104667
     57 HI1         3.4830    2.9250   10.5220 h1        1 CTX      0.104667
     58 OL          3.4480   -1.1340    7.8720 os        1 CTX     -0.150000
@<TRIPOS>BOND
     1    1    2 1   
     2    1   28 1   
     3    1   29 1   
     4    1   30 1   
     5    2   24 1   
     6    2   31 1   
     7    2   32 1   
     8    3    4 1   
     9    3   34 1   
    10    3   35 1   
    11    3   58 1   
    12    4   25 1   
    13    4   36 1   
    14    5    6 1   
    15    5    9 1   
    16    5   58 1   
    17    6    7 1   
    18    6   37 1   
    19    6   38 1   
    20    7   10 1   
    21    7   21 1   
    22    8    9 1   
    23    8   10 1   
    24    8   40 1   
    25    9   33 1   
    26   10   11 1   
    27   11   12 1   
    28   11   24 1   
    29   12   13 1   
    30   12   17 1   
    31   13   14 1   
    32   13   41 1   
    33   13   42 1   
    34   14   15 1   
    35   14   43 1   
    36   15   16 1   
    37   15   44 1   
    38   16   17 1   
    39   16   45 1   
    40   18   19 1   
    41   18   23 1   
    42   18   46 1   
    43   18   47 1   
    44   19   20 1   
    45   19   48 1   
    46   20   21 1   
    47   20   49 1   
    48   21   22 1   
    49   21   39 1   
    50   22   23 1   
    51   22   24 1   
    52   22   50 1   
    53   25   27 1   
    54   26   51 1   
    55   26   52 1   
    56   26   53 1   
    57   26   54 1   
    58   27   55 1   
    59   27   56 1   
    60   27   57 1   
@<TRIPOS>SUBSTRUCTURE
     1 CTX         1 TEMP              0 ****  ****    0 ROOT
