@<TRIPOS>MOLECULE
CTX
   57    59     1     0     0
SMALL
bcc


@<TRIPOS>ATOM
      1 CA         -4.7220   -0.6470    1.5810 c3        1 CTX     -0.088100
      2 CB         -4.2600   -0.9120    0.1680 c3        1 CTX     -0.045200
      3 CA1         4.4060   -0.1850    0.3780 c3        1 CTX      0.128400
      4 CB1         5.8490    0.1270   -0.0480 c3        1 CTX      0.171800
      5 C1          2.2140    0.2830   -0.4320 ca        1 CTX      0.134100
      6 C2          1.4210    0.9400   -1.3940 ca        1 CTX     -0.185000
      7 C3          0.0400    0.8940   -1.2820 ca        1 CTX     -0.079000
      8 C5          0.2250   -0.4480    0.7180 ca        1 CTX     -0.079000
      9 C6          1.6160   -0.4090    0.6260 ca        1 CTX     -0.185000
     10 C4         -0.5760    0.1970   -0.2300 ca        1 CTX     -0.088800
     11 C7         -2.0390    0.1760   -0.1260 ce        1 CTX     -0.000400
     12 C8         -2.6810    1.4970   -0.2460 ca        1 CTX     -0.046800
     13 C9         -2.7510    2.3500    0.8630 ca        1 CTX     -0.120000
     14 C10        -3.3420    3.6070    0.7440 ca        1 CTX     -0.130500
     15 C11        -3.8670    4.0220   -0.4800 ca        1 CTX     -0.130000
     16 C12        -3.8000    3.1760   -1.5870 ca        1 CTX     -0.130500
     17 C13        -3.2110    1.9190   -1.4730 ca        1 CTX     -0.120000
     18 C14        -1.5140   -4.2150    1.4580 ca        1 CTX     -0.130500
     19 C15        -1.1440   -4.8870    0.2940 ca        1 CTX     -0.131000
     20 C16        -1.2900   -4.2620   -0.9440 ca        1 CTX     -0.130500
     21 C17        -1.8070   -2.9700   -1.0210 ca        1 CTX     -0.119500
     22 C18        -2.1800   -2.2890    0.1460 ca        1 CTX     -0.047800
     23 C19        -2.0300   -2.9220    1.3870 ca        1 CTX     -0.119500
     24 C20        -2.7680   -0.9460    0.0610 cf        1 CTX     -0.047400
     25 NI          6.3390    1.3900    0.4760 n3        1 CTX     -0.745600
     26 C21         6.8440    1.2930    1.8250 c3        1 CTX      0.162600
     27 C22         7.2360    2.0780   -0.4210 c3        1 CTX      0.162600
     28 HA1        -4.3260    0.3340    1.9420 hc        1 CTX      0.035700
     29 HA2        -5.8380   -0.6160    1.6170 hc        1 CTX      0.035700
     30 HA3        -4.3670   -1.4500    2.2710 hc        1 CTX      0.035700
     31 HB1        -4.6810   -1.8910   -0.1860 hc        1 CTX      0.052700
     32 HB2        -4.6620   -0.1110   -0.5100 hc        1 CTX      0.052700
     33 HA11        4.1420    0.2580    1.3730 h1        1 CTX      0.043700
     34 HA12        4.2530   -1.2960    0.4030 h1        1 CTX      0.043700
     35 HB11        6.4900   -0.7400    0.2910 h1        1 CTX      0.047200
     36 HB12        5.8740    0.1530   -1.1750 h1        1 CTX      0.047200
     37 H2          1.9090    1.4820   -2.2160 ha        1 CTX      0.141500
     38 H3         -0.5880    1.4140   -2.0240 ha        1 CTX      0.138000
     39 H5         -0.2490   -1.0030    1.5440 ha        1 CTX      0.138000
     40 H6          2.2220   -0.9250    1.3830 ha        1 CTX      0.141500
     41 H9         -2.3350    2.0250    1.8280 ha        1 CTX      0.135500
     42 H10        -3.3910    4.2730    1.6180 ha        1 CTX      0.131000
     43 H11        -4.3310    5.0150   -0.5720 ha        1 CTX      0.131000
     44 H12        -4.2130    3.5020   -2.5530 ha        1 CTX      0.131000
     45 H13        -3.1600    1.2520   -2.3460 ha        1 CTX      0.135500
     46 H14        -1.3990   -4.7050    2.4360 ha        1 CTX      0.130500
     47 H15        -0.7370   -5.9070    0.3520 ha        1 CTX      0.130000
     48 H16        -0.9980   -4.7890   -1.8650 ha        1 CTX      0.130500
     49 H17        -1.9180   -2.4780   -1.9990 ha        1 CTX      0.135000
     50 H19        -2.3220   -2.3950    2.3070 ha        1 CTX      0.135000
     51 H211        7.0520    2.3260    2.2090 h1        1 CTX      0.031033
     52 H212        6.0630    0.8180    2.4750 h1        1 CTX      0.031033
     53 H213        7.7890    0.6860    1.9040 h1        1 CTX      0.031033
     54 H221        6.7130    2.2500   -1.3990 h1        1 CTX      0.031033
     55 H222        7.4990    3.0740    0.0240 h1        1 CTX      0.031033
     56 H223        8.1890    1.5140   -0.6180 h1        1 CTX      0.031033
     57 OL          3.5740    0.3770   -0.6430 os        1 CTX     -0.325900
@<TRIPOS>BOND
     1    1    2 1   
     2    1   28 1   
     3    1   29 1   
     4    1   30 1   
     5    2   24 1   
     6    2   31 1   
     7    2   32 1   
     8    3    4 1   
     9    3   33 1   
    10    3   34 1   
    11    3   57 1   
    12    4   25 1   
    13    4   35 1   
    14    4   36 1   
    15    5    6 ar  
    16    5    9 ar  
    17    5   57 1   
    18    6    7 ar  
    19    6   37 1   
    20    7   10 ar  
    21    7   38 1   
    22    8    9 ar  
    23    8   10 ar  
    24    8   39 1   
    25    9   40 1   
    26   10   11 1   
    27   11   12 1   
    28   11   24 2   
    29   12   13 ar  
    30   12   17 ar  
    31   13   14 ar  
    32   13   41 1   
    33   14   15 ar  
    34   14   42 1   
    35   15   16 ar  
    36   15   43 1   
    37   16   17 ar  
    38   16   44 1   
    39   17   45 1   
    40   18   19 ar  
    41   18   23 ar  
    42   18   46 1   
    43   19   20 ar  
    44   19   47 1   
    45   20   21 ar  
    46   20   48 1   
    47   21   22 ar  
    48   21   49 1   
    49   22   23 ar  
    50   22   24 1   
    51   23   50 1   
    52   25   26 1   
    53   25   27 1   
    54   26   51 1   
    55   26   52 1   
    56   26   53 1   
    57   27   54 1   
    58   27   55 1   
    59   27   56 1   
@<TRIPOS>SUBSTRUCTURE
     1 CTX         1 TEMP              0 ****  ****    0 ROOT
