@<TRIPOS>MOLECULE
CTX
   58    60     1     0     0
SMALL
bcc


@<TRIPOS>ATOM
      1 CA          0.6930   -0.0200   -0.0310 c3        1 CTX     -0.215000
      2 CB          1.8290    0.8620    0.4350 c3        1 CTX     -0.130000
      3 CA1         2.8730   -0.6000    9.1910 c3        1 CTX     -0.010000
      4 CB1         3.2780    0.7750    9.6400 c2        1 CTX     -0.119000
      5 C1          3.0150   -0.4260    6.7920 c2        1 CTX      0.274000
      6 C2          3.8510   -0.7950    5.6190 c3        1 CTX     -0.177000
      7 C3          3.3840   -0.2540    4.3270 c2        1 CTX      0.024000
      8 C5          1.5230    0.8630    5.4060 c2        1 CTX      0.126000
      9 C6          1.8800    0.3850    6.6520 c2        1 CTX     -0.292000
     10 C4          2.2770    0.5560    4.2330 c2        1 CTX     -0.082000
     11 C7          1.8540    1.0670    2.9290 c2        1 CTX     -0.067000
     12 C8          0.9470    2.2050    2.9290 c2        1 CTX     -0.043000
     13 C9          1.4000    3.5620    2.4380 c3        1 CTX     -0.109000
     14 C10         0.3090    4.1740    1.5950 c2        1 CTX     -0.145000
     15 C11        -0.9990    3.8510    1.7160 c2        1 CTX     -0.142000
     16 C12        -1.3650    3.0050    2.8660 c2        1 CTX     -0.050000
     17 C13        -0.3560    2.2100    3.2060 c1        1 CTX     -0.199000
     18 C14         3.3560   -3.1490    1.9300 c3        1 CTX     -0.222000
     19 C15         4.5830   -3.0180    2.7540 c2        1 CTX     -0.139000
     20 C16         4.9610   -1.8520    3.2880 c2        1 CTX     -0.217000
     21 C17         4.1880   -0.5870    3.1140 c3        1 CTX     -0.072000
     22 C18         3.3260   -0.6240    1.8390 c3        1 CTX     -0.139000
     23 C19         2.7330   -1.9160    1.4840 c1        1 CTX     -0.007000
     24 C20         2.3070    0.4790    1.7940 c2        1 CTX      0.013000
     25 NI          3.7260    1.6650    8.8340 n2        1 CTX     -0.189000
     26 C21        -0.7970   -0.2560    9.2170 c3        1 CTX     -0.276000
     27 C22         4.1160    2.9630    9.2820 c3        1 CTX     -0.157000
     28 HA1         0.9940   -1.0970   -0.0000 hc        1 CTX      0.093333
     29 HA2         0.4160    0.2520   -1.0780 hc        1 CTX      0.093333
     30 HA3        -0.2030    0.1170    0.6210 hc        1 CTX      0.093333
     31 HB1         2.6800    0.7890   -0.2960 hc        1 CTX      0.093500
     32 HB2         1.4860    1.9330    0.4390 hc        1 CTX      0.093500
     33 HA11        1.2750    0.6520    7.5360 ha        1 CTX      0.183000
     34 HA12        3.3130   -1.3770    9.8810 h1        1 CTX      0.145500
     35 HB11        1.7530   -0.6940    9.1540 h1        1 CTX      0.145500
     36 HB12        3.1400    0.9090   10.7370 h4        1 CTX      0.141000
     37 H2          3.9240   -1.9260    5.5550 hc        1 CTX      0.199500
     38 H3          4.9110   -0.4390    5.8130 hc        1 CTX      0.199500
     39 H5          4.9280    0.2660    2.9940 hc        1 CTX      0.137000
     40 H6          0.6140    1.4920    5.2960 ha        1 CTX      0.198000
     41 H9          2.3270    3.4220    1.8210 hc        1 CTX      0.118000
     42 H10         1.6500    4.2690    3.2730 hc        1 CTX      0.118000
     43 H11         0.6490    4.9400    0.8810 ha        1 CTX      0.149000
     44 H12        -1.7910    4.2670    1.0820 ha        1 CTX      0.157000
     45 H13        -2.3150    3.1510    3.3870 ha        1 CTX      0.167000
     46 H14         3.5760   -3.7590    1.0010 hc        1 CTX      0.169500
     47 H15         2.5670   -3.7400    2.4880 hc        1 CTX      0.169500
     48 H16         5.1830   -3.9320    2.8890 ha        1 CTX      0.149000
     49 H17         5.8900   -1.7600    3.8720 ha        1 CTX      0.136000
     50 H19         4.0420   -0.4520    0.9620 hc        1 CTX      0.171000
     51 H211       -0.2930    0.7320    9.2970 hc        1 CTX      0.069750
     52 H212       -1.9000   -0.1070    9.2370 hc        1 CTX      0.069750
     53 H213       -0.5110   -0.7480    8.2620 hc        1 CTX      0.069750
     54 H221       -0.5000   -0.8990   10.0740 hc        1 CTX      0.069750
     55 H222        5.2030    3.1010    9.0310 h1        1 CTX      0.104667
     56 H223        3.5200    3.7210    8.7040 h1        1 CTX      0.104667
     57 HI1         3.9720    3.1510   10.3800 h1        1 CTX      0.104667
     58 OL          3.4480   -0.9900    7.9250 os        1 CTX     -0.151000
@<TRIPOS>BOND
     1    1    2 1   
     2    1   28 1   
     3    1   29 1   
     4    1   30 1   
     5    2   24 1   
     6    2   31 1   
     7    2   32 1   
     8    3    4 1   
     9    3   34 1   
    10    3   35 1   
    11    3   58 1   
    12    4   25 1   
    13    4   36 1   
    14    5    6 1   
    15    5    9 1   
    16    5   58 1   
    17    6    7 1   
    18    6   37 1   
    19    6   38 1   
    20    7   10 1   
    21    7   21 1   
    22    8    9 1   
    23    8   10 1   
    24    8   40 1   
    25    9   33 1   
    26   10   11 1   
    27   11   12 1   
    28   11   24 1   
    29   12   13 1   
    30   12   17 1   
    31   13   14 1   
    32   13   41 1   
    33   13   42 1   
    34   14   15 1   
    35   14   43 1   
    36   15   16 1   
    37   15   44 1   
    38   16   17 1   
    39   16   45 1   
    40   18   19 1   
    41   18   23 1   
    42   18   46 1   
    43   18   47 1   
    44   19   20 1   
    45   19   48 1   
    46   20   21 1   
    47   20   49 1   
    48   21   22 1   
    49   21   39 1   
    50   22   23 1   
    51   22   24 1   
    52   22   50 1   
    53   25   27 1   
    54   26   51 1   
    55   26   52 1   
    56   26   53 1   
    57   26   54 1   
    58   27   55 1   
    59   27   56 1   
    60   27   57 1   
@<TRIPOS>SUBSTRUCTURE
     1 CTX         1 TEMP              0 ****  ****    0 ROOT
