@<TRIPOS>MOLECULE
CTX
   57    52     1     0     0
SMALL
bcc


@<TRIPOS>ATOM
      1 CA         -3.6580   -2.7320   -1.1070 c3        1 CTX     -0.206000
      2 CB         -2.2210   -2.3740   -1.1870 c3        1 CTX     -0.130000
      3 OL          0.3620    3.2760   -2.3880 os        1 CTX     -0.219000
      4 CA1         1.4780    4.0910   -1.9050 c3        1 CTX     -0.023000
      5 CB1         1.7870    5.1790   -2.8880 c3        1 CTX     -0.072000
      6 C1          0.1200    2.1370   -1.6120 c2        1 CTX      0.087000
      7 C2          0.7170    0.9240   -1.9600 c2        1 CTX     -0.205000
      8 C3          0.3930   -0.2540   -1.2550 c1        1 CTX     -0.078000
      9 C5         -1.1530    0.9760    0.1810 c1        1 CTX     -0.089000
     10 C6         -0.8160    2.1870   -0.5470 c1        1 CTX     -0.162000
     11 C4         -0.5700   -0.2060   -0.1590 c1        1 CTX     -0.074000
     12 C7         -0.7930   -1.4470    0.7270 c2        1 CTX     -0.031000
     13 C8         -0.1800   -1.5170    2.0930 c2        1 CTX     -0.034000
     14 C9          0.9770   -2.2760    2.3130 c2        1 CTX     -0.116000
     15 C10         1.5840   -2.3060    3.6400 c1        1 CTX     -0.130000
     16 C11         1.0290   -1.6010    4.6550 c1        1 CTX     -0.127167
     17 C12        -0.1260   -0.8430    4.4370 c1        1 CTX     -0.127167
     18 C13        -0.7340   -0.8090    3.1210 c1        1 CTX     -0.116000
     19 C14        -2.9360   -4.8030    2.9590 c1        1 CTX     -0.127167
     20 C15        -2.2400   -6.0220    2.6560 c1        1 CTX     -0.127167
     21 C16        -1.3600   -6.0590    1.6460 c1        1 CTX     -0.127167
     22 C17        -1.1160   -4.8820    0.8700 c1        1 CTX     -0.120000
     23 C18        -1.7810   -3.7180    1.1600 c1        1 CTX     -0.041000
     24 C19        -2.7000   -3.6800    2.2160 c1        1 CTX     -0.127167
     25 C20        -1.5550   -2.4620    0.2760 c2        1 CTX     -0.045000
     26 NI          3.0880    5.7290   -2.5790 n3        1 CTX     -0.269000
     27 C21         3.2200    7.0810   -3.1650 c3        1 CTX     -0.117500
     28 C22         4.0960    4.8770   -3.1020 c3        1 CTX     -0.117500
     29 HA1        -3.8060   -3.6500   -1.5490 hc        1 CTX      0.075667
     30 HA2        -3.9500   -2.7720   -0.1200 hc        1 CTX      0.075667
     31 HA3        -4.1670   -2.0790   -1.5600 hc        1 CTX      0.075667
     32 HB1        -1.7680   -2.9880   -1.7900 hc        1 CTX      0.092000
     33 HB2        -2.1360   -1.4770   -1.5210 hc        1 CTX      0.092000
     34 HA11        1.2430    4.4840   -1.0590 h1        1 CTX      0.086500
     35 HA12        2.3030    3.5010   -1.7880 h1        1 CTX      0.086500
     36 HB11        1.7950    4.7950   -3.8340 h1        1 CTX      0.087000
     37 HB12        1.0800    5.9160   -2.8230 h1        1 CTX      0.087000
     38 H2          1.3460    0.8920   -2.6730 ha        1 CTX      0.140000
     39 H3          0.8370   -1.1510   -1.5180 ha        1 CTX      0.139000
     40 H5         -1.8130    1.0100    0.9330 ha        1 CTX      0.138000
     41 H6         -1.2060    2.9780   -0.3200 ha        1 CTX      0.148000
     42 H9          1.3880   -2.7980    1.5640 ha        1 CTX      0.134000
     43 H10         2.3660   -2.8190    3.7950 ha        1 CTX      0.130000
     44 H11         1.4580   -1.6230    5.5900 ha        1 CTX      0.131333
     45 H12        -0.5380   -0.3150    5.2030 ha        1 CTX      0.131333
     46 H13        -1.4850   -0.3190    2.9800 ha        1 CTX      0.134000
     47 H14        -3.5810   -4.7730    3.6980 ha        1 CTX      0.131333
     48 H15        -2.4020   -6.8020    3.1700 ha        1 CTX      0.131333
     49 H16        -0.8770   -6.9090    1.4340 ha        1 CTX      0.131333
     50 H17        -0.4500   -4.9070    0.1040 ha        1 CTX      0.132000
     51 H19        -3.1810   -2.8410    2.4250 ha        1 CTX      0.131333
     52 H211        4.0440    7.4010   -2.9870 h1        1 CTX      0.071833
     53 H212        2.5000    7.7170   -2.7480 h1        1 CTX      0.071833
     54 H213        3.0920    7.0350   -4.1290 h1        1 CTX      0.071833
     55 H221        3.9330    4.7220   -3.9740 h1        1 CTX      0.071833
     56 H222        4.9710    5.3020   -3.0030 h1        1 CTX      0.071833
     57 H223        4.0910    4.0060   -2.5990 h1        1 CTX      0.071833
@<TRIPOS>BOND
     1    1    2 1   
     2    1   29 1   
     3    1   30 1   
     4    1   31 1   
     5    2   25 1   
     6    2   32 1   
     7    2   33 1   
     8    3    4 1   
     9    3    6 1   
    10    4    5 1   
    11    4   34 1   
    12    4   35 1   
    13    5   26 1   
    14    5   36 1   
    15    5   37 1   
    16    6    7 1   
    17    6   10 1   
    18    7    8 1   
    19    7   38 1   
    20    8   39 1   
    21    9   11 1   
    22    9   40 1   
    23   10   41 1   
    24   11   12 1   
    25   12   13 1   
    26   12   25 1   
    27   13   14 1   
    28   13   18 1   
    29   14   15 1   
    30   14   42 1   
    31   15   43 1   
    32   16   17 1   
    33   16   44 1   
    34   17   45 1   
    35   18   46 1   
    36   19   24 1   
    37   19   47 1   
    38   20   21 1   
    39   20   48 1   
    40   21   49 1   
    41   22   23 1   
    42   22   50 1   
    43   23   25 1   
    44   24   51 1   
    45   26   27 1   
    46   26   28 1   
    47   27   52 1   
    48   27   53 1   
    49   27   54 1   
    50   28   55 1   
    51   28   56 1   
    52   28   57 1   
@<TRIPOS>SUBSTRUCTURE
     1 CTX         1 TEMP              0 ****  ****    0 ROOT
