@<TRIPOS>MOLECULE
CTX
   58    59     1     0     0
SMALL
bcc


@<TRIPOS>ATOM
      1 CA          1.3530   -0.2750   -0.8900 c2        1 CTX     -0.158000
      2 CB          1.5400    0.6060    0.0960 c2        1 CTX     -0.186000
      3 CA1         3.1710   -0.3720    8.8100 c3        1 CTX     -0.005000
      4 CB1         3.2380    1.0850    9.1740 c2        1 CTX     -0.127000
      5 C1          3.1490   -0.2950    6.4020 c2        1 CTX      0.274000
      6 C2          3.9810   -0.5340    5.1940 c3        1 CTX     -0.178000
      7 C3          3.3360   -0.1810    3.9130 c2        1 CTX      0.025000
      8 C5          1.3310    0.5440    5.0610 c2        1 CTX      0.139000
      9 C6          1.8550    0.2290    6.3010 c2        1 CTX     -0.293000
     10 C4          2.0720    0.3600    3.8540 c2        1 CTX     -0.077000
     11 C7          1.4890    0.7330    2.5640 c2        1 CTX     -0.054000
     12 C8          0.3600    1.6430    2.5600 c2        1 CTX     -0.041000
     13 C9         -0.8090    1.4660    1.6200 c3        1 CTX     -0.115000
     14 C10        -2.0950    1.7680    2.3430 c2        1 CTX     -0.128000
     15 C11        -2.1720    2.5760    3.4260 c2        1 CTX     -0.167000
     16 C12        -0.9520    3.3230    3.7710 c2        1 CTX     -0.053000
     17 C13         0.1370    2.6510    3.4070 c1        1 CTX     -0.212000
     18 C14         3.7490   -3.1080    1.5960 c3        1 CTX     -0.220000
     19 C15         4.9650   -2.7230    2.3560 c2        1 CTX     -0.141000
     20 C16         5.1420   -1.4900    2.8420 c2        1 CTX     -0.214000
     21 C17         4.1400   -0.3960    2.6730 c3        1 CTX     -0.071000
     22 C18         3.2520   -0.6380    1.4420 c3        1 CTX     -0.140000
     23 C19         2.8900   -2.0270    1.1500 c1        1 CTX     -0.017000
     24 C20         2.0470    0.2590    1.4170 c2        1 CTX      0.042000
     25 NI          3.4460    2.0070    8.3080 n2        1 CTX     -0.186000
     26 C21         3.5200    3.3840    8.6740 c3        1 CTX     -0.158000
     27 C22         2.8100    2.1210   12.6780 c3        1 CTX     -0.273000
     28 HA1        -1.5290   -1.4100   -0.2220 ha        1 CTX      0.000500
     29 HA2         0.9650    0.0320   -1.8710 ha        1 CTX      0.138500
     30 HA3        -0.9220   -1.2050   -0.4440 ha        1 CTX      0.000500
     31 HB1         1.5610   -1.3500   -0.7710 ha        1 CTX      0.138500
     32 HB2         1.3070    1.6780   -0.0390 ha        1 CTX      0.143000
     33 HA11        1.2580    0.4140    7.2090 ha        1 CTX      0.179000
     34 HA12        3.8280   -0.9720    9.5050 h1        1 CTX      0.141500
     35 HB11        2.1140   -0.7440    8.8470 h1        1 CTX      0.141500
     36 HB12        3.0900    1.2460   10.2680 h4        1 CTX      0.146000
     37 H2          4.3050   -1.6220    5.1750 hc        1 CTX      0.199000
     38 H3          4.9410    0.0630    5.3030 hc        1 CTX      0.199000
     39 H5          4.7010    0.5760    2.4990 hc        1 CTX      0.141000
     40 H6          0.2980    0.9450    4.9960 ha        1 CTX      0.195000
     41 H9         -0.8110    0.4000    1.2600 hc        1 CTX      0.129000
     42 H10        -0.7510    2.1280    0.7140 hc        1 CTX      0.129000
     43 H11        -2.9950    1.3130    1.9010 ha        1 CTX      0.150000
     44 H12        -3.1030    2.7830    3.9670 ha        1 CTX      0.154000
     45 H13        -1.0100    4.3450    4.1570 ha        1 CTX      0.169000
     46 H14         4.0400   -3.6990    0.6730 hc        1 CTX      0.168500
     47 H15         3.1100   -3.8150    2.2070 hc        1 CTX      0.168500
     48 H16         5.7300   -3.5060    2.4840 ha        1 CTX      0.149000
     49 H17         6.0620   -1.2090    3.3770 ha        1 CTX      0.137000
     50 H19         3.8850   -0.3680    0.5260 hc        1 CTX      0.176000
     51 H211        2.7520    3.9420    8.0720 h1        1 CTX      0.105000
     52 H212        4.5380    3.7620    8.3860 h1        1 CTX      0.105000
     53 H213        3.3510    3.5960    9.7650 h1        1 CTX      0.105000
     54 H221        2.9500    2.9700   11.9730 hc        1 CTX      0.068750
     55 H222        2.6900    2.5160   13.7100 hc        1 CTX      0.068750
     56 H223        1.9000    1.5480   12.3960 hc        1 CTX      0.068750
     57 HI1         3.7000    1.4540   12.6410 hc        1 CTX      0.068750
     58 OL          3.7590   -0.6830    7.5280 os        1 CTX     -0.151000
@<TRIPOS>BOND
     1    1    2 1   
     2    1   29 1   
     3    1   31 1   
     4    2   24 1   
     5    2   32 1   
     6    3    4 1   
     7    3   34 1   
     8    3   35 1   
     9    3   58 1   
    10    4   25 1   
    11    4   36 1   
    12    5    6 1   
    13    5    9 1   
    14    5   58 1   
    15    6    7 1   
    16    6   37 1   
    17    6   38 1   
    18    7   10 1   
    19    7   21 1   
    20    8    9 1   
    21    8   10 1   
    22    8   40 1   
    23    9   33 1   
    24   10   11 1   
    25   11   12 1   
    26   11   24 1   
    27   12   13 1   
    28   12   17 1   
    29   13   14 1   
    30   13   41 1   
    31   13   42 1   
    32   14   15 1   
    33   14   43 1   
    34   15   16 1   
    35   15   44 1   
    36   16   17 1   
    37   16   45 1   
    38   18   19 1   
    39   18   23 1   
    40   18   46 1   
    41   18   47 1   
    42   19   20 1   
    43   19   48 1   
    44   20   21 1   
    45   20   49 1   
    46   21   22 1   
    47   21   39 1   
    48   22   23 1   
    49   22   24 1   
    50   22   50 1   
    51   25   26 1   
    52   26   51 1   
    53   26   52 1   
    54   26   53 1   
    55   27   54 1   
    56   27   55 1   
    57   27   56 1   
    58   27   57 1   
    59   28   30 1   
@<TRIPOS>SUBSTRUCTURE
     1 CTX         1 TEMP              0 ****  ****    0 ROOT
