@<TRIPOS>MOLECULE
CTZ
   54    58     1     0     0
SMALL
bcc


@<TRIPOS>ATOM
      1 N1          0.0810   -0.3730    1.7180 n2        1 CTZ     -0.344200
      2 C2          1.4240   -0.4490    2.3730 c3        1 CTZ      0.265000
      3 C3          2.4680   -0.2940    1.1930 c         1 CTZ      0.581300
      4 N4          1.6620   -0.1570    0.0270 n         1 CTZ     -0.171200
      5 C5          2.0000   -0.0340   -1.3030 cc        1 CTZ     -0.098600
      6 C6          1.0030    0.0660   -2.2590 cd        1 CTZ      0.358800
      7 N7         -0.3600    0.0170   -1.9310 nd        1 CTZ     -0.593000
      8 C8         -0.7170   -0.1210   -0.6810 cc        1 CTZ      0.427600
      9 C9          0.2810   -0.2270    0.4250 cc        1 CTZ     -0.008600
     10 C10         1.6750    0.6650    3.4040 c3        1 CTZ     -0.036100
     11 C11         0.7880    0.5480    4.5900 ca        1 CTZ     -0.133300
     12 C12         1.2020   -0.1890    5.7050 ca        1 CTZ     -0.080500
     13 C13         0.3910   -0.2860    6.8330 ca        1 CTZ     -0.186500
     14 C14        -0.8520    0.3630    6.8400 ca        1 CTZ      0.132100
     15 C15        -1.2830    1.1050    5.7260 ca        1 CTZ     -0.186500
     16 C16        -0.4580    1.1900    4.6110 ca        1 CTZ     -0.080500
     17 O17        -1.7080    0.3170    7.9150 oh        1 CTZ     -0.495100
     18 O18         3.6910   -0.2540    1.2300 o         1 CTZ     -0.529500
     19 C19         1.3680    0.2250   -3.6720 ca        1 CTZ     -0.163500
     20 C20         0.6280   -0.4100   -4.6790 ca        1 CTZ     -0.073000
     21 C21         0.9910   -0.2680   -6.0150 ca        1 CTZ     -0.188000
     22 C22         2.1010    0.5210   -6.3480 ca        1 CTZ      0.131100
     23 C23         2.8470    1.1710   -5.3490 ca        1 CTZ     -0.188000
     24 C24         2.4710    1.0190   -4.0210 ca        1 CTZ     -0.073000
     25 O25         2.5210    0.7060   -7.6440 oh        1 CTZ     -0.496100
     26 C26        -2.1480   -0.1890   -0.2300 c3        1 CTZ     -0.080400
     27 C27        -3.1490   -0.1960   -1.3300 ca        1 CTZ     -0.076300
     28 C28        -3.8260   -1.3760   -1.6580 ca        1 CTZ     -0.112500
     29 C29        -4.7870   -1.3770   -2.6670 ca        1 CTZ     -0.131000
     30 C30        -5.0790   -0.2010   -3.3580 ca        1 CTZ     -0.127000
     31 C31        -4.4050    0.9780   -3.0370 ca        1 CTZ     -0.131000
     32 C32        -3.4450    0.9820   -2.0270 ca        1 CTZ     -0.112500
     33 O33         1.6790   -1.7320    2.9180 oh        1 CTZ     -0.569800
     34 H5          3.0790   -0.0220   -1.5370 h4        1 CTZ      0.185000
     35 H101        1.5310    1.6630    2.9110 hc        1 CTZ      0.073700
     36 H102        2.7520    0.5820    3.7130 hc        1 CTZ      0.073700
     37 H12         2.1800   -0.6950    5.6930 ha        1 CTZ      0.141000
     38 H13         0.7210   -0.8640    7.7070 ha        1 CTZ      0.145500
     39 H15        -2.2620    1.6030    5.7520 ha        1 CTZ      0.145500
     40 H16        -0.7910    1.7600    3.7310 ha        1 CTZ      0.141000
     41 H17        -1.2930   -0.2190    8.6060 ho        1 CTZ      0.421000
     42 H20        -0.2470   -1.0260   -4.4190 ha        1 CTZ      0.143500
     43 H21         0.4100   -0.7680   -6.8020 ha        1 CTZ      0.145000
     44 H23         3.7090    1.7900   -5.6320 ha        1 CTZ      0.145000
     45 H24         3.0430    1.5400   -3.2370 ha        1 CTZ      0.143500
     46 H25         1.9200    0.2170   -8.2250 ho        1 CTZ      0.421000
     47 H261       -2.2630   -1.1150    0.4000 hc        1 CTZ      0.078200
     48 H262       -2.3320    0.6970    0.4410 hc        1 CTZ      0.078200
     49 H28        -3.5990   -2.3070   -1.1180 ha        1 CTZ      0.132000
     50 H29        -5.3160   -2.3080   -2.9190 ha        1 CTZ      0.131000
     51 H30        -5.8380   -0.2020   -4.1540 ha        1 CTZ      0.130000
     52 H31        -4.6300    1.9060   -3.5820 ha        1 CTZ      0.131000
     53 H32        -2.9090    1.9110   -1.7810 ha        1 CTZ      0.132000
     54 H33         1.0870   -1.8390    3.6780 ho        1 CTZ      0.434000
@<TRIPOS>BOND
     1    1    2 1   
     2    1    9 2   
     3    2    3 1   
     4    2   10 1   
     5    2   33 1   
     6    3    4 1   
     7    3   18 2   
     8    4    5 1   
     9    4    9 1   
    10    5    6 2   
    11    5   34 1   
    12    6    7 1   
    13    6   19 1   
    14    7    8 2   
    15    8    9 1   
    16    8   26 1   
    17   10   11 1   
    18   10   35 1   
    19   10   36 1   
    20   11   12 ar  
    21   11   16 ar  
    22   12   13 ar  
    23   12   37 1   
    24   13   14 ar  
    25   13   38 1   
    26   14   15 ar  
    27   14   17 1   
    28   15   16 ar  
    29   15   39 1   
    30   16   40 1   
    31   17   41 1   
    32   19   20 ar  
    33   19   24 ar  
    34   20   21 ar  
    35   20   42 1   
    36   21   22 ar  
    37   21   43 1   
    38   22   23 ar  
    39   22   25 1   
    40   23   24 ar  
    41   23   44 1   
    42   24   45 1   
    43   25   46 1   
    44   26   27 1   
    45   26   47 1   
    46   26   48 1   
    47   27   28 ar  
    48   27   32 ar  
    49   28   29 ar  
    50   28   49 1   
    51   29   30 ar  
    52   29   50 1   
    53   30   31 ar  
    54   30   51 1   
    55   31   32 ar  
    56   31   52 1   
    57   32   53 1   
    58   33   54 1   
@<TRIPOS>SUBSTRUCTURE
     1 CTZ         1 TEMP              0 ****  ****    0 ROOT
