@<TRIPOS>MOLECULE
CTZ
   54    58     1     0     0
SMALL
bcc


@<TRIPOS>ATOM
      1 N1         -0.1330    0.0150    0.1190 n2        1 CTZ     -0.345200
      2 C2          1.3600    0.0420    0.0260 c3        1 CTZ      0.266000
      3 C3          1.8670   -0.0230    1.5240 c         1 CTZ      0.581300
      4 N4          0.6720   -0.0720    2.2980 n         1 CTZ     -0.171200
      5 C5          0.4720   -0.0940    3.6600 cc        1 CTZ     -0.097600
      6 C6         -0.8190   -0.1220    4.1640 cd        1 CTZ      0.357800
      7 N7         -1.9490   -0.0980    3.3350 nd        1 CTZ     -0.593000
      8 C8         -1.7960   -0.0550    2.0380 cc        1 CTZ      0.426600
      9 C9         -0.4480   -0.0330    1.3960 cc        1 CTZ     -0.008600
     10 C10         1.9550   -1.1450   -0.7490 c3        1 CTZ     -0.036100
     11 C11         1.5880   -1.1220   -2.1890 ca        1 CTZ     -0.133300
     12 C12         2.4170   -0.4720   -3.1140 ca        1 CTZ     -0.080000
     13 C13         2.1010   -0.4580   -4.4670 ca        1 CTZ     -0.186000
     14 C14         0.9320   -1.1070   -4.9010 ca        1 CTZ      0.132100
     15 C15         0.0920   -1.7590   -3.9870 ca        1 CTZ     -0.186000
     16 C16         0.4270   -1.7610   -2.6360 ca        1 CTZ     -0.080000
     17 O17         0.6710   -1.0620   -6.2500 oh        1 CTZ     -0.495100
     18 O18         3.0090   -0.0660    1.9640 o         1 CTZ     -0.528500
     19 C19        -1.0280   -0.1740    5.6160 ca        1 CTZ     -0.163500
     20 C20        -2.0770    0.5360    6.2150 ca        1 CTZ     -0.073000
     21 C21        -2.2590    0.4940    7.5940 ca        1 CTZ     -0.188000
     22 C22        -1.3850   -0.2680    8.3820 ca        1 CTZ      0.131100
     23 C23        -0.3330   -0.9920    7.7940 ca        1 CTZ     -0.188000
     24 C24        -0.1670   -0.9410    6.4160 ca        1 CTZ     -0.073000
     25 O25        -1.5000   -0.3550    9.7500 oh        1 CTZ     -0.496100
     26 C26        -2.9420   -0.0210    1.0670 c3        1 CTZ     -0.080400
     27 C27        -4.2880    0.0670    1.6950 ca        1 CTZ     -0.076300
     28 C28        -5.0080    1.2660    1.6500 ca        1 CTZ     -0.112500
     29 C29        -6.2830    1.3410    2.2090 ca        1 CTZ     -0.131000
     30 C30        -6.8480    0.2210    2.8170 ca        1 CTZ     -0.127000
     31 C31        -6.1330   -0.9760    2.8670 ca        1 CTZ     -0.131000
     32 C32        -4.8590   -1.0550    2.3080 ca        1 CTZ     -0.112500
     33 O33         1.8410    1.2810   -0.4660 oh        1 CTZ     -0.568800
     34 H5          1.3780   -0.0880    4.2910 h4        1 CTZ      0.185000
     35 H101        1.6110   -2.1030   -0.2780 hc        1 CTZ      0.073200
     36 H102        3.0720   -1.0820   -0.6310 hc        1 CTZ      0.073200
     37 H12         3.3320    0.0320   -2.7640 ha        1 CTZ      0.141000
     38 H13         2.7460    0.0460   -5.2000 ha        1 CTZ      0.145500
     39 H15        -0.8220   -2.2610   -4.3340 ha        1 CTZ      0.145500
     40 H16        -0.2340   -2.2640   -1.9120 ha        1 CTZ      0.141000
     41 H17        -0.1580   -1.5370   -6.4100 ho        1 CTZ      0.421000
     42 H20        -2.7680    1.1310    5.5960 ha        1 CTZ      0.143500
     43 H21        -3.0820    1.0530    8.0610 ha        1 CTZ      0.145000
     44 H23         0.3370   -1.5880    8.4290 ha        1 CTZ      0.145000
     45 H24         0.6460   -1.5190    5.9510 ha        1 CTZ      0.143500
     46 H25        -2.2620    0.1780   10.0200 ho        1 CTZ      0.421000
     47 H261       -2.8800   -0.9540    0.4400 hc        1 CTZ      0.077700
     48 H262       -2.7800    0.8560    0.3800 hc        1 CTZ      0.077700
     49 H28        -4.5660    2.1540    1.1730 ha        1 CTZ      0.132000
     50 H29        -6.8430    2.2870    2.1690 ha        1 CTZ      0.131000
     51 H30        -7.8530    0.2810    3.2580 ha        1 CTZ      0.130000
     52 H31        -6.5740   -1.8610    3.3500 ha        1 CTZ      0.131000
     53 H32        -4.2940   -1.9970    2.3560 ha        1 CTZ      0.132000
     54 H33         1.5950    1.3290   -1.4030 ho        1 CTZ      0.434000
@<TRIPOS>BOND
     1    1    2 1   
     2    1    9 2   
     3    2    3 1   
     4    2   10 1   
     5    2   33 1   
     6    3    4 1   
     7    3   18 2   
     8    4    5 1   
     9    4    9 1   
    10    5    6 2   
    11    5   34 1   
    12    6    7 1   
    13    6   19 1   
    14    7    8 2   
    15    8    9 1   
    16    8   26 1   
    17   10   11 1   
    18   10   35 1   
    19   10   36 1   
    20   11   12 ar  
    21   11   16 ar  
    22   12   13 ar  
    23   12   37 1   
    24   13   14 ar  
    25   13   38 1   
    26   14   15 ar  
    27   14   17 1   
    28   15   16 ar  
    29   15   39 1   
    30   16   40 1   
    31   17   41 1   
    32   19   20 ar  
    33   19   24 ar  
    34   20   21 ar  
    35   20   42 1   
    36   21   22 ar  
    37   21   43 1   
    38   22   23 ar  
    39   22   25 1   
    40   23   24 ar  
    41   23   44 1   
    42   24   45 1   
    43   25   46 1   
    44   26   27 1   
    45   26   47 1   
    46   26   48 1   
    47   27   28 ar  
    48   27   32 ar  
    49   28   29 ar  
    50   28   49 1   
    51   29   30 ar  
    52   29   50 1   
    53   30   31 ar  
    54   30   51 1   
    55   31   32 ar  
    56   31   52 1   
    57   32   53 1   
    58   33   54 1   
@<TRIPOS>SUBSTRUCTURE
     1 CTZ         1 TEMP              0 ****  ****    0 ROOT
