@<TRIPOS>MOLECULE
CTZ
   54    58     1     0     0
SMALL
bcc


@<TRIPOS>ATOM
      1 N1         -0.1060   -0.0200    0.1050 n2        1 CTZ     -0.345200
      2 C2          1.3860    0.0180    0.0050 c3        1 CTZ      0.266000
      3 C3          1.8990   -0.0030    1.5020 c         1 CTZ      0.581300
      4 N4          0.7090   -0.0420    2.2820 n         1 CTZ     -0.171200
      5 C5          0.5130   -0.0300    3.6450 cc        1 CTZ     -0.097600
      6 C6         -0.7750   -0.0560    4.1550 cd        1 CTZ      0.357800
      7 N7         -1.9090   -0.0630    3.3310 nd        1 CTZ     -0.593000
      8 C8         -1.7610   -0.0530    2.0320 cc        1 CTZ      0.426600
      9 C9         -0.4160   -0.0360    1.3840 cc        1 CTZ     -0.008600
     10 C10         1.9880   -1.1850   -0.7410 c3        1 CTZ     -0.036100
     11 C11         1.6140   -1.2030   -2.1790 ca        1 CTZ     -0.133300
     12 C12         2.4330   -0.5700   -3.1250 ca        1 CTZ     -0.080000
     13 C13         2.1110   -0.5950   -4.4770 ca        1 CTZ     -0.186000
     14 C14         0.9460   -1.2650   -4.8880 ca        1 CTZ      0.132100
     15 C15         0.1160   -1.9000   -3.9530 ca        1 CTZ     -0.186000
     16 C16         0.4570   -1.8640   -2.6030 ca        1 CTZ     -0.080000
     17 O17         0.6780   -1.2590   -6.2360 oh        1 CTZ     -0.495100
     18 O18         3.0440   -0.0250    1.9380 o         1 CTZ     -0.528500
     19 C19        -0.9770   -0.0710    5.6090 ca        1 CTZ     -0.163500
     20 C20        -2.0310    0.6450    6.1930 ca        1 CTZ     -0.073000
     21 C21        -2.2060    0.6380    7.5740 ca        1 CTZ     -0.188000
     22 C22        -1.3220   -0.0950    8.3780 ca        1 CTZ      0.131100
     23 C23        -0.2670   -0.8240    7.8050 ca        1 CTZ     -0.188000
     24 C24        -0.1060   -0.8090    6.4260 ca        1 CTZ     -0.073000
     25 O25        -1.4310   -0.1470    9.7480 oh        1 CTZ     -0.496100
     26 C26        -2.9110   -0.0550    1.0670 c3        1 CTZ     -0.080400
     27 C27        -4.2560    0.0360    1.6970 ca        1 CTZ     -0.076300
     28 C28        -4.9860    1.2280    1.6270 ca        1 CTZ     -0.113000
     29 C29        -6.2590    1.3050    2.1900 ca        1 CTZ     -0.131000
     30 C30        -6.8110    0.1950    2.8280 ca        1 CTZ     -0.127000
     31 C31        -6.0860   -0.9950    2.9020 ca        1 CTZ     -0.131000
     32 C32        -4.8140   -1.0750    2.3390 ca        1 CTZ     -0.113000
     33 O33         1.8540    1.2470   -0.5220 oh        1 CTZ     -0.568800
     34 H5          1.4220    0.0010    4.2720 h4        1 CTZ      0.185000
     35 H101        1.6540   -2.1330   -0.2430 hc        1 CTZ      0.073200
     36 H102        3.1040   -1.1080   -0.6300 hc        1 CTZ      0.073200
     37 H12         3.3450   -0.0490   -2.7930 ha        1 CTZ      0.141000
     38 H13         2.7480   -0.1040   -5.2260 ha        1 CTZ      0.145500
     39 H15        -0.7950   -2.4200   -4.2820 ha        1 CTZ      0.145500
     40 H16        -0.1960   -2.3530   -1.8640 ha        1 CTZ      0.141000
     41 H17        -0.1460   -1.7460   -6.3800 ho        1 CTZ      0.421000
     42 H20        -2.7290    1.2170    5.5620 ha        1 CTZ      0.143500
     43 H21        -3.0320    1.2020    8.0300 ha        1 CTZ      0.145000
     44 H23         0.4120   -1.3980    8.4520 ha        1 CTZ      0.145000
     45 H24         0.7110   -1.3920    5.9720 ha        1 CTZ      0.143500
     46 H25        -2.1970    0.3860   10.0070 ho        1 CTZ      0.421000
     47 H261       -2.8430   -1.0030    0.4630 hc        1 CTZ      0.077700
     48 H262       -2.7610    0.8060    0.3570 hc        1 CTZ      0.077700
     49 H28        -4.5540    2.1080    1.1270 ha        1 CTZ      0.132000
     50 H29        -6.8270    2.2450    2.1300 ha        1 CTZ      0.131000
     51 H30        -7.8150    0.2570    3.2710 ha        1 CTZ      0.130000
     52 H31        -6.5180   -1.8710    3.4080 ha        1 CTZ      0.131000
     53 H32        -4.2400   -2.0110    2.4070 ha        1 CTZ      0.132000
     54 H33         1.6030    1.2680   -1.4580 ho        1 CTZ      0.434000
@<TRIPOS>BOND
     1    1    2 1   
     2    1    9 2   
     3    2    3 1   
     4    2   10 1   
     5    2   33 1   
     6    3    4 1   
     7    3   18 2   
     8    4    5 1   
     9    4    9 1   
    10    5    6 2   
    11    5   34 1   
    12    6    7 1   
    13    6   19 1   
    14    7    8 2   
    15    8    9 1   
    16    8   26 1   
    17   10   11 1   
    18   10   35 1   
    19   10   36 1   
    20   11   12 ar  
    21   11   16 ar  
    22   12   13 ar  
    23   12   37 1   
    24   13   14 ar  
    25   13   38 1   
    26   14   15 ar  
    27   14   17 1   
    28   15   16 ar  
    29   15   39 1   
    30   16   40 1   
    31   17   41 1   
    32   19   20 ar  
    33   19   24 ar  
    34   20   21 ar  
    35   20   42 1   
    36   21   22 ar  
    37   21   43 1   
    38   22   23 ar  
    39   22   25 1   
    40   23   24 ar  
    41   23   44 1   
    42   24   45 1   
    43   25   46 1   
    44   26   27 1   
    45   26   47 1   
    46   26   48 1   
    47   27   28 ar  
    48   27   32 ar  
    49   28   29 ar  
    50   28   49 1   
    51   29   30 ar  
    52   29   50 1   
    53   30   31 ar  
    54   30   51 1   
    55   31   32 ar  
    56   31   52 1   
    57   32   53 1   
    58   33   54 1   
@<TRIPOS>SUBSTRUCTURE
     1 CTZ         1 TEMP              0 ****  ****    0 ROOT
