@<TRIPOS>MOLECULE
CTZ
   54    58     1     0     0
SMALL
bcc


@<TRIPOS>ATOM
      1 N1         -0.1070   -0.0190    0.1050 n2        1 CTZ     -0.345200
      2 C2          1.3850    0.0170    0.0050 c3        1 CTZ      0.266000
      3 C3          1.9000   -0.0070    1.5020 c         1 CTZ      0.581300
      4 N4          0.7090   -0.0460    2.2820 n         1 CTZ     -0.171200
      5 C5          0.5140   -0.0360    3.6450 cc        1 CTZ     -0.097600
      6 C6         -0.7740   -0.0610    4.1560 cd        1 CTZ      0.357800
      7 N7         -1.9080   -0.0660    3.3310 nd        1 CTZ     -0.593000
      8 C8         -1.7610   -0.0540    2.0330 cc        1 CTZ      0.426600
      9 C9         -0.4160   -0.0370    1.3840 cc        1 CTZ     -0.008600
     10 C10         1.9860   -1.1850   -0.7440 c3        1 CTZ     -0.036100
     11 C11         1.6120   -1.2000   -2.1820 ca        1 CTZ     -0.133300
     12 C12         2.4310   -0.5660   -3.1270 ca        1 CTZ     -0.080000
     13 C13         2.1090   -0.5890   -4.4780 ca        1 CTZ     -0.186000
     14 C14         0.9440   -1.2580   -4.8900 ca        1 CTZ      0.132100
     15 C15         0.1130   -1.8940   -3.9560 ca        1 CTZ     -0.186000
     16 C16         0.4540   -1.8600   -2.6070 ca        1 CTZ     -0.080000
     17 O17         0.6760   -1.2490   -6.2390 oh        1 CTZ     -0.495100
     18 O18         3.0440   -0.0300    1.9370 o         1 CTZ     -0.528500
     19 C19        -0.9760   -0.0780    5.6090 ca        1 CTZ     -0.163500
     20 C20        -2.0280    0.6390    6.1950 ca        1 CTZ     -0.073000
     21 C21        -2.2030    0.6310    7.5760 ca        1 CTZ     -0.188000
     22 C22        -1.3190   -0.1040    8.3790 ca        1 CTZ      0.131100
     23 C23        -0.2650   -0.8350    7.8040 ca        1 CTZ     -0.188000
     24 C24        -0.1050   -0.8180    6.4250 ca        1 CTZ     -0.073000
     25 O25        -1.4270   -0.1580    9.7490 oh        1 CTZ     -0.496100
     26 C26        -2.9110   -0.0530    1.0680 c3        1 CTZ     -0.080400
     27 C27        -4.2550    0.0400    1.6990 ca        1 CTZ     -0.076300
     28 C28        -4.9840    1.2320    1.6280 ca        1 CTZ     -0.112500
     29 C29        -6.2570    1.3110    2.1910 ca        1 CTZ     -0.131000
     30 C30        -6.8110    0.2020    2.8300 ca        1 CTZ     -0.127000
     31 C31        -6.0870   -0.9880    2.9050 ca        1 CTZ     -0.131000
     32 C32        -4.8150   -1.0710    2.3420 ca        1 CTZ     -0.112500
     33 O33         1.8550    1.2470   -0.5200 oh        1 CTZ     -0.568800
     34 H5          1.4230   -0.0070    4.2720 h4        1 CTZ      0.185000
     35 H101        1.6520   -2.1340   -0.2470 hc        1 CTZ      0.073200
     36 H102        3.1030   -1.1100   -0.6330 hc        1 CTZ      0.073200
     37 H12         3.3440   -0.0460   -2.7940 ha        1 CTZ      0.141000
     38 H13         2.7460   -0.0970   -5.2260 ha        1 CTZ      0.145500
     39 H15        -0.7980   -2.4120   -4.2860 ha        1 CTZ      0.145500
     40 H16        -0.1980   -2.3500   -1.8680 ha        1 CTZ      0.141000
     41 H17        -0.1490   -1.7350   -6.3830 ho        1 CTZ      0.421000
     42 H20        -2.7250    1.2130    5.5650 ha        1 CTZ      0.143500
     43 H21        -3.0280    1.1950    8.0330 ha        1 CTZ      0.145000
     44 H23         0.4130   -1.4100    8.4500 ha        1 CTZ      0.145000
     45 H24         0.7110   -1.4010    5.9700 ha        1 CTZ      0.143500
     46 H25        -2.1920    0.3760   10.0090 ho        1 CTZ      0.421000
     47 H261       -2.8450   -1.0010    0.4630 hc        1 CTZ      0.077700
     48 H262       -2.7600    0.8080    0.3580 hc        1 CTZ      0.077700
     49 H28        -4.5520    2.1110    1.1270 ha        1 CTZ      0.132000
     50 H29        -6.8240    2.2520    2.1310 ha        1 CTZ      0.131000
     51 H30        -7.8150    0.2660    3.2730 ha        1 CTZ      0.130000
     52 H31        -6.5190   -1.8630    3.4120 ha        1 CTZ      0.131000
     53 H32        -4.2420   -2.0070    2.4100 ha        1 CTZ      0.132000
     54 H33         1.6040    1.2700   -1.4560 ho        1 CTZ      0.434000
@<TRIPOS>BOND
     1    1    2 1   
     2    1    9 2   
     3    2    3 1   
     4    2   10 1   
     5    2   33 1   
     6    3    4 1   
     7    3   18 2   
     8    4    5 1   
     9    4    9 1   
    10    5    6 2   
    11    5   34 1   
    12    6    7 1   
    13    6   19 1   
    14    7    8 2   
    15    8    9 1   
    16    8   26 1   
    17   10   11 1   
    18   10   35 1   
    19   10   36 1   
    20   11   12 ar  
    21   11   16 ar  
    22   12   13 ar  
    23   12   37 1   
    24   13   14 ar  
    25   13   38 1   
    26   14   15 ar  
    27   14   17 1   
    28   15   16 ar  
    29   15   39 1   
    30   16   40 1   
    31   17   41 1   
    32   19   20 ar  
    33   19   24 ar  
    34   20   21 ar  
    35   20   42 1   
    36   21   22 ar  
    37   21   43 1   
    38   22   23 ar  
    39   22   25 1   
    40   23   24 ar  
    41   23   44 1   
    42   24   45 1   
    43   25   46 1   
    44   26   27 1   
    45   26   47 1   
    46   26   48 1   
    47   27   28 ar  
    48   27   32 ar  
    49   28   29 ar  
    50   28   49 1   
    51   29   30 ar  
    52   29   50 1   
    53   30   31 ar  
    54   30   51 1   
    55   31   32 ar  
    56   31   52 1   
    57   32   53 1   
    58   33   54 1   
@<TRIPOS>SUBSTRUCTURE
     1 CTZ         1 TEMP              0 ****  ****    0 ROOT
