@<TRIPOS>MOLECULE
CTZ
   54    49     1     0     0
SMALL
bcc


@<TRIPOS>ATOM
      1 N1          0.3430   -1.0580   -1.6560 n1        1 CTZ     -0.236000
      2 C2          1.7150   -1.0540   -1.6940 c2        1 CTZ      0.138000
      3 C3          2.0630   -0.8660   -0.1320 c2        1 CTZ      0.252000
      4 N4          0.7200   -0.7930    0.5540 n         1 CTZ     -0.271000
      5 C5          0.2980   -0.2940    1.8390 c2        1 CTZ     -0.005000
      6 C6         -1.1010    0.2370    2.0170 c1        1 CTZ     -0.082000
      7 N7         -2.0030    0.2050    0.9420 n1        1 CTZ     -0.075000
      8 C8         -1.6030   -0.3420   -0.2940 c1        1 CTZ      0.006000
      9 C9         -0.1820   -0.9190   -0.4540 c1        1 CTZ      0.089000
     10 C10         2.3270   -2.2850   -2.3280 c3        1 CTZ     -0.086000
     11 C11         3.8230   -2.0930   -2.4620 c2        1 CTZ     -0.122000
     12 C12         4.6140   -2.0030   -1.3280 c2        1 CTZ     -0.079000
     13 C13         5.9760   -1.7770   -1.4490 c1        1 CTZ     -0.215000
     14 C14         6.5470   -1.6410   -2.7040 c1        1 CTZ      0.086500
     15 C15         5.7560   -1.7310   -3.8390 c1        1 CTZ     -0.159500
     16 C16         4.3940   -1.9570   -3.7180 c1        1 CTZ     -0.067000
     17 O17         7.9170   -1.3430   -2.8240 oh        1 CTZ     -0.250000
     18 O18         3.1220   -1.1290    0.3990 o         1 CTZ     -0.238000
     19 C19        -1.5590    0.7220    3.3750 c2        1 CTZ     -0.055000
     20 C20        -1.2760    2.0170    3.7790 c2        1 CTZ     -0.085000
     21 C21        -1.6590    2.4500    5.0390 c1        1 CTZ     -0.215000
     22 C22        -2.3250    1.5870    5.8940 c1        1 CTZ      0.086500
     23 C23        -2.6080    0.2910    5.4900 c1        1 CTZ     -0.159500
     24 C24        -2.2250   -0.1410    4.2300 c1        1 CTZ     -0.063000
     25 O25        -2.7150    2.0250    7.1730 oh        1 CTZ     -0.250000
     26 C26        -2.5990   -0.4610   -1.4250 c3        1 CTZ     -0.072000
     27 C27        -3.5160    0.7430   -1.4190 c2        1 CTZ     -0.085000
     28 C28        -3.2180    1.8440   -2.2070 c2        1 CTZ     -0.114000
     29 C29        -4.1020    2.9090   -2.2740 c1        1 CTZ     -0.135000
     30 C30        -5.2850    2.8740   -1.5520 c1        1 CTZ     -0.129000
     31 C31        -5.5830    1.7740   -0.7640 c1        1 CTZ     -0.129000
     32 C32        -4.6990    0.7080   -0.6970 c1        1 CTZ     -0.116000
     33 O33         2.2200   -0.0460   -2.4730 oh        1 CTZ     -0.284000
     34 H5          0.9280   -0.2720    2.5850 h4        1 CTZ      0.185000
     35 H101        1.9360   -2.4240   -3.2140 hc        1 CTZ      0.112000
     36 H102        2.1480   -3.0650   -1.7660 hc        1 CTZ      0.112000
     37 H12         4.2120   -2.0980   -0.4450 ha        1 CTZ      0.129000
     38 H13         6.5330   -1.7140   -0.6490 ha        1 CTZ      0.133000
     39 H15         6.1580   -1.6360   -4.7220 ha        1 CTZ      0.152500
     40 H16         3.8370   -2.0210   -4.5170 ha        1 CTZ      0.153000
     41 H17         8.3850   -2.0990   -2.8470 ho        1 CTZ      0.218500
     42 H20        -0.8060    2.6250    3.1770 ha        1 CTZ      0.134000
     43 H21        -1.4600    3.3620    5.3240 ha        1 CTZ      0.136000
     44 H23        -3.0780   -0.3160    6.0930 ha        1 CTZ      0.152500
     45 H24        -2.4240   -1.0530    3.9460 ha        1 CTZ      0.150000
     46 H25        -3.4770    2.4790    7.1120 ho        1 CTZ      0.218500
     47 H261       -3.1290   -1.2750   -1.3090 hc        1 CTZ      0.117500
     48 H262       -2.1210   -0.5020   -2.2770 hc        1 CTZ      0.117500
     49 H28        -2.3850    1.8690   -2.7160 ha        1 CTZ      0.145000
     50 H29        -3.8920    3.6840   -2.8290 ha        1 CTZ      0.132000
     51 H30        -5.9080    3.6240   -1.5980 ha        1 CTZ      0.132000
     52 H31        -6.4150    1.7490   -0.2560 ha        1 CTZ      0.132000
     53 H32        -4.9090   -0.0670   -0.1420 ha        1 CTZ      0.142000
     54 H33         2.2910    0.6970   -1.9890 ho        1 CTZ      0.220000
@<TRIPOS>BOND
     1    1    9 1   
     2    2    3 1   
     3    2   10 1   
     4    2   33 1   
     5    3    4 1   
     6    3   18 1   
     7    4    5 1   
     8    4    9 1   
     9    5    6 1   
    10    5   34 1   
    11    6   19 1   
    12    7    8 1   
    13    8   26 1   
    14   10   11 1   
    15   10   35 1   
    16   10   36 1   
    17   11   12 1   
    18   11   16 1   
    19   12   13 1   
    20   12   37 1   
    21   13   38 1   
    22   14   15 1   
    23   14   17 1   
    24   15   39 1   
    25   16   40 1   
    26   17   41 1   
    27   19   20 1   
    28   19   24 1   
    29   20   21 1   
    30   20   42 1   
    31   21   43 1   
    32   22   23 1   
    33   22   25 1   
    34   23   44 1   
    35   24   45 1   
    36   25   46 1   
    37   26   27 1   
    38   26   47 1   
    39   26   48 1   
    40   27   28 1   
    41   27   32 1   
    42   28   29 1   
    43   28   49 1   
    44   29   50 1   
    45   30   31 1   
    46   30   51 1   
    47   31   52 1   
    48   32   53 1   
    49   33   54 1   
@<TRIPOS>SUBSTRUCTURE
     1 CTZ         1 TEMP              0 ****  ****    0 ROOT
