@<TRIPOS>MOLECULE
CU9
   96   102     1     0     0
SMALL
bcc


@<TRIPOS>ATOM
      1 N1          0.2360   -0.4480    0.0240 n4        1 CU9     -0.605800
      2 C2          1.5280    0.1600    0.4960 c3        1 CU9      0.119800
      3 C3          1.4700    0.6700    1.9290 c3        1 CU9     -0.060100
      4 C4          0.6920   -0.2140    2.8380 ca        1 CU9     -0.049300
      5 C5         -0.0380   -1.3050    2.3540 ca        1 CU9     -0.173300
      6 C6         -0.0900   -1.6640    0.8920 c3        1 CU9      0.211800
      7 C7          0.6720    0.0990    4.2010 ca        1 CU9     -0.199000
      8 C8         -0.0650   -0.6840    5.0970 ca        1 CU9      0.184100
      9 C9         -0.7770   -1.8100    4.6030 ca        1 CU9      0.084100
     10 C10        -0.7670   -2.1070    3.2440 ca        1 CU9     -0.095000
     11 O11        -1.5870   -2.5100    5.4930 os        1 CU9     -0.217200
     12 C12        -1.2970   -3.8670    5.6350 ca        1 CU9      0.066100
     13 C13        -0.1160   -4.3210    6.2700 ca        1 CU9      0.143100
     14 C14         0.0240   -5.6860    6.5500 ca        1 CU9     -0.187000
     15 C15        -0.9900   -6.5740    6.2020 ca        1 CU9     -0.103000
     16 C16        -2.1510   -6.1360    5.5590 ca        1 CU9     -0.135300
     17 C17        -2.2970   -4.7720    5.2720 ca        1 CU9     -0.088000
     18 C18        -3.2670   -7.0610    5.2190 c3        1 CU9     -0.036100
     19 C19        -2.7950   -8.3750    4.5660 c3        1 CU9      0.211800
     20 N20        -3.1640   -9.6290    5.3680 n4        1 CU9     -0.604800
     21 C21        -4.6600   -9.7550    5.4890 c3        1 CU9      0.116800
     22 C22        -5.4750   -9.2590    4.2930 c3        1 CU9     -0.055100
     23 C23        -4.6880   -8.9940    3.0620 ca        1 CU9     -0.047300
     24 C24        -3.3750   -8.5190    3.1870 ca        1 CU9     -0.183300
     25 C25        -5.2550   -9.1970    1.8040 ca        1 CU9     -0.189000
     26 C26        -4.5050   -8.9310    0.6500 ca        1 CU9      0.152100
     27 C27        -3.1680   -8.4670    0.7570 ca        1 CU9      0.067100
     28 C28        -2.6190   -8.2480    2.0320 ca        1 CU9      0.137100
     29 O29        -1.2840   -7.9020    2.2060 os        1 CU9     -0.254200
     30 C30        -0.8760   -6.6350    1.7900 ca        1 CU9      0.133100
     31 C31         0.4380   -6.3050    2.1660 ca        1 CU9     -0.146500
     32 C32         0.9550   -5.0670    1.7980 ca        1 CU9     -0.094000
     33 C33         0.1890   -4.1610    1.0510 ca        1 CU9     -0.124300
     34 C34        -1.1110   -4.5160    0.6740 ca        1 CU9     -0.094000
     35 C35        -1.6570   -5.7410    1.0520 ca        1 CU9     -0.146500
     36 C36         0.8080   -2.8820    0.6020 c3        1 CU9     -0.041100
     37 O37        -0.1720   -0.4490    6.4390 os        1 CU9     -0.280900
     38 C38         0.4770    0.7210    6.9410 c3        1 CU9      0.101700
     39 O39         0.8350   -3.3710    6.5470 os        1 CU9     -0.309900
     40 O40        -4.9680   -9.1040   -0.6270 os        1 CU9     -0.304900
     41 C41        -6.3090   -9.5770   -0.7750 c3        1 CU9      0.103700
     42 O42        -2.4270   -8.1050   -0.3480 os        1 CU9     -0.327900
     43 C43        -0.8760    0.5440    0.1490 c3        1 CU9      0.089100
     44 C44        -2.6180  -10.8320    4.6630 c3        1 CU9      0.089100
     45 C45        -2.5610   -9.5880    6.7310 c3        1 CU9      0.089100
     46 C46        -2.1170   -9.1780   -1.2460 c3        1 CU9      0.114700
     47 C47         0.3670   -0.8180   -1.4150 c3        1 CU9      0.089100
     48 C48         1.9210   -3.7850    7.3770 c3        1 CU9      0.108700
     49 H2          2.3210   -0.6370    0.4060 hx        1 CU9      0.099200
     50 H2A         1.7890    1.0090   -0.1990 hx        1 CU9      0.099200
     51 H3          1.0220    1.7020    1.9490 hc        1 CU9      0.093700
     52 H3A         2.5290    0.7630    2.2980 hc        1 CU9      0.093700
     53 H6         -1.1590   -1.9320    0.6230 hx        1 CU9      0.096700
     54 H7          1.2450    0.9670    4.5640 ha        1 CU9      0.161000
     55 H10        -1.3270   -2.9820    2.8740 ha        1 CU9      0.158000
     56 H14         0.9250   -6.0610    7.0580 ha        1 CU9      0.156000
     57 H15        -0.8590   -7.6380    6.4510 ha        1 CU9      0.116000
     58 H17        -3.2100   -4.3910    4.7880 ha        1 CU9      0.155000
     59 H18        -3.8710   -7.2470    6.1500 hc        1 CU9      0.075700
     60 H18A       -3.9670   -6.5510    4.4980 hc        1 CU9      0.075700
     61 H19        -1.6630   -8.3740    4.4980 hx        1 CU9      0.121700
     62 H21        -4.8880  -10.8440    5.6760 hx        1 CU9      0.098700
     63 H21A       -4.9800   -9.1750    6.4040 hx        1 CU9      0.098700
     64 H22        -6.2790  -10.0190    4.0870 hc        1 CU9      0.093700
     65 H22A       -5.9940   -8.3020    4.5860 hc        1 CU9      0.093700
     66 H25        -6.2910   -9.5600    1.7240 ha        1 CU9      0.166000
     67 H31         1.0460   -7.0260    2.7320 ha        1 CU9      0.161500
     68 H32         1.9840   -4.8070    2.0940 ha        1 CU9      0.139000
     69 H34        -1.7200   -3.8410    0.0530 ha        1 CU9      0.139000
     70 H35        -2.6760   -6.0090    0.7360 ha        1 CU9      0.161500
     71 H36         1.0060   -2.9880   -0.5000 hc        1 CU9      0.071200
     72 H36A        1.7980   -2.7350    1.1120 hc        1 CU9      0.071200
     73 H38         1.5820    0.6450    6.8010 h1        1 CU9      0.060367
     74 H38A        0.0730    1.6370    6.4470 h1        1 CU9      0.060367
     75 H38B        0.2110    0.7050    8.0290 h1        1 CU9      0.060367
     76 H41        -6.4180  -10.5910   -0.3200 h1        1 CU9      0.064033
     77 H41A       -7.0300   -8.8540   -0.3250 h1        1 CU9      0.064033
     78 H41B       -6.4340   -9.6240   -1.8880 h1        1 CU9      0.064033
     79 H43        -0.5750    1.5020   -0.3530 hx        1 CU9      0.101367
     80 H43A       -1.7960    0.1310   -0.3450 hx        1 CU9      0.101367
     81 H43B       -1.0890    0.7390    1.2340 hx        1 CU9      0.101367
     82 H44        -2.7710  -11.7380    5.3080 hx        1 CU9      0.101533
     83 H44A       -1.5230  -10.6850    4.4700 hx        1 CU9      0.101533
     84 H44B       -3.1530  -10.9710    3.6860 hx        1 CU9      0.101533
     85 H45        -2.9600  -10.4470    7.3360 hx        1 CU9      0.101533
     86 H45A       -2.8140   -8.6230    7.2440 hx        1 CU9      0.101533
     87 H45B       -1.4460   -9.6840    6.6440 hx        1 CU9      0.101533
     88 H46        -1.4970   -8.6760   -2.0310 h1        1 CU9      0.059033
     89 H46A       -3.0510   -9.6020   -1.6870 h1        1 CU9      0.059033
     90 H46B       -1.5310   -9.9670   -0.7170 h1        1 CU9      0.059033
     91 H47         0.3160    0.1150   -2.0410 hx        1 CU9      0.101367
     92 H47A       -0.4710   -1.5060   -1.7010 hx        1 CU9      0.101367
     93 H47B        1.3540   -1.3190   -1.6010 hx        1 CU9      0.101367
     94 H48         2.4830   -2.8320    7.5510 h1        1 CU9      0.057367
     95 H48A        1.5460   -4.2040    8.3420 h1        1 CU9      0.057367
     96 H48B        2.5580   -4.5280    6.8400 h1        1 CU9      0.057367
@<TRIPOS>BOND
     1    1    2 1   
     2    1    6 1   
     3    1   43 1   
     4    1   47 1   
     5    2    3 1   
     6    2   49 1   
     7    2   50 1   
     8    3    4 1   
     9    3   51 1   
    10    3   52 1   
    11    4    5 ar  
    12    4    7 ar  
    13    5    6 1   
    14    5   10 ar  
    15    6   36 1   
    16    6   53 1   
    17    7    8 ar  
    18    7   54 1   
    19    8    9 ar  
    20    8   37 1   
    21    9   10 ar  
    22    9   11 1   
    23   10   55 1   
    24   11   12 1   
    25   12   13 ar  
    26   12   17 ar  
    27   13   14 ar  
    28   13   39 1   
    29   14   15 ar  
    30   14   56 1   
    31   15   16 ar  
    32   15   57 1   
    33   16   17 ar  
    34   16   18 1   
    35   17   58 1   
    36   18   19 1   
    37   18   59 1   
    38   18   60 1   
    39   19   20 1   
    40   19   24 1   
    41   19   61 1   
    42   20   21 1   
    43   20   44 1   
    44   20   45 1   
    45   21   22 1   
    46   21   62 1   
    47   21   63 1   
    48   22   23 1   
    49   22   64 1   
    50   22   65 1   
    51   23   24 ar  
    52   23   25 ar  
    53   24   28 ar  
    54   25   26 ar  
    55   25   66 1   
    56   26   27 ar  
    57   26   40 1   
    58   27   28 ar  
    59   27   42 1   
    60   28   29 1   
    61   29   30 1   
    62   30   31 ar  
    63   30   35 ar  
    64   31   32 ar  
    65   31   67 1   
    66   32   33 ar  
    67   32   68 1   
    68   33   34 ar  
    69   33   36 1   
    70   34   35 ar  
    71   34   69 1   
    72   35   70 1   
    73   36   71 1   
    74   36   72 1   
    75   37   38 1   
    76   38   73 1   
    77   38   74 1   
    78   38   75 1   
    79   39   48 1   
    80   40   41 1   
    81   41   76 1   
    82   41   77 1   
    83   41   78 1   
    84   42   46 1   
    85   43   79 1   
    86   43   80 1   
    87   43   81 1   
    88   44   82 1   
    89   44   83 1   
    90   44   84 1   
    91   45   85 1   
    92   45   86 1   
    93   45   87 1   
    94   46   88 1   
    95   46   89 1   
    96   46   90 1   
    97   47   91 1   
    98   47   92 1   
    99   47   93 1   
   100   48   94 1   
   101   48   95 1   
   102   48   96 1   
@<TRIPOS>SUBSTRUCTURE
     1 CU9         1 TEMP              0 ****  ****    0 ROOT
