@<TRIPOS>MOLECULE
CU9
   96   102     1     0     0
SMALL
bcc


@<TRIPOS>ATOM
      1 N1         -5.0020    2.9670   -0.2340 n4        1 CU9     -0.605800
      2 C2         -6.1330    2.3410    0.5350 c3        1 CU9      0.119800
      3 C3         -6.5140    0.9560    0.0310 c3        1 CU9     -0.060100
      4 C4         -5.3430    0.1300   -0.3670 ca        1 CU9     -0.049300
      5 C5         -4.0510    0.6650   -0.4180 ca        1 CU9     -0.173300
      6 C6         -3.7510    2.1010   -0.0780 c3        1 CU9      0.211800
      7 C7         -5.5710   -1.2000   -0.7340 ca        1 CU9     -0.199000
      8 C8         -4.5080   -2.0150   -1.1410 ca        1 CU9      0.184100
      9 C9         -3.1940   -1.4740   -1.1590 ca        1 CU9      0.084100
     10 C10        -2.9760   -0.1460   -0.8100 ca        1 CU9     -0.095000
     11 O11        -2.1710   -2.2680   -1.6690 os        1 CU9     -0.217200
     12 C12        -1.1060   -2.5110   -0.8010 ca        1 CU9      0.066100
     13 C13        -1.2430   -3.3310    0.3450 ca        1 CU9      0.143100
     14 C14        -0.0960   -3.6900    1.0650 ca        1 CU9     -0.187000
     15 C15         1.1540   -3.2400    0.6510 ca        1 CU9     -0.103000
     16 C16         1.2950   -2.4160   -0.4690 ca        1 CU9     -0.135300
     17 C17         0.1520   -2.0500   -1.1940 ca        1 CU9     -0.088000
     18 C18         2.6260   -1.9610   -0.9570 c3        1 CU9     -0.036100
     19 C19         3.5450   -1.4420    0.1680 c3        1 CU9      0.211800
     20 N20         4.8470   -2.2390    0.3150 n4        1 CU9     -0.604800
     21 C21         5.6650   -2.1480   -0.9460 c3        1 CU9      0.116800
     22 C22         5.5770   -0.8250   -1.7100 c3        1 CU9     -0.055100
     23 C23         4.9380    0.2900   -0.9650 ca        1 CU9     -0.047300
     24 C24         3.9050   -0.0020   -0.0640 ca        1 CU9     -0.183300
     25 C25         5.3470    1.6060   -1.1770 ca        1 CU9     -0.189000
     26 C26         4.7280    2.6500   -0.4770 ca        1 CU9      0.152100
     27 C27         3.6920    2.3720    0.4540 ca        1 CU9      0.067100
     28 C28         3.2770    1.0420    0.6380 ca        1 CU9      0.137100
     29 O29         2.3490    0.6930    1.6130 os        1 CU9     -0.254200
     30 C30         1.0280    1.1020    1.4360 ca        1 CU9      0.133100
     31 C31         0.1300    0.5560    2.3690 ca        1 CU9     -0.146500
     32 C32        -1.2160    0.9000    2.2940 ca        1 CU9     -0.094000
     33 C33        -1.6760    1.7910    1.3120 ca        1 CU9     -0.124300
     34 C34        -0.7620    2.3350    0.4040 ca        1 CU9     -0.094000
     35 C35         0.5860    1.9850    0.4470 ca        1 CU9     -0.146500
     36 C36        -3.1080    2.2030    1.3190 c3        1 CU9     -0.041100
     37 O37        -4.6270   -3.3150   -1.5440 os        1 CU9     -0.280900
     38 C38        -5.9500   -3.8520   -1.6030 c3        1 CU9      0.101700
     39 O39        -2.5200   -3.6990    0.6860 os        1 CU9     -0.309900
     40 O40         5.0610    3.9720   -0.6080 os        1 CU9     -0.304900
     41 C41         6.1050    4.2910   -1.5310 c3        1 CU9      0.103700
     42 O42         2.9930    3.3740    1.0930 os        1 CU9     -0.327900
     43 C43        -5.3500    3.0500   -1.6870 c3        1 CU9      0.089100
     44 C44         5.6310   -1.6750    1.4590 c3        1 CU9      0.089100
     45 C45         4.5660   -3.6720    0.6180 c3        1 CU9      0.089100
     46 C46         3.7690    4.1680    2.0010 c3        1 CU9      0.114700
     47 C47        -4.7790    4.3530    0.2670 c3        1 CU9      0.089100
     48 C48        -2.6420   -4.6960    1.7020 c3        1 CU9      0.108700
     49 H2         -5.8050    2.2800    1.6120 hx        1 CU9      0.099200
     50 H2A        -7.0240    3.0290    0.4670 hx        1 CU9      0.099200
     51 H3         -7.0840    0.4420    0.8550 hc        1 CU9      0.093700
     52 H3A        -7.2140    1.0480   -0.8460 hc        1 CU9      0.093700
     53 H6         -3.0200    2.5100   -0.8420 hx        1 CU9      0.096700
     54 H7         -6.5960   -1.6020   -0.6960 ha        1 CU9      0.161000
     55 H10        -1.9510    0.2610   -0.8320 ha        1 CU9      0.158000
     56 H14        -0.1750   -4.3400    1.9500 ha        1 CU9      0.156000
     57 H15         2.0370   -3.5530    1.2270 ha        1 CU9      0.116000
     58 H17         0.2320   -1.4210   -2.0950 ha        1 CU9      0.155000
     59 H18         3.1010   -2.8010   -1.5340 hc        1 CU9      0.075700
     60 H18A        2.4850   -1.1230   -1.6970 hc        1 CU9      0.075700
     61 H19         3.0090   -1.5390    1.1630 hx        1 CU9      0.121700
     62 H21         6.7380   -2.3480   -0.6620 hx        1 CU9      0.098700
     63 H21A        5.3300   -2.9790   -1.6330 hx        1 CU9      0.098700
     64 H22         6.6190   -0.5390   -2.0230 hc        1 CU9      0.093700
     65 H22A        4.9860   -0.9960   -2.6540 hc        1 CU9      0.093700
     66 H25         6.1530    1.8190   -1.8960 ha        1 CU9      0.166000
     67 H31         0.4960   -0.1240    3.1520 ha        1 CU9      0.161500
     68 H32        -1.9210    0.4710    3.0230 ha        1 CU9      0.139000
     69 H34        -1.0890    3.0680   -0.3500 ha        1 CU9      0.139000
     70 H35         1.2930    2.4330   -0.2680 ha        1 CU9      0.161500
     71 H36        -3.1390    3.2590    1.7050 hc        1 CU9      0.071200
     72 H36A       -3.6890    1.5620    2.0360 hc        1 CU9      0.071200
     73 H38        -5.7800   -4.8900   -1.9890 h1        1 CU9      0.060367
     74 H38A       -6.4070   -3.8770   -0.5850 h1        1 CU9      0.060367
     75 H38B       -6.5820   -3.2640   -2.3110 h1        1 CU9      0.060367
     76 H41         6.1740    5.4070   -1.4530 h1        1 CU9      0.064033
     77 H41A        7.0640    3.8110   -1.2180 h1        1 CU9      0.064033
     78 H41B        5.8200    3.9830   -2.5660 h1        1 CU9      0.064033
     79 H43        -6.3510    3.5450   -1.7990 hx        1 CU9      0.101367
     80 H43A       -4.5680    3.6520   -2.2200 hx        1 CU9      0.101367
     81 H43B       -5.3910    2.0160   -2.1260 hx        1 CU9      0.101367
     82 H44         4.9810   -1.6370    2.3730 hx        1 CU9      0.101533
     83 H44A        6.5210   -2.3320    1.6560 hx        1 CU9      0.101533
     84 H44B        5.9780   -0.6380    1.2040 hx        1 CU9      0.101533
     85 H45         3.8480   -4.0980   -0.1320 hx        1 CU9      0.101533
     86 H45A        5.5280   -4.2510    0.5830 hx        1 CU9      0.101533
     87 H45B        4.1240   -3.7510    1.6470 hx        1 CU9      0.101533
     88 H46         3.0110    4.8770    2.4220 h1        1 CU9      0.059033
     89 H46A        4.2030    3.5250    2.8020 h1        1 CU9      0.059033
     90 H46B        4.5690    4.7190    1.4520 h1        1 CU9      0.059033
     91 H47        -4.8060    4.3720    1.3890 hx        1 CU9      0.101367
     92 H47A       -3.7850    4.7260   -0.0970 hx        1 CU9      0.101367
     93 H47B       -5.5950    5.0220   -0.1220 hx        1 CU9      0.101367
     94 H48        -2.0690   -5.6140    1.4290 h1        1 CU9      0.057367
     95 H48A       -2.3010   -4.2900    2.6860 h1        1 CU9      0.057367
     96 H48B       -3.7420   -4.9060    1.7190 h1        1 CU9      0.057367
@<TRIPOS>BOND
     1    1    2 1   
     2    1    6 1   
     3    1   43 1   
     4    1   47 1   
     5    2    3 1   
     6    2   49 1   
     7    2   50 1   
     8    3    4 1   
     9    3   51 1   
    10    3   52 1   
    11    4    5 ar  
    12    4    7 ar  
    13    5    6 1   
    14    5   10 ar  
    15    6   36 1   
    16    6   53 1   
    17    7    8 ar  
    18    7   54 1   
    19    8    9 ar  
    20    8   37 1   
    21    9   10 ar  
    22    9   11 1   
    23   10   55 1   
    24   11   12 1   
    25   12   13 ar  
    26   12   17 ar  
    27   13   14 ar  
    28   13   39 1   
    29   14   15 ar  
    30   14   56 1   
    31   15   16 ar  
    32   15   57 1   
    33   16   17 ar  
    34   16   18 1   
    35   17   58 1   
    36   18   19 1   
    37   18   59 1   
    38   18   60 1   
    39   19   20 1   
    40   19   24 1   
    41   19   61 1   
    42   20   21 1   
    43   20   44 1   
    44   20   45 1   
    45   21   22 1   
    46   21   62 1   
    47   21   63 1   
    48   22   23 1   
    49   22   64 1   
    50   22   65 1   
    51   23   24 ar  
    52   23   25 ar  
    53   24   28 ar  
    54   25   26 ar  
    55   25   66 1   
    56   26   27 ar  
    57   26   40 1   
    58   27   28 ar  
    59   27   42 1   
    60   28   29 1   
    61   29   30 1   
    62   30   31 ar  
    63   30   35 ar  
    64   31   32 ar  
    65   31   67 1   
    66   32   33 ar  
    67   32   68 1   
    68   33   34 ar  
    69   33   36 1   
    70   34   35 ar  
    71   34   69 1   
    72   35   70 1   
    73   36   71 1   
    74   36   72 1   
    75   37   38 1   
    76   38   73 1   
    77   38   74 1   
    78   38   75 1   
    79   39   48 1   
    80   40   41 1   
    81   41   76 1   
    82   41   77 1   
    83   41   78 1   
    84   42   46 1   
    85   43   79 1   
    86   43   80 1   
    87   43   81 1   
    88   44   82 1   
    89   44   83 1   
    90   44   84 1   
    91   45   85 1   
    92   45   86 1   
    93   45   87 1   
    94   46   88 1   
    95   46   89 1   
    96   46   90 1   
    97   47   91 1   
    98   47   92 1   
    99   47   93 1   
   100   48   94 1   
   101   48   95 1   
   102   48   96 1   
@<TRIPOS>SUBSTRUCTURE
     1 CU9         1 TEMP              0 ****  ****    0 ROOT
