@<TRIPOS>MOLECULE
CU9
   96    94     1     0     0
SMALL
bcc


@<TRIPOS>ATOM
      1 N1          2.8110    1.2690   -5.2470 n4        1 CU9      0.027000
      2 C2          4.2520    1.1820   -5.2150 c3        1 CU9     -0.117000
      3 C3          4.9490    1.2070   -3.8700 c3        1 CU9     -0.146000
      4 C4          4.0960    1.3170   -2.6070 c2        1 CU9     -0.042000
      5 C5          2.7460    1.0730   -2.6720 c1        1 CU9     -0.166000
      6 C6          2.0580    0.9340   -4.0410 c2        1 CU9      0.007000
      7 C7          4.6260    2.0380   -1.5170 c2        1 CU9     -0.199000
      8 C8          3.7690    2.5840   -0.5600 c1        1 CU9      0.139000
      9 C9          2.3770    2.4220   -0.6900 c1        1 CU9      0.039000
     10 C10         1.8650    1.6940   -1.7440 c2        1 CU9     -0.095000
     11 O11         1.4620    3.1640    0.2020 os        1 CU9     -0.127000
     12 C12         1.1900    2.3730    1.4130 c2        1 CU9      0.021000
     13 C13         1.6370    2.8220    2.6440 c2        1 CU9      0.098000
     14 C14         1.2500    2.1730    3.7970 c1        1 CU9     -0.187000
     15 C15         0.2550    1.2030    3.7460 c1        1 CU9     -0.103000
     16 C16        -0.4250    0.9680    2.5570 c1        1 CU9     -0.128000
     17 C17         0.2340    1.1280    1.3340 c1        1 CU9     -0.088000
     18 C18        -2.0530    0.6730    2.5820 c3        1 CU9     -0.122000
     19 C19        -2.3100   -0.7630    3.0340 c3        1 CU9      0.007000
     20 N20        -2.8530   -0.7240    4.3680 n4        1 CU9      0.028000
     21 C21        -4.1280   -1.3750    4.6310 c3        1 CU9     -0.120000
     22 C22        -5.0470   -1.6660    3.4760 c3        1 CU9     -0.141000
     23 C23        -4.4490   -1.8350    2.0970 c2        1 CU9     -0.040000
     24 C24        -3.1780   -1.4070    1.8520 c2        1 CU9     -0.176000
     25 C25        -4.9930   -2.9050    1.3380 c1        1 CU9     -0.189000
     26 C26        -4.1790   -3.6150    0.4510 c1        1 CU9      0.064500
     27 C27        -2.8310   -3.2680    0.3130 c1        1 CU9      0.064500
     28 C28        -2.3340   -2.1480    0.9650 c1        1 CU9      0.092000
     29 O29        -0.9270   -1.8010    0.8410 os        1 CU9     -0.164000
     30 C30        -0.5090   -1.8730   -0.5940 c2        1 CU9      0.088000
     31 C31         0.7060   -2.4380   -0.9260 c2        1 CU9     -0.137000
     32 C32         1.3540   -2.0420   -2.0690 c1        1 CU9     -0.082000
     33 C33         0.8260   -1.0300   -2.8450 c1        1 CU9     -0.117000
     34 C34        -0.4190   -0.4580   -2.5050 c1        1 CU9     -0.106000
     35 C35        -1.3010   -1.1440   -1.6360 c1        1 CU9     -0.156000
     36 C36         1.5840   -0.5680   -4.1790 c3        1 CU9     -0.127000
     37 O37         4.2980    3.2700    0.5490 os        1 CU9     -0.164000
     38 C38         5.4620    4.0120    0.2610 c3        1 CU9     -0.088000
     39 O39         2.4400    3.9820    2.7230 os        1 CU9     -0.193000
     40 O40        -4.6910   -4.8000   -0.2050 os        1 CU9     -0.199500
     41 C41        -5.9980   -4.6420   -0.7450 c3        1 CU9     -0.080500
     42 O42        -1.9530   -4.1230   -0.3810 os        1 CU9     -0.199500
     43 C43         2.4670    2.6240   -5.6120 c3        1 CU9     -0.187000
     44 C44        -1.8870   -1.3120    5.2400 c3        1 CU9     -0.187000
     45 C45        -2.9930    0.6580    4.7350 c3        1 CU9     -0.187000
     46 C46        -2.0940   -5.4810   -0.0420 c3        1 CU9     -0.080500
     47 C47         2.3510    0.4070   -6.2970 c3        1 CU9     -0.187000
     48 C48         1.9930    4.9210    3.6600 c3        1 CU9     -0.081000
     49 H2          4.4980    0.3370   -5.6520 hx        1 CU9      0.138500
     50 H2A         4.6010    1.9540   -5.7370 hx        1 CU9      0.138500
     51 H3          5.5500    1.9740   -3.8760 hc        1 CU9      0.133000
     52 H3A         5.4620    0.3720   -3.7980 hc        1 CU9      0.133000
     53 H6          1.2580    1.5000   -4.0280 hx        1 CU9      0.136000
     54 H7          5.6130    2.1100   -1.4000 ha        1 CU9      0.161000
     55 H10         0.8840    1.5860   -1.8420 ha        1 CU9      0.158000
     56 H14         1.6550    2.4140    4.6540 ha        1 CU9      0.156000
     57 H15        -0.0220    0.7380    4.5720 ha        1 CU9      0.116000
     58 H17         0.0840    0.5720    0.5280 ha        1 CU9      0.155000
     59 H18        -2.4190    0.8010    1.6880 hc        1 CU9      0.115000
     60 H18A       -2.4920    1.3010    3.2120 hc        1 CU9      0.115000
     61 H19        -1.4590   -1.2260    3.0700 hx        1 CU9      0.161000
     62 H21        -4.6260   -0.7900    5.2540 hx        1 CU9      0.138000
     63 H21A       -3.9280   -2.2330    5.0590 hx        1 CU9      0.138000
     64 H22        -5.5150   -2.5030    3.6890 hc        1 CU9      0.133000
     65 H22A       -5.6820   -0.9270    3.4230 hc        1 CU9      0.133000
     66 H25        -5.9400   -3.1470    1.4370 ha        1 CU9      0.166000
     67 H31         1.0560   -3.1900   -0.3990 ha        1 CU9      0.159000
     68 H32         2.1370   -2.5440   -2.3860 ha        1 CU9      0.149000
     69 H34        -0.6850    0.3800   -2.8950 ha        1 CU9      0.129000
     70 H35        -2.2820   -1.1360   -1.7010 ha        1 CU9      0.164000
     71 H36         2.3640   -1.1410   -4.3230 hc        1 CU9      0.110500
     72 H36A        0.9780   -0.6480   -4.9390 hc        1 CU9      0.110500
     73 H38         5.3220    4.5360   -0.5500 h1        1 CU9      0.099667
     74 H38A        5.6580    4.6090    1.0040 h1        1 CU9      0.099667
     75 H38B        6.2150    3.3990    0.1270 h1        1 CU9      0.099667
     76 H41        -6.0840   -3.7420   -1.1390 h1        1 CU9      0.100833
     77 H41A       -6.1500   -5.3290   -1.4490 h1        1 CU9      0.100833
     78 H41B       -6.6650   -4.7520   -0.0300 h1        1 CU9      0.100833
     79 H43         2.8220    2.8240   -6.5130 hx        1 CU9      0.140667
     80 H43A        1.4920    2.7230   -5.6160 hx        1 CU9      0.140667
     81 H43B        2.8560    3.2490   -4.9590 hx        1 CU9      0.140667
     82 H44        -1.5250   -2.1280    4.8260 hx        1 CU9      0.140833
     83 H44A       -2.3100   -1.5390    6.0880 hx        1 CU9      0.140833
     84 H44B       -1.1560   -0.6730    5.3980 hx        1 CU9      0.140833
     85 H45        -2.1250    1.1010    4.6770 hx        1 CU9      0.140833
     86 H45A       -3.6210    1.0930    4.1290 hx        1 CU9      0.140833
     87 H45B       -3.3310    0.7200    5.6530 hx        1 CU9      0.140833
     88 H46        -2.6810   -5.9180   -0.6870 h1        1 CU9      0.100833
     89 H46A       -2.4800   -5.5550    0.8510 h1        1 CU9      0.100833
     90 H46B       -1.2130   -5.9130   -0.0550 h1        1 CU9      0.100833
     91 H47         1.3550    0.4240   -6.3280 hx        1 CU9      0.140667
     92 H47A        2.7080    0.7140   -7.1510 hx        1 CU9      0.140667
     93 H47B        2.6550   -0.5020   -6.1270 hx        1 CU9      0.140667
     94 H48         1.0130    5.0010    3.6030 h1        1 CU9      0.096667
     95 H48A        2.2450    4.6290    4.5590 h1        1 CU9      0.096667
     96 H48B        2.4060    5.7960    3.4710 h1        1 CU9      0.096667
@<TRIPOS>BOND
     1    1    2 1   
     2    1    6 1   
     3    1   43 1   
     4    1   47 1   
     5    2    3 1   
     6    2   49 1   
     7    2   50 1   
     8    3    4 1   
     9    3   51 1   
    10    3   52 1   
    11    4    5 1   
    12    4    7 1   
    13    5   10 1   
    14    6   36 1   
    15    6   53 1   
    16    7    8 1   
    17    7   54 1   
    18    8   37 1   
    19    9   10 1   
    20    9   11 1   
    21   10   55 1   
    22   11   12 1   
    23   12   13 1   
    24   12   17 1   
    25   13   14 1   
    26   13   39 1   
    27   14   56 1   
    28   15   16 1   
    29   15   57 1   
    30   16   18 1   
    31   17   58 1   
    32   18   19 1   
    33   18   59 1   
    34   18   60 1   
    35   19   20 1   
    36   19   24 1   
    37   19   61 1   
    38   20   21 1   
    39   20   44 1   
    40   20   45 1   
    41   21   22 1   
    42   21   62 1   
    43   21   63 1   
    44   22   23 1   
    45   22   64 1   
    46   22   65 1   
    47   23   24 1   
    48   23   25 1   
    49   24   28 1   
    50   25   66 1   
    51   26   27 1   
    52   26   40 1   
    53   27   42 1   
    54   28   29 1   
    55   29   30 1   
    56   30   31 1   
    57   30   35 1   
    58   31   32 1   
    59   31   67 1   
    60   32   68 1   
    61   33   34 1   
    62   33   36 1   
    63   34   69 1   
    64   35   70 1   
    65   36   71 1   
    66   36   72 1   
    67   37   38 1   
    68   38   73 1   
    69   38   74 1   
    70   38   75 1   
    71   39   48 1   
    72   40   41 1   
    73   41   76 1   
    74   41   77 1   
    75   41   78 1   
    76   42   46 1   
    77   43   79 1   
    78   43   80 1   
    79   43   81 1   
    80   44   82 1   
    81   44   83 1   
    82   44   84 1   
    83   45   85 1   
    84   45   86 1   
    85   45   87 1   
    86   46   88 1   
    87   46   89 1   
    88   46   90 1   
    89   47   91 1   
    90   47   92 1   
    91   47   93 1   
    92   48   94 1   
    93   48   95 1   
    94   48   96 1   
@<TRIPOS>SUBSTRUCTURE
     1 CU9         1 TEMP              0 ****  ****    0 ROOT
