@<TRIPOS>MOLECULE
CU9
   96   102     1     0     0
SMALL
bcc


@<TRIPOS>ATOM
      1 N1          0.2220   -0.4390    0.0300 n4        1 CU9     -0.605800
      2 C2          1.5180    0.1660    0.4950 c3        1 CU9      0.119800
      3 C3          1.4690    0.6700    1.9300 c3        1 CU9     -0.060100
      4 C4          0.6970   -0.2160    2.8420 ca        1 CU9     -0.049300
      5 C5         -0.0380   -1.3050    2.3580 ca        1 CU9     -0.173300
      6 C6         -0.1010   -1.6580    0.8960 c3        1 CU9      0.211800
      7 C7          0.6860    0.0920    4.2060 ca        1 CU9     -0.199000
      8 C8         -0.0450   -0.6940    5.1040 ca        1 CU9      0.184100
      9 C9         -0.7620   -1.8170    4.6110 ca        1 CU9      0.084100
     10 C10        -0.7620   -2.1080    3.2510 ca        1 CU9     -0.095000
     11 O11        -1.5660   -2.5190    5.5040 os        1 CU9     -0.217200
     12 C12        -1.2770   -3.8770    5.6380 ca        1 CU9      0.066100
     13 C13        -0.0930   -4.3340    6.2630 ca        1 CU9      0.143100
     14 C14         0.0470   -5.7010    6.5380 ca        1 CU9     -0.187000
     15 C15        -0.9700   -6.5870    6.1940 ca        1 CU9     -0.103000
     16 C16        -2.1340   -6.1450    5.5600 ca        1 CU9     -0.135300
     17 C17        -2.2810   -4.7790    5.2790 ca        1 CU9     -0.088000
     18 C18        -3.2550   -7.0670    5.2250 c3        1 CU9     -0.036100
     19 C19        -2.7890   -8.3790    4.5630 c3        1 CU9      0.211800
     20 N20        -3.1530   -9.6350    5.3630 n4        1 CU9     -0.604800
     21 C21        -4.6490   -9.7590    5.4940 c3        1 CU9      0.116800
     22 C22        -5.4710   -9.2590    4.3060 c3        1 CU9     -0.055100
     23 C23        -4.6920   -8.9900    3.0700 ca        1 CU9     -0.047300
     24 C24        -3.3780   -8.5170    3.1880 ca        1 CU9     -0.183300
     25 C25        -5.2680   -9.1870    1.8150 ca        1 CU9     -0.189000
     26 C26        -4.5270   -8.9190    0.6570 ca        1 CU9      0.152100
     27 C27        -3.1880   -8.4560    0.7560 ca        1 CU9      0.067100
     28 C28        -2.6300   -8.2420    2.0280 ca        1 CU9      0.137100
     29 O29        -1.2930   -7.9000    2.1940 os        1 CU9     -0.254200
     30 C30        -0.8860   -6.6310    1.7800 ca        1 CU9      0.133100
     31 C31         0.4310   -6.3040    2.1480 ca        1 CU9     -0.146500
     32 C32         0.9470   -5.0660    1.7820 ca        1 CU9     -0.094000
     33 C33         0.1760   -4.1550    1.0440 ca        1 CU9     -0.124300
     34 C34        -1.1260   -4.5080    0.6740 ca        1 CU9     -0.094000
     35 C35        -1.6710   -5.7330    1.0510 ca        1 CU9     -0.146500
     36 C36         0.7940   -2.8760    0.5950 c3        1 CU9     -0.041100
     37 O37        -0.1430   -0.4630    6.4470 os        1 CU9     -0.280900
     38 C38         0.5110    0.7040    6.9490 c3        1 CU9      0.101700
     39 O39         0.8620   -3.3870    6.5370 os        1 CU9     -0.309900
     40 O40        -4.9980   -9.0860   -0.6180 os        1 CU9     -0.304900
     41 C41        -6.3410   -9.5570   -0.7570 c3        1 CU9      0.103700
     42 O42        -2.4550   -8.0910   -0.3520 os        1 CU9     -0.327900
     43 C43        -0.8890    0.5530    0.1660 c3        1 CU9      0.089100
     44 C44        -2.6140  -10.8360    4.6500 c3        1 CU9      0.089100
     45 C45        -2.5410   -9.6000    6.7220 c3        1 CU9      0.089100
     46 C46        -2.1520   -9.1620   -1.2570 c3        1 CU9      0.114700
     47 C47         0.3420   -0.8040   -1.4110 c3        1 CU9      0.089100
     48 C48         1.9530   -3.8050    7.3590 c3        1 CU9      0.108700
     49 H2          1.7740    1.0170   -0.1990 hx        1 CU9      0.099200
     50 H2A         2.3080   -0.6320    0.3970 hx        1 CU9      0.099200
     51 H3          1.0230    1.7030    1.9570 hc        1 CU9      0.093700
     52 H3A         2.5310    0.7610    2.2920 hc        1 CU9      0.093700
     53 H6         -1.1710   -1.9240    0.6330 hx        1 CU9      0.096700
     54 H7          1.2630    0.9580    4.5670 ha        1 CU9      0.161000
     55 H10        -1.3250   -2.9810    2.8820 ha        1 CU9      0.158000
     56 H14         0.9520   -6.0790    7.0380 ha        1 CU9      0.156000
     57 H15        -0.8380   -7.6510    6.4380 ha        1 CU9      0.116000
     58 H17        -3.1970   -4.3950    4.8030 ha        1 CU9      0.155000
     59 H18        -3.8520   -7.2560    6.1580 hc        1 CU9      0.075700
     60 H18A       -3.9580   -6.5540    4.5100 hc        1 CU9      0.075700
     61 H19        -1.6570   -8.3790    4.4870 hx        1 CU9      0.121700
     62 H21        -4.9610   -9.1840    6.4130 hx        1 CU9      0.098700
     63 H21A       -4.8770  -10.8490    5.6780 hx        1 CU9      0.098700
     64 H22        -5.9860   -8.3020    4.6060 hc        1 CU9      0.093700
     65 H22A       -6.2780  -10.0160    4.1030 hc        1 CU9      0.093700
     66 H25        -6.3060   -9.5490    1.7420 ha        1 CU9      0.166000
     67 H31         1.0410   -7.0280    2.7070 ha        1 CU9      0.161500
     68 H32         1.9780   -4.8080    2.0720 ha        1 CU9      0.139000
     69 H34        -1.7380   -3.8300    0.0600 ha        1 CU9      0.139000
     70 H35        -2.6930   -5.9990    0.7410 ha        1 CU9      0.161500
     71 H36         0.9840   -2.9780   -0.5080 hc        1 CU9      0.071200
     72 H36A        1.7880   -2.7320    1.0990 hc        1 CU9      0.071200
     73 H38         0.2530    0.6850    8.0400 h1        1 CU9      0.060367
     74 H38A        0.1040    1.6230    6.4620 h1        1 CU9      0.060367
     75 H38B        1.6150    0.6280    6.8010 h1        1 CU9      0.060367
     76 H41        -6.4480  -10.5720   -0.3060 h1        1 CU9      0.064033
     77 H41A       -6.4740   -9.5990   -1.8700 h1        1 CU9      0.064033
     78 H41B       -7.0580   -8.8350   -0.2990 h1        1 CU9      0.064033
     79 H43        -0.5910    1.5130   -0.3340 hx        1 CU9      0.101367
     80 H43A       -1.8120    0.1440   -0.3230 hx        1 CU9      0.101367
     81 H43B       -1.0950    0.7450    1.2530 hx        1 CU9      0.101367
     82 H44        -3.1560  -10.9710    3.6760 hx        1 CU9      0.101533
     83 H44A       -1.5200  -10.6910    4.4500 hx        1 CU9      0.101533
     84 H44B       -2.7630  -11.7450    5.2920 hx        1 CU9      0.101533
     85 H45        -2.7890   -8.6360    7.2400 hx        1 CU9      0.101533
     86 H45A       -2.9370  -10.4610    7.3270 hx        1 CU9      0.101533
     87 H45B       -1.4270   -9.6970    6.6270 hx        1 CU9      0.101533
     88 H46        -1.5640   -9.9530   -0.7350 h1        1 CU9      0.059033
     89 H46A       -3.0900   -9.5820   -1.6930 h1        1 CU9      0.059033
     90 H46B       -1.5370   -8.6570   -2.0440 h1        1 CU9      0.059033
     91 H47         0.2870    0.1310   -2.0330 hx        1 CU9      0.101367
     92 H47A       -0.4980   -1.4910   -1.6940 hx        1 CU9      0.101367
     93 H47B        1.3270   -1.3050   -1.6060 hx        1 CU9      0.101367
     94 H48         2.5860   -4.5470    6.8140 h1        1 CU9      0.057367
     95 H48A        2.5180   -2.8540    7.5320 h1        1 CU9      0.057367
     96 H48B        1.5840   -4.2270    8.3240 h1        1 CU9      0.057367
@<TRIPOS>BOND
     1    1    2 1   
     2    1    6 1   
     3    1   43 1   
     4    1   47 1   
     5    2    3 1   
     6    2   49 1   
     7    2   50 1   
     8    3    4 1   
     9    3   51 1   
    10    3   52 1   
    11    4    5 ar  
    12    4    7 ar  
    13    5    6 1   
    14    5   10 ar  
    15    6   36 1   
    16    6   53 1   
    17    7    8 ar  
    18    7   54 1   
    19    8    9 ar  
    20    8   37 1   
    21    9   10 ar  
    22    9   11 1   
    23   10   55 1   
    24   11   12 1   
    25   12   13 ar  
    26   12   17 ar  
    27   13   14 ar  
    28   13   39 1   
    29   14   15 ar  
    30   14   56 1   
    31   15   16 ar  
    32   15   57 1   
    33   16   17 ar  
    34   16   18 1   
    35   17   58 1   
    36   18   19 1   
    37   18   59 1   
    38   18   60 1   
    39   19   20 1   
    40   19   24 1   
    41   19   61 1   
    42   20   21 1   
    43   20   44 1   
    44   20   45 1   
    45   21   22 1   
    46   21   62 1   
    47   21   63 1   
    48   22   23 1   
    49   22   64 1   
    50   22   65 1   
    51   23   24 ar  
    52   23   25 ar  
    53   24   28 ar  
    54   25   26 ar  
    55   25   66 1   
    56   26   27 ar  
    57   26   40 1   
    58   27   28 ar  
    59   27   42 1   
    60   28   29 1   
    61   29   30 1   
    62   30   31 ar  
    63   30   35 ar  
    64   31   32 ar  
    65   31   67 1   
    66   32   33 ar  
    67   32   68 1   
    68   33   34 ar  
    69   33   36 1   
    70   34   35 ar  
    71   34   69 1   
    72   35   70 1   
    73   36   71 1   
    74   36   72 1   
    75   37   38 1   
    76   38   73 1   
    77   38   74 1   
    78   38   75 1   
    79   39   48 1   
    80   40   41 1   
    81   41   76 1   
    82   41   77 1   
    83   41   78 1   
    84   42   46 1   
    85   43   79 1   
    86   43   80 1   
    87   43   81 1   
    88   44   82 1   
    89   44   83 1   
    90   44   84 1   
    91   45   85 1   
    92   45   86 1   
    93   45   87 1   
    94   46   88 1   
    95   46   89 1   
    96   46   90 1   
    97   47   91 1   
    98   47   92 1   
    99   47   93 1   
   100   48   94 1   
   101   48   95 1   
   102   48   96 1   
@<TRIPOS>SUBSTRUCTURE
     1 CU9         1 TEMP              0 ****  ****    0 ROOT
