@<TRIPOS>MOLECULE
CUC
   25    25     1     0     0
SMALL
bcc


@<TRIPOS>ATOM
      1 N           1.1300    1.5830   -1.2110 n3        1 CUC     -0.888800
      2 CA          1.0440    0.8870    0.0660 c3        1 CUC      0.023500
      3 C           2.1600   -0.1890    0.2900 c         1 CUC      0.885600
      4 O           2.9040   -0.4910   -0.6870 o         1 CUC     -0.845300
      5 C1         -0.3140    0.2250    0.3340 c3        1 CUC     -0.045700
      6 C2         -1.4420    1.2420    0.4210 c3        1 CUC     -0.072400
      7 C3         -2.7530    0.5670    0.7740 c3        1 CUC     -0.074400
      8 C4         -3.0910   -0.5380   -0.2070 c3        1 CUC     -0.071400
      9 C5         -1.9570   -1.5360   -0.3250 c3        1 CUC     -0.074400
     10 C6         -0.6580   -0.8460   -0.6900 c3        1 CUC     -0.072400
     11 OXT         2.2640   -0.6850    1.4460 o         1 CUC     -0.845300
     12 HN          2.0990    1.8210   -1.3520 hn        1 CUC      0.329300
     13 HNA         0.8980    0.9350   -1.9440 hn        1 CUC      0.329300
     14 HA          1.1940    1.6730    0.8640 h1        1 CUC      0.040700
     15 H1         -0.2050   -0.2790    1.3390 hc        1 CUC      0.070700
     16 H2         -1.1940    2.0090    1.1990 hc        1 CUC      0.042950
     17 H2A        -1.5460    1.7760   -0.5590 hc        1 CUC      0.042950
     18 H3         -2.6820    0.1350    1.8070 hc        1 CUC      0.024950
     19 H3A        -3.5790    1.3250    0.7830 hc        1 CUC      0.024950
     20 H4         -4.0260   -1.0620    0.1230 hc        1 CUC      0.020700
     21 H4A        -3.2960   -0.0880   -1.2140 hc        1 CUC      0.020700
     22 H5         -1.8310   -2.0760    0.6500 hc        1 CUC      0.024950
     23 H5A        -2.2110   -2.3010   -1.1040 hc        1 CUC      0.024950
     24 H6         -0.7640   -0.3930   -1.7100 hc        1 CUC      0.042950
     25 H6A         0.1830   -1.5880   -0.7310 hc        1 CUC      0.042950
@<TRIPOS>BOND
     1    1    2 1   
     2    1   12 1   
     3    1   13 1   
     4    2    3 1   
     5    2    5 1   
     6    2   14 1   
     7    3    4 1   
     8    3   11 1   
     9    5    6 1   
    10    5   10 1   
    11    5   15 1   
    12    6    7 1   
    13    6   16 1   
    14    6   17 1   
    15    7    8 1   
    16    7   18 1   
    17    7   19 1   
    18    8    9 1   
    19    8   20 1   
    20    8   21 1   
    21    9   10 1   
    22    9   22 1   
    23    9   23 1   
    24   10   24 1   
    25   10   25 1   
@<TRIPOS>SUBSTRUCTURE
     1 CUC         1 TEMP              0 ****  ****    0 ROOT
