@<TRIPOS>MOLECULE
CUC
   25    25     1     0     0
SMALL
bcc


@<TRIPOS>ATOM
      1 N          -2.0720   -0.4480    1.1820 n3        1 CUC     -0.890800
      2 CA         -0.6540   -0.4480    1.1820 c3        1 CUC      0.024500
      3 C          -0.1520   -0.4480    2.6020 c         1 CUC      0.883600
      4 O           0.3890   -1.4800    3.0790 o         1 CUC     -0.844300
      5 C1         -0.1460    0.7970    0.4630 c3        1 CUC     -0.039700
      6 C2         -0.8950    0.9460   -0.8480 c3        1 CUC     -0.070900
      7 C3         -0.5350   -0.1330   -1.8460 c3        1 CUC     -0.070400
      8 C4          0.9650   -0.2610   -2.0470 c3        1 CUC     -0.072400
      9 C5          1.7150   -0.4100   -0.7360 c3        1 CUC     -0.070400
     10 C6          1.3550    0.6690    0.2620 c3        1 CUC     -0.070900
     11 OXT        -0.2740    0.5840    3.3130 o         1 CUC     -0.844300
     12 HN         -2.3760   -1.3080    1.1700 hn        1 CUC      0.329300
     13 HNA        -2.3760   -0.0280    1.9320 hn        1 CUC      0.329300
     14 HA         -0.3290   -1.2450    0.7220 h1        1 CUC      0.044700
     15 H1         -0.3250    1.5780    1.0190 hc        1 CUC      0.046700
     16 H2         -1.8540    0.9030   -0.6700 hc        1 CUC      0.038450
     17 H2A        -0.6840    1.8170   -1.2350 hc        1 CUC      0.038450
     18 H3         -0.8850   -0.9870   -1.5280 hc        1 CUC      0.032700
     19 H3A        -0.9510    0.0790   -2.7040 hc        1 CUC      0.032700
     20 H4          1.1430   -1.0430   -2.6030 hc        1 CUC      0.015700
     21 H4A         1.2900    0.5360   -2.5080 hc        1 CUC      0.015700
     22 H5          1.5040   -1.2810   -0.3490 hc        1 CUC      0.032700
     23 H5A         2.6730   -0.3670   -0.9150 hc        1 CUC      0.032700
     24 H6          1.7050    1.5230   -0.0570 hc        1 CUC      0.038450
     25 H6A         1.7710    0.4570    1.1190 hc        1 CUC      0.038450
@<TRIPOS>BOND
     1    1    2 1   
     2    1   12 1   
     3    1   13 1   
     4    2    3 1   
     5    2    5 1   
     6    2   14 1   
     7    3    4 1   
     8    3   11 1   
     9    5    6 1   
    10    5   10 1   
    11    5   15 1   
    12    6    7 1   
    13    6   16 1   
    14    6   17 1   
    15    7    8 1   
    16    7   18 1   
    17    7   19 1   
    18    8    9 1   
    19    8   20 1   
    20    8   21 1   
    21    9   10 1   
    22    9   22 1   
    23    9   23 1   
    24   10   24 1   
    25   10   25 1   
@<TRIPOS>SUBSTRUCTURE
     1 CUC         1 TEMP              0 ****  ****    0 ROOT
