@<TRIPOS>MOLECULE
CUD
   23    20     1     0     0
SMALL
bcc


@<TRIPOS>ATOM
      1 C2         -1.6040    0.4160   -0.0420 c1        1 CUD      0.339000
      2 C4         -1.6890    0.5200    2.4480 c1        1 CUD      0.193000
      3 C5         -0.2230    0.6030    2.4820 c2        1 CUD     -0.389000
      4 C6          0.5390    0.5680    1.2330 c1        1 CUD      0.073000
      5 N           0.2570   -1.1700   -2.8320 n3        1 CUD     -0.312000
      6 CA          1.0080   -0.7990   -1.6910 c3        1 CUD     -0.144000
      7 CB          0.6050    0.5870   -1.2490 c3        1 CUD     -0.023000
      8 N1         -0.1420    0.5000   -0.0120 n3        1 CUD     -0.236000
      9 N4         -2.4080    0.5160    3.6290 n2        1 CUD     -0.337000
     10 N3         -2.3590    0.3670    1.2080 n1        1 CUD     -0.315000
     11 O2         -2.1830    0.4040   -1.0960 o         1 CUD     -0.373000
     12 C           2.4900   -0.8100   -2.0340 c2        1 CUD      0.304000
     13 O           2.9480    0.0040   -2.8960 o         1 CUD     -0.570500
     14 OXT         3.2770   -1.5960   -1.4220 o         1 CUD     -0.570500
     15 HN          0.7760   -1.0900   -3.5770 hn        1 CUD      0.132000
     16 HA          0.8350   -1.4340   -0.9670 h1        1 CUD      0.092000
     17 HB          1.4080    1.1300   -1.1070 h1        1 CUD      0.112000
     18 HBA         0.0440    1.0040   -1.9430 h1        1 CUD      0.112000
     19 H6          1.4990    0.6230    1.2540 DU        1 CUD      0.244000
     20 H5          0.2410    0.6500    3.3340 ha        1 CUD      0.145000
     21 HN4        -3.3140    0.4120    3.6110 hn        1 CUD      0.195500
     22 HN4A       -1.9850    0.6380    4.4140 hn        1 CUD      0.195500
     23 HNA        -0.0210   -2.0420   -2.7450 hn        1 CUD      0.132000
@<TRIPOS>BOND
     1    1    8 1   
     2    1   11 1   
     3    2    3 1   
     4    2   10 1   
     5    3    4 1   
     6    3   20 1   
     7    4    8 1   
     8    5    6 1   
     9    5   15 1   
    10    5   23 1   
    11    6    7 1   
    12    6   12 1   
    13    6   16 1   
    14    7    8 1   
    15    7   17 1   
    16    7   18 1   
    17    9   21 1   
    18    9   22 1   
    19   12   13 1   
    20   12   14 1   
@<TRIPOS>SUBSTRUCTURE
     1 CUD         1 TEMP              0 ****  ****    0 ROOT
