@<TRIPOS>MOLECULE
CUD
   23    23     1     0     0
SMALL
bcc


@<TRIPOS>ATOM
      1 C2         -1.4130   -0.9180   -0.8670 c         1 CUD      0.825900
      2 C4         -3.2690    0.2530    0.0170 cc        1 CUD      0.717500
      3 C5         -2.4210    1.3770    0.3680 cc        1 CUD     -0.467600
      4 C6         -1.0750    1.2730    0.0870 cd        1 CUD      0.090600
      5 N           1.5600   -0.8490    1.4830 n3        1 CUD     -0.894800
      6 CA          1.7470    0.2390    0.5390 c3        1 CUD     -0.001500
      7 N1         -0.5410    0.1800   -0.5260 n         1 CUD     -0.334000
      8 N4         -4.6470    0.3710    0.2490 nh        1 CUD     -0.894800
      9 N3         -2.7850   -0.8560   -0.5630 nd        1 CUD     -0.730100
     10 O2         -0.9240   -1.9110   -1.4460 o         1 CUD     -0.631500
     11 C           3.2280    0.4840    0.0730 c         1 CUD      0.895600
     12 O           4.1350   -0.2050    0.6120 o         1 CUD     -0.829800
     13 OXT         3.4070    1.3850   -0.7910 o         1 CUD     -0.829800
     14 HA          1.4480    1.1820    1.0850 h1        1 CUD      0.037700
     15 H6         -0.3720    2.0900    0.3460 h4        1 CUD      0.167000
     16 H5         -2.8300    2.2770    0.8350 ha        1 CUD      0.142000
     17 HN4        -5.1770   -0.4700    0.1910 hn        1 CUD      0.399800
     18 HN4A       -4.8750    0.9450    1.0280 hn        1 CUD      0.399800
     19 CB          0.8970    0.0960   -0.7370 c3        1 CUD      0.074000
     20 HN          1.5500   -1.7210    0.9840 hn        1 CUD      0.341300
     21 HB          1.2010    0.9300   -1.4360 h1        1 CUD      0.090200
     22 HBA         1.1170   -0.8890   -1.2380 h1        1 CUD      0.090200
     23 HNA         2.3710   -0.8700    2.0810 hn        1 CUD      0.341300
@<TRIPOS>BOND
     1    1    7 1   
     2    1    9 1   
     3    1   10 2   
     4    2    3 1   
     5    2    8 1   
     6    2    9 2   
     7    3    4 2   
     8    3   16 1   
     9    4    7 1   
    10    4   15 1   
    11    5    6 1   
    12    5   20 1   
    13    5   23 1   
    14    6   11 1   
    15    6   14 1   
    16    6   19 1   
    17    7   19 1   
    18    8   17 1   
    19    8   18 1   
    20   11   12 1   
    21   11   13 1   
    22   19   21 1   
    23   19   22 1   
@<TRIPOS>SUBSTRUCTURE
     1 CUD         1 TEMP              0 ****  ****    0 ROOT
