@<TRIPOS>MOLECULE
CUE
   28    31     1     0     0
SMALL
bcc


@<TRIPOS>ATOM
      1 OAA        -0.0030    3.1490    0.0510 o         1 CUE     -0.559500
      2 OAC         5.5830   -1.3850   -0.1740 oh        1 CUE     -0.492100
      3 CAD        -3.6500   -1.8830    0.0800 ca        1 CUE     -0.186000
      4 CAE         4.2740    0.6680   -0.1070 ca        1 CUE     -0.218000
      5 CAF        -2.2680   -1.8590    0.0420 ca        1 CUE     -0.024000
      6 CAG         3.0340    1.3010   -0.0630 ca        1 CUE     -0.041000
      7 CAH        -3.7080    0.5710    0.1180 ca        1 CUE     -0.250000
      8 CAI         3.2370   -1.5720   -0.1100 ca        1 CUE     -0.145000
      9 OAJ        -1.7190    1.8260    0.0800 os        1 CUE     -0.333200
     10 OAK         0.7560   -1.5370   -0.0400 os        1 CUE     -0.174200
     11 CAL        -4.3630   -0.6630    0.1180 ca        1 CUE      0.184100
     12 CAM         4.3700   -0.7380   -0.1300 ca        1 CUE      0.141100
     13 CAN        -0.3190    1.9620    0.0420 c         1 CUE      0.770800
     14 CAO        -2.3040    0.5800    0.0780 ca        1 CUE      0.207100
     15 CAP         2.0200   -0.9140   -0.0660 ca        1 CUE      0.082100
     16 CAQ        -1.5770   -0.6360    0.0400 ca        1 CUE     -0.167800
     17 CAR         1.8880    0.5140   -0.0420 ca        1 CUE     -0.081800
     18 CAS        -0.1600   -0.4890    0.0020 cc        1 CUE      0.190900
     19 CAT         0.4640    0.7600    0.0020 cd        1 CUE     -0.230400
     20 H1         -6.1040    0.1270    0.1790 ho        1 CUE      0.430000
     21 H2          6.2820   -0.7140   -0.1840 ho        1 CUE      0.425000
     22 H3         -4.2080   -2.8300    0.0820 ha        1 CUE      0.163000
     23 H4          5.1930    1.2720   -0.1240 ha        1 CUE      0.141000
     24 H5         -1.6900   -2.7960    0.0110 ha        1 CUE      0.157000
     25 H6          2.9570    2.3990   -0.0440 ha        1 CUE      0.162000
     26 H7         -4.2580    1.5210    0.1470 ha        1 CUE      0.165000
     27 H8          3.3280   -2.6650   -0.1290 ha        1 CUE      0.172000
     28 OAB        -5.7290   -0.7670    0.1560 oh        1 CUE     -0.485100
@<TRIPOS>BOND
     1    1   13 2   
     2    2   12 1   
     3    2   21 1   
     4    3    5 ar  
     5    3   11 ar  
     6    3   22 1   
     7    4    6 ar  
     8    4   12 ar  
     9    4   23 1   
    10    5   16 ar  
    11    5   24 1   
    12    6   17 ar  
    13    6   25 1   
    14    7   11 ar  
    15    7   14 ar  
    16    7   26 1   
    17    8   12 ar  
    18    8   15 ar  
    19    8   27 1   
    20    9   13 1   
    21    9   14 1   
    22   10   15 1   
    23   10   18 1   
    24   11   28 1   
    25   13   19 1   
    26   14   16 ar  
    27   15   17 ar  
    28   16   18 1   
    29   17   19 1   
    30   18   19 2   
    31   20   28 1   
@<TRIPOS>SUBSTRUCTURE
     1 CUE         1 TEMP              0 ****  ****    0 ROOT
