@<TRIPOS>MOLECULE
CUE
   28    29     1     0     0
SMALL
bcc


@<TRIPOS>ATOM
      1 OAA         0.2030    0.1220    2.0860 o         1 CUE     -0.281000
      2 OAC         0.8550    1.7430   -7.5340 oh        1 CUE     -0.232000
      3 CAD         6.3910   -0.2570    1.1660 c1        1 CUE     -0.106000
      4 CAE         0.8190   -0.7010   -7.6220 c2        1 CUE     -0.496000
      5 CAF         5.3990   -0.1150    0.1210 c3        1 CUE     -0.164000
      6 CAG         1.8030   -1.5130   -7.9500 c1        1 CUE      0.280000
      7 CAH         4.6330   -0.2500    2.9080 c2        1 CUE     -0.092000
      8 CAI         1.1030    0.5040   -5.5270 c1        1 CUE      0.190000
      9 OAJ         2.3480   -0.0490    2.3510 os        1 CUE     -0.192000
     10 OAK         2.9630    0.1860   -1.7460 os        1 CUE     -0.080000
     11 CAL         5.9500   -0.3180    2.5300 c2        1 CUE      0.005000
     12 CAM         0.9210    0.5380   -6.8560 c2        1 CUE     -0.165000
     13 CAN         1.2620    0.0890    1.4660 c2        1 CUE      0.380000
     14 CAO         3.6370   -0.1080    1.8740 c2        1 CUE      0.110000
     15 CAP         1.6300    0.3120   -2.1870 c2        1 CUE     -0.093000
     16 CAQ         3.9830   -0.0420    0.5370 c2        1 CUE     -0.159000
     17 CAR         0.7540    0.3020   -1.1200 c2        1 CUE     -0.134000
     18 CAS         2.8980    0.0970   -0.3690 c2        1 CUE      0.071000
     19 CAT         1.5650    0.1630    0.0650 c2        1 CUE     -0.224000
     20 H1          7.7600   -0.4850    3.0890 ho        1 CUE      0.245000
     21 H2          0.3550    1.5870   -8.3500 ho        1 CUE      0.226000
     22 H3          5.5460   -0.9800   -0.5980 hc        1 CUE      0.181000
     23 H4         -0.2110   -0.9550   -7.9560 ha        1 CUE      0.204000
     24 H5          5.6740    0.8110   -0.4740 hc        1 CUE      0.181000
     25 H6         -0.3300    0.3830   -1.1420 ha        1 CUE      0.181000
     26 H7          4.3040   -0.2970    3.9570 ha        1 CUE      0.179000
     27 H8          1.5350    0.3920   -3.2730 h4        1 CUE      0.229000
     28 OAB         6.8900   -0.4530    3.5230 oh        1 CUE     -0.244000
@<TRIPOS>BOND
     1    1   13 1   
     2    2   12 1   
     3    2   21 1   
     4    3    5 1   
     5    3   11 1   
     6    4    6 1   
     7    4   12 1   
     8    4   23 1   
     9    5   16 1   
    10    5   22 1   
    11    5   24 1   
    12    7   11 1   
    13    7   14 1   
    14    7   26 1   
    15    8   12 1   
    16    9   13 1   
    17    9   14 1   
    18   10   15 1   
    19   10   18 1   
    20   11   28 1   
    21   13   19 1   
    22   14   16 1   
    23   15   17 1   
    24   15   27 1   
    25   16   18 1   
    26   17   19 1   
    27   17   25 1   
    28   18   19 1   
    29   20   28 1   
@<TRIPOS>SUBSTRUCTURE
     1 CUE         1 TEMP              0 ****  ****    0 ROOT
