@<TRIPOS>MOLECULE
CUE
   28    29     1     0     0
SMALL
bcc


@<TRIPOS>ATOM
      1 OAA         0.2200   -0.7060    1.9830 o         1 CUE     -0.281000
      2 OAC         2.2520   -0.1040   -7.7820 oh        1 CUE     -0.232000
      3 CAD         6.3620    0.3100    1.2670 c1        1 CUE     -0.106000
      4 CAE        -0.0830    0.5740   -7.5140 c2        1 CUE     -0.496000
      5 CAF         5.3970    0.2360    0.1890 c3        1 CUE     -0.164000
      6 CAG        -1.1610   -0.1760   -7.6320 c1        1 CUE      0.280000
      7 CAH         4.5920   -0.0910    2.9490 c2        1 CUE     -0.092000
      8 CAI         1.3390    0.0830   -5.6010 c1        1 CUE      0.190000
      9 OAJ         2.3390   -0.3980    2.3180 os        1 CUE     -0.192000
     10 OAK         3.0150    0.0040   -1.7560 os        1 CUE     -0.080000
     11 CAL         5.9030    0.1400    2.6150 c2        1 CUE      0.005000
     12 CAM         1.1980    0.1840   -6.9320 c2        1 CUE     -0.165000
     13 CAN         1.2780   -0.4980    1.3980 c2        1 CUE      0.380000
     14 CAO         3.6230   -0.1650    1.8830 c2        1 CUE      0.110000
     15 CAP         1.7030   -0.1680   -2.2400 c2        1 CUE     -0.093000
     16 CAQ         3.9870   -0.0120    0.5580 c2        1 CUE     -0.159000
     17 CAR         0.8180   -0.3830   -1.2030 c2        1 CUE     -0.134000
     18 CAS         2.9280   -0.1100   -0.3820 c2        1 CUE      0.071000
     19 CAT         1.6010   -0.3470    0.0080 c2        1 CUE     -0.224000
     20 H1          7.6860    0.3740    3.2330 ho        1 CUE      0.245000
     21 H2          2.0920    0.3720   -8.6100 ho        1 CUE      0.226000
     22 H3          5.7560   -0.5710   -0.5240 hc        1 CUE      0.181000
     23 H4         -0.1200    1.6170   -7.8970 ha        1 CUE      0.204000
     24 H5          5.4780    1.2030   -0.3980 hc        1 CUE      0.181000
     25 H6         -0.2560   -0.5490   -1.2600 ha        1 CUE      0.181000
     26 H7          4.2500   -0.2200    3.9870 ha        1 CUE      0.179000
     27 H8          1.6270   -0.1000   -3.3290 h4        1 CUE      0.229000
     28 OAB         6.8170    0.2090    3.6390 oh        1 CUE     -0.244000
@<TRIPOS>BOND
     1    1   13 1   
     2    2   12 1   
     3    2   21 1   
     4    3    5 1   
     5    3   11 1   
     6    4    6 1   
     7    4   12 1   
     8    4   23 1   
     9    5   16 1   
    10    5   22 1   
    11    5   24 1   
    12    7   11 1   
    13    7   14 1   
    14    7   26 1   
    15    8   12 1   
    16    9   13 1   
    17    9   14 1   
    18   10   15 1   
    19   10   18 1   
    20   11   28 1   
    21   13   19 1   
    22   14   16 1   
    23   15   17 1   
    24   15   27 1   
    25   16   18 1   
    26   17   19 1   
    27   17   25 1   
    28   18   19 1   
    29   20   28 1   
@<TRIPOS>SUBSTRUCTURE
     1 CUE         1 TEMP              0 ****  ****    0 ROOT
