@<TRIPOS>MOLECULE
CUE
   28    22     1     0     0
SMALL
bcc


@<TRIPOS>ATOM
      1 OAA        -2.9380    0.0370    1.3000 o         1 CUE     -0.284000
      2 OAB         3.1900    0.1530    4.9450 oh        1 CUE     -0.242500
      3 OAC        -1.8190    0.1880   -5.4820 oh        1 CUE     -0.242500
      4 CAD         3.2030    0.0370    2.5140 c1        1 CUE     -0.117250
      5 CAE        -2.8110    0.0370   -3.2820 c1        1 CUE     -0.117250
      6 CAF         2.5130    0.0370    1.3000 c1        1 CUE     -0.117250
      7 CAG        -2.6770    0.0370   -1.9010 c1        1 CUE     -0.117250
      8 CAH         1.0980    0.0370    3.7210 c1        1 CUE     -0.197500
      9 CAI        -0.4180    0.0370   -3.5160 c1        1 CUE     -0.197500
     10 OAJ        -1.0390    0.0370    2.5000 os        1 CUE     -0.198000
     11 OAK         0.8350    0.0370   -1.2930 os        1 CUE     -0.085000
     12 CAL         2.4940    0.0370    3.7270 c1        1 CUE      0.117500
     13 CAM        -1.6810    0.0370   -4.0900 c1        1 CUE      0.117500
     14 CAN        -1.7250    0.0370    1.3030 c1        1 CUE      0.386000
     15 CAO         0.4030    0.0370    2.5060 c1        1 CUE      0.162000
     16 CAP        -0.2820    0.0370   -2.1180 c1        1 CUE      0.086000
     17 CAQ         1.1140    0.0370    1.2910 c1        1 CUE     -0.156000
     18 CAR        -1.3980    0.0370   -1.3190 c1        1 CUE     -0.146500
     19 CAS         0.3950    0.0370    0.0270 c1        1 CUE      0.086000
     20 CAT        -0.9740    0.0370    0.0180 c1        1 CUE     -0.146500
     21 H1          3.3380   -0.6560    5.2790 ho        1 CUE      0.226500
     22 H2         -1.8160   -0.6110   -5.8680 ho        1 CUE      0.226500
     23 H3          4.1790    0.0420    2.5200 ha        1 CUE      0.155750
     24 H4         -3.7000    0.0440   -3.6860 ha        1 CUE      0.155750
     25 H5          3.0060    0.0370    0.4580 ha        1 CUE      0.155750
     26 H6         -3.4710    0.0370   -1.3340 ha        1 CUE      0.155750
     27 H7          0.6060    0.0450    4.5640 ha        1 CUE      0.168500
     28 H8          0.3760    0.0500   -4.0840 ha        1 CUE      0.168500
@<TRIPOS>BOND
     1    1   14 1   
     2    2   12 1   
     3    2   21 1   
     4    3   13 1   
     5    3   22 1   
     6    4    6 1   
     7    4   23 1   
     8    5    7 1   
     9    5   24 1   
    10    6   25 1   
    11    7   26 1   
    12    8   12 1   
    13    8   27 1   
    14    9   13 1   
    15    9   28 1   
    16   10   14 1   
    17   10   15 1   
    18   11   16 1   
    19   11   19 1   
    20   15   17 1   
    21   16   18 1   
    22   19   20 1   
@<TRIPOS>SUBSTRUCTURE
     1 CUE         1 TEMP              0 ****  ****    0 ROOT
