@<TRIPOS>MOLECULE
CUR
   47    48     1     0     0
SMALL
bcc


@<TRIPOS>ATOM
      1 O16        -0.0170    0.9620    1.2460 oh        1 CUR     -0.490100
      2 C15         0.5660   -0.0720    0.5790 ce        1 CUR      0.239100
      3 C17         0.4890   -1.3410    1.3080 ce        1 CUR     -0.168000
      4 C18         0.9900   -1.6250    2.5170 cf        1 CUR     -0.041200
      5 C19         1.7630   -0.7720    3.4030 ca        1 CUR     -0.079800
      6 C24         2.5730    0.2650    2.9250 ca        1 CUR     -0.092000
      7 C23         3.3290    1.0470    3.7940 ca        1 CUR     -0.142000
      8 C22         3.2750    0.8010    5.1710 ca        1 CUR      0.127100
      9 O4'         4.0420    1.5950    5.9870 oh        1 CUR     -0.491100
     10 C21         2.4590   -0.2450    5.6620 ca        1 CUR      0.035100
     11 O26         2.5030   -0.4220    7.0370 os        1 CUR     -0.348900
     12 C27         1.4530   -1.2060    7.5930 c3        1 CUR      0.120700
     13 C20         1.7140   -1.0280    4.7850 ca        1 CUR     -0.139000
     14 C10         1.1270   -0.0020   -0.6580 cf        1 CUR     -0.418200
     15 C9          1.2220    1.2030   -1.4720 c         1 CUR      0.589500
     16 O2          0.7800    2.3060   -1.1050 o         1 CUR     -0.576100
     17 C8          1.9490    1.0350   -2.7470 ce        1 CUR     -0.230200
     18 C7          1.4250    0.9170   -3.9700 cf        1 CUR     -0.059200
     19 C1          0.0180    0.8960   -4.3380 ca        1 CUR     -0.067800
     20 C2         -0.3500    1.3910   -5.6030 ca        1 CUR     -0.160000
     21 C3         -1.6840    1.3790   -6.0030 ca        1 CUR      0.099100
     22 O3         -2.1500    1.8360   -7.2190 os        1 CUR     -0.303900
     23 C3O        -1.1870    2.4650   -8.0570 c3        1 CUR      0.109700
     24 C4         -2.6750    0.8540   -5.1310 ca        1 CUR      0.112100
     25 O4         -3.9720    0.8630   -5.5840 oh        1 CUR     -0.473100
     26 C5         -2.3030    0.3550   -3.8810 ca        1 CUR     -0.191000
     27 C6         -0.9650    0.3800   -3.4900 ca        1 CUR     -0.104000
     28 H1          0.0480    1.7800    0.7200 ho        1 CUR      0.462000
     29 H3         -0.0520   -2.1230    0.7450 ha        1 CUR      0.144000
     30 H4          0.8160   -2.6440    2.9180 ha        1 CUR      0.128000
     31 H6          2.6120    0.4710    1.8430 ha        1 CUR      0.141000
     32 H7          3.9660    1.8610    3.4170 ha        1 CUR      0.157000
     33 H8          3.8680    1.3400    6.9060 ho        1 CUR      0.438000
     34 H9          1.5860   -1.0760    8.6970 h1        1 CUR      0.046367
     35 H10         0.4550   -0.8280    7.2650 h1        1 CUR      0.046367
     36 H11         1.5810   -2.2780    7.3060 h1        1 CUR      0.046367
     37 H12         1.0820   -1.8440    5.1650 ha        1 CUR      0.139000
     38 H13         1.5570   -0.9160   -1.0960 ha        1 CUR      0.154000
     39 H14         3.0450    1.0240   -2.6110 ha        1 CUR      0.146000
     40 H15         2.1150    0.8260   -4.8320 ha        1 CUR      0.127000
     41 H16         0.4270    1.7940   -6.2690 ha        1 CUR      0.141000
     42 H17        -0.4020    1.7340   -8.3720 h1        1 CUR      0.044700
     43 H18        -1.7910    2.7980   -8.9390 h1        1 CUR      0.044700
     44 H19        -0.7220    3.3410   -7.5430 h1        1 CUR      0.044700
     45 H20        -4.5300    0.5020   -4.8780 ho        1 CUR      0.416000
     46 H21        -3.0680   -0.0520   -3.2050 ha        1 CUR      0.137000
     47 H22        -0.6840   -0.0150   -2.5000 ha        1 CUR      0.141000
@<TRIPOS>BOND
     1    1    2 1   
     2    1   28 1   
     3    2    3 1   
     4    2   14 2   
     5    3    4 2   
     6    3   29 1   
     7    4    5 1   
     8    4   30 1   
     9    5    6 ar  
    10    5   13 ar  
    11    6    7 ar  
    12    6   31 1   
    13    7    8 ar  
    14    7   32 1   
    15    8    9 1   
    16    8   10 ar  
    17    9   33 1   
    18   10   11 1   
    19   10   13 ar  
    20   11   12 1   
    21   12   34 1   
    22   12   35 1   
    23   12   36 1   
    24   13   37 1   
    25   14   15 1   
    26   14   38 1   
    27   15   16 2   
    28   15   17 1   
    29   17   18 2   
    30   17   39 1   
    31   18   19 1   
    32   18   40 1   
    33   19   20 ar  
    34   19   27 ar  
    35   20   21 ar  
    36   20   41 1   
    37   21   22 1   
    38   21   24 ar  
    39   22   23 1   
    40   23   42 1   
    41   23   43 1   
    42   23   44 1   
    43   24   25 1   
    44   24   26 ar  
    45   25   45 1   
    46   26   27 ar  
    47   26   46 1   
    48   27   47 1   
@<TRIPOS>SUBSTRUCTURE
     1 CUR         1 TEMP              0 ****  ****    0 ROOT
