@<TRIPOS>MOLECULE
CUR
   47    48     1     0     0
SMALL
bcc


@<TRIPOS>ATOM
      1 O16        -0.0030    0.9740    1.2430 oh        1 CUR     -0.490100
      2 C15         0.5630   -0.0700    0.5780 ce        1 CUR      0.239100
      3 C17         0.4670   -1.3370    1.3110 ce        1 CUR     -0.168000
      4 C18         0.9620   -1.6250    2.5210 cf        1 CUR     -0.041200
      5 C19         1.7460   -0.7800    3.4060 ca        1 CUR     -0.079800
      6 C24         2.5720    0.2440    2.9270 ca        1 CUR     -0.092000
      7 C23         3.3370    1.0170    3.7960 ca        1 CUR     -0.142000
      8 C22         3.2770    0.7760    5.1730 ca        1 CUR      0.127100
      9 O4'         4.0530    1.5600    5.9880 oh        1 CUR     -0.491100
     10 C21         2.4440   -0.2580    5.6660 ca        1 CUR      0.035100
     11 O26         2.4830   -0.4310    7.0410 os        1 CUR     -0.348900
     12 C27         1.4210   -1.1980    7.5970 c3        1 CUR      0.120700
     13 C20         1.6910   -1.0320    4.7890 ca        1 CUR     -0.139000
     14 C10         1.1250   -0.0120   -0.6590 cf        1 CUR     -0.418200
     15 C9          1.2380    1.1890   -1.4760 c         1 CUR      0.589500
     16 O2          0.8140    2.3000   -1.1110 o         1 CUR     -0.576100
     17 C8          1.9610    1.0060   -2.7510 ce        1 CUR     -0.230200
     18 C7          1.4340    0.8940   -3.9740 cf        1 CUR     -0.059200
     19 C1          0.0260    0.8940   -4.3400 ca        1 CUR     -0.067800
     20 C2         -0.3350    1.3910   -5.6060 ca        1 CUR     -0.160000
     21 C3         -1.6690    1.3990   -6.0040 ca        1 CUR      0.099100
     22 O3         -2.1290    1.8610   -7.2220 os        1 CUR     -0.303900
     23 C3O        -1.1570    2.4720   -8.0620 c3        1 CUR      0.109700
     24 C4         -2.6670    0.8930   -5.1310 ca        1 CUR      0.112100
     25 O4         -3.9650    0.9210   -5.5820 oh        1 CUR     -0.473100
     26 C5         -2.3020    0.3910   -3.8800 ca        1 CUR     -0.191000
     27 C6         -0.9640    0.3950   -3.4900 ca        1 CUR     -0.104000
     28 H1          0.0740    1.7900    0.7140 ho        1 CUR      0.462000
     29 H3         -0.0840   -2.1120    0.7480 ha        1 CUR      0.144000
     30 H4          0.7730   -2.6400    2.9250 ha        1 CUR      0.128000
     31 H6          2.6160    0.4470    1.8450 ha        1 CUR      0.141000
     32 H7          3.9860    1.8200    3.4180 ha        1 CUR      0.157000
     33 H8          3.8740    1.3100    6.9080 ho        1 CUR      0.438000
     34 H9          1.5540   -1.0670    8.7010 h1        1 CUR      0.046367
     35 H10         0.4290   -0.8060    7.2660 h1        1 CUR      0.046367
     36 H11         1.5320   -2.2720    7.3130 h1        1 CUR      0.046367
     37 H12         1.0460   -1.8370    5.1700 ha        1 CUR      0.139000
     38 H13         1.5400   -0.9340   -1.0950 ha        1 CUR      0.154000
     39 H14         3.0570    0.9790   -2.6160 ha        1 CUR      0.146000
     40 H15         2.1220    0.7890   -4.8350 ha        1 CUR      0.127000
     41 H16         0.4480    1.7800   -6.2730 ha        1 CUR      0.141000
     42 H17        -0.3840    1.7290   -8.3760 h1        1 CUR      0.044700
     43 H18        -1.7570    2.8130   -8.9440 h1        1 CUR      0.044700
     44 H19        -0.6780    3.3420   -7.5510 h1        1 CUR      0.044700
     45 H20        -4.5270    0.5700   -4.8760 ho        1 CUR      0.416000
     46 H21        -3.0730   -0.0030   -3.2020 ha        1 CUR      0.137000
     47 H22        -0.6880   -0.0020   -2.5000 ha        1 CUR      0.141000
@<TRIPOS>BOND
     1    1    2 1   
     2    1   28 1   
     3    2    3 1   
     4    2   14 2   
     5    3    4 2   
     6    3   29 1   
     7    4    5 1   
     8    4   30 1   
     9    5    6 ar  
    10    5   13 ar  
    11    6    7 ar  
    12    6   31 1   
    13    7    8 ar  
    14    7   32 1   
    15    8    9 1   
    16    8   10 ar  
    17    9   33 1   
    18   10   11 1   
    19   10   13 ar  
    20   11   12 1   
    21   12   34 1   
    22   12   35 1   
    23   12   36 1   
    24   13   37 1   
    25   14   15 1   
    26   14   38 1   
    27   15   16 2   
    28   15   17 1   
    29   17   18 2   
    30   17   39 1   
    31   18   19 1   
    32   18   40 1   
    33   19   20 ar  
    34   19   27 ar  
    35   20   21 ar  
    36   20   41 1   
    37   21   22 1   
    38   21   24 ar  
    39   22   23 1   
    40   23   42 1   
    41   23   43 1   
    42   23   44 1   
    43   24   25 1   
    44   24   26 ar  
    45   25   45 1   
    46   26   27 ar  
    47   26   46 1   
    48   27   47 1   
@<TRIPOS>SUBSTRUCTURE
     1 CUR         1 TEMP              0 ****  ****    0 ROOT
