@<TRIPOS>MOLECULE
CV7
   72    77     1     0     0
SMALL
bcc


@<TRIPOS>ATOM
      1 C1          1.7500    0.3840   -0.2890 c3        1 CV7     -0.112100
      2 C2          0.2360    0.2520   -0.2130 c3        1 CV7     -0.029000
      3 C3         -0.2370    0.2870    1.2280 c3        1 CV7     -0.101400
      4 C4          0.2020   -0.9580    2.0110 c3        1 CV7      0.151100
      5 C6         -0.1210   -2.2790    1.2920 c3        1 CV7     -0.034700
      6 C8          0.3090   -2.2820   -0.1840 c3        1 CV7     -0.046700
      7 C10        -0.2960   -1.0570   -0.8390 c3        1 CV7     -0.071700
      8 C12        -0.1570   -0.8580   -2.3410 c3        1 CV7     -0.081400
      9 C13        -0.5120    0.6210   -2.5470 c3        1 CV7      0.132100
     10 C15        -0.3770    1.3250   -1.1570 c3        1 CV7      0.030800
     11 O16        -1.7280    1.6280   -0.7840 os        1 CV7     -0.430600
     12 C17        -2.5580    1.6000   -1.9520 c3        1 CV7      0.337900
     13 O19        -1.9000    0.7430   -2.8830 os        1 CV7     -0.432600
     14 C20        -3.9580    1.0990   -1.5960 c3        1 CV7     -0.063700
     15 C21        -4.8440    1.1810   -2.8310 c3        1 CV7     -0.072900
     16 C22        -6.2440    0.6880   -2.5330 c3        1 CV7     -0.075900
     17 C23        -6.2250   -0.7190   -1.9700 c3        1 CV7     -0.077400
     18 C24        -5.3430   -0.8040   -0.7420 c3        1 CV7     -0.075900
     19 C25        -3.9410   -0.3110   -1.0320 c3        1 CV7     -0.072900
     20 C26         0.4250    2.6120   -1.1990 c         1 CV7      0.536100
     21 O27         1.3160    2.8100   -2.0300 o         1 CV7     -0.523100
     22 C28         0.0510    3.6590   -0.1790 c3        1 CV7      0.042400
     23 O29         1.0780    4.5990    0.0370 oh        1 CV7     -0.588800
     24 C30        -0.1780   -3.5390   -0.8890 c3        1 CV7     -0.072400
     25 C31         0.2590   -4.7960   -0.1640 c3        1 CV7     -0.053200
     26 C32        -0.1390   -4.7390    1.2710 c2        1 CV7     -0.043400
     27 C33        -0.9130   -5.6870    1.8240 ce        1 CV7     -0.251200
     28 C34        -1.3520   -5.6380    3.2260 c         1 CV7      0.561500
     29 O35        -2.0590   -6.5230    3.7290 o         1 CV7     -0.535100
     30 C36        -0.9010   -4.4640    3.9890 ce        1 CV7     -0.245200
     31 C37        -0.1260   -3.5190    3.4460 c2        1 CV7     -0.101200
     32 C38         0.3800   -3.5420    2.0320 c3        1 CV7      0.013400
     33 C39         1.9060   -3.6420    2.1060 c3        1 CV7     -0.076100
     34 O40         1.5870   -0.9240    2.3300 oh        1 CV7     -0.602800
     35 H11C        2.0880    0.4060   -1.3530 hc        1 CV7      0.054033
     36 H12C        2.2530   -0.4660    0.2320 hc        1 CV7      0.054033
     37 H13C        2.0740    1.3340    0.2050 hc        1 CV7      0.054033
     38 H31C       -1.3580    0.3480    1.2450 hc        1 CV7      0.060200
     39 H32C        0.1610    1.2000    1.7420 hc        1 CV7      0.060200
     40 H10        -1.4110   -1.0860   -0.6340 hc        1 CV7      0.064700
     41 H4         -0.3710   -0.9460    2.9880 h1        1 CV7      0.034700
     42 H6         -1.2510   -2.3410    1.3030 hc        1 CV7      0.058700
     43 H40         1.8060   -0.0130    2.5620 ho        1 CV7      0.404000
     44 H8          1.4300   -2.2410   -0.2500 hc        1 CV7      0.069700
     45 H301        0.2250   -3.5520   -1.9360 hc        1 CV7      0.048700
     46 H302       -1.2980   -3.5200   -0.9600 hc        1 CV7      0.048700
     47 H121        0.8860   -1.0540   -2.6910 hc        1 CV7      0.066200
     48 H122       -0.8580   -1.5160   -2.9090 hc        1 CV7      0.066200
     49 H13         0.0850    1.1120   -3.3540 h1        1 CV7      0.093700
     50 H17        -2.6020    2.6390   -2.3900 h2        1 CV7      0.047700
     51 H20        -4.3570    1.7970   -0.8070 hc        1 CV7      0.063700
     52 H211       -4.8880    2.2410   -3.1920 hc        1 CV7      0.048700
     53 H212       -4.3870    0.5620   -3.6490 hc        1 CV7      0.048700
     54 H251       -3.4390   -0.9940   -1.7680 hc        1 CV7      0.048700
     55 H252       -3.3350   -0.3180   -0.0870 hc        1 CV7      0.048700
     56 H221       -6.8530    0.7090   -3.4730 hc        1 CV7      0.040950
     57 H222       -6.7350    1.3770   -1.7970 hc        1 CV7      0.040950
     58 H231       -5.8460   -1.4280   -2.7520 hc        1 CV7      0.042200
     59 H232       -7.2690   -1.0320   -1.7070 hc        1 CV7      0.042200
     60 H241       -5.2970   -1.8660   -0.3850 hc        1 CV7      0.040950
     61 H242       -5.7920   -0.1910    0.0830 hc        1 CV7      0.040950
     62 H281       -0.1410    3.1850    0.8210 h1        1 CV7      0.077700
     63 H282       -0.8870    4.1730   -0.5310 h1        1 CV7      0.077700
     64 H29         1.4400    4.8450   -0.8260 ho        1 CV7      0.418000
     65 H311       -0.1930   -5.6920   -0.6660 hc        1 CV7      0.058200
     66 H312        1.3760   -4.9040   -0.2270 hc        1 CV7      0.058200
     67 H33        -1.2680   -6.5550    1.2440 ha        1 CV7      0.150000
     68 H36        -1.2330   -4.4150    5.0380 ha        1 CV7      0.150000
     69 H37         0.2260   -2.6600    4.0420 ha        1 CV7      0.137000
     70 H391        2.3070   -2.9230    2.8610 hc        1 CV7      0.049367
     71 H392        2.3660   -3.4040    1.1190 hc        1 CV7      0.049367
     72 H393        2.2030   -4.6760    2.4040 hc        1 CV7      0.049367
@<TRIPOS>BOND
     1    1    2 1   
     2    1   35 1   
     3    1   36 1   
     4    1   37 1   
     5    2    3 1   
     6    2    7 1   
     7    2   10 1   
     8    3    4 1   
     9    3   38 1   
    10    3   39 1   
    11    4    5 1   
    12    4   34 1   
    13    4   41 1   
    14    5    6 1   
    15    5   32 1   
    16    5   42 1   
    17    6    7 1   
    18    6   24 1   
    19    6   44 1   
    20    7    8 1   
    21    7   40 1   
    22    8    9 1   
    23    8   47 1   
    24    8   48 1   
    25    9   10 1   
    26    9   13 1   
    27    9   49 1   
    28   10   11 1   
    29   10   20 1   
    30   11   12 1   
    31   12   13 1   
    32   12   14 1   
    33   12   50 1   
    34   14   15 1   
    35   14   19 1   
    36   14   51 1   
    37   15   16 1   
    38   15   52 1   
    39   15   53 1   
    40   16   17 1   
    41   16   56 1   
    42   16   57 1   
    43   17   18 1   
    44   17   58 1   
    45   17   59 1   
    46   18   19 1   
    47   18   60 1   
    48   18   61 1   
    49   19   54 1   
    50   19   55 1   
    51   20   21 2   
    52   20   22 1   
    53   22   23 1   
    54   22   62 1   
    55   22   63 1   
    56   23   64 1   
    57   24   25 1   
    58   24   45 1   
    59   24   46 1   
    60   25   26 1   
    61   25   65 1   
    62   25   66 1   
    63   26   27 2   
    64   26   32 1   
    65   27   28 1   
    66   27   67 1   
    67   28   29 2   
    68   28   30 1   
    69   30   31 2   
    70   30   68 1   
    71   31   32 1   
    72   31   69 1   
    73   32   33 1   
    74   33   70 1   
    75   33   71 1   
    76   33   72 1   
    77   34   43 1   
@<TRIPOS>SUBSTRUCTURE
     1 CV7         1 TEMP              0 ****  ****    0 ROOT
