@<TRIPOS>MOLECULE
CVD
   57    60     1     0     0
SMALL
bcc


@<TRIPOS>ATOM
      1 O1         -0.8690    0.3410    0.0280 oh        1 CVD     -0.631800
      2 C1          0.4480    0.4460    0.5510 c3        1 CVD      0.087100
      3 C2          0.4570    1.1910    1.8920 c3        1 CVD      0.096400
      4 O2         -0.0150    0.2970    2.8960 os        1 CVD     -0.328900
      5 C3          1.0060   -0.3390    3.6050 ca        1 CVD      0.109100
      6 C14         1.7660    0.3920    4.5260 ca        1 CVD     -0.177000
      7 C13         2.7310   -0.2480    5.3070 ca        1 CVD     -0.085000
      8 C12         2.9800   -1.6130    5.1910 ca        1 CVD     -0.148000
      9 C6          2.2240   -2.3460    4.2690 ca        1 CVD      0.001800
     10 C4          1.2070   -1.7100    3.4560 cp        1 CVD     -0.089000
     11 C5          0.6100   -2.7600    2.6510 cp        1 CVD     -0.085000
     12 C8         -0.4240   -2.7930    1.7230 ca        1 CVD     -0.092000
     13 C11        -0.7660   -4.0080    1.1350 ca        1 CVD     -0.158000
     14 C10        -0.0890   -5.1880    1.4670 ca        1 CVD     -0.093000
     15 C9          0.9470   -5.1970    2.3970 ca        1 CVD     -0.145000
     16 C7          1.3000   -3.9830    2.9950 ca        1 CVD     -0.009200
     17 N1          2.3200   -3.7060    3.9250 na        1 CVD     -0.178300
     18 C15         1.2650    1.2290   -0.4880 c3        1 CVD      0.106800
     19 N2          1.2210    0.5840   -1.8290 ny        1 CVD     -0.750000
     20 C16         1.9390    1.3810   -2.8620 c3        1 CVD      0.074800
     21 C17         2.0180    0.6380   -4.2020 c3        1 CVD      0.103400
     22 O3          0.7400    0.1190   -4.5570 os        1 CVD     -0.334900
     23 C18        -0.0610    0.9960   -5.2850 ca        1 CVD      0.026100
     24 C23         0.0540    1.0430   -6.6780 ca        1 CVD     -0.099000
     25 C22        -0.8440    1.8150   -7.4130 ca        1 CVD     -0.130000
     26 C21        -1.8460    2.5390   -6.7660 ca        1 CVD     -0.082000
     27 C20        -1.9620    2.5070   -5.3770 ca        1 CVD     -0.167000
     28 C19        -1.0620    1.7410   -4.6280 ca        1 CVD      0.102100
     29 O4         -1.0620    1.7030   -3.2430 os        1 CVD     -0.394900
     30 C24        -2.3380    1.8760   -2.6220 c3        1 CVD      0.110700
     31 H1         -1.4510    0.0970    0.7630 ho        1 CVD      0.455000
     32 HA          0.8650   -0.5940    0.6980 h1        1 CVD      0.085700
     33 H21C       -0.2960    2.0260    1.8780 h1        1 CVD      0.077700
     34 H22C        1.4760    1.5870    2.1270 h1        1 CVD      0.077700
     35 H151        2.3370    1.2920   -0.1500 hx        1 CVD      0.106700
     36 H152        0.8410    2.2680   -0.5930 hx        1 CVD      0.106700
     37 H14         1.5830    1.4690    4.6460 ha        1 CVD      0.146000
     38 H13         3.3070    0.3420    6.0380 ha        1 CVD      0.148000
     39 H12         3.7470   -2.0990    5.8100 ha        1 CVD      0.152000
     40 H8         -0.9740   -1.8730    1.4780 ha        1 CVD      0.123000
     41 H11        -1.5910   -4.0480    0.4070 ha        1 CVD      0.137000
     42 H10        -0.3890   -6.1340    0.9890 ha        1 CVD      0.144000
     43 H91         1.4650   -6.1310    2.6550 ha        1 CVD      0.149000
     44 H2          0.2280    0.4830   -2.1240 hn        1 CVD      0.472300
     45 H161        1.3630    2.3420   -3.0010 hx        1 CVD      0.109200
     46 H162        2.9770    1.6100   -2.4950 hx        1 CVD      0.109200
     47 H171        2.4200    1.3410   -4.9770 h1        1 CVD      0.091200
     48 H172        2.6740   -0.2720   -4.1280 h1        1 CVD      0.091200
     49 H23         0.8380    0.4550   -7.1790 ha        1 CVD      0.157000
     50 H22        -0.7640    1.8470   -8.5110 ha        1 CVD      0.157000
     51 H21        -2.5550    3.1430   -7.3550 ha        1 CVD      0.156000
     52 H20        -2.7560    3.0790   -4.8740 ha        1 CVD      0.154000
     53 H241       -3.1210    1.2700   -3.1380 h1        1 CVD      0.059367
     54 H242       -2.6110    2.9590   -2.6240 h1        1 CVD      0.059367
     55 H243       -2.1710    1.5060   -1.5760 h1        1 CVD      0.059367
     56 HN1         2.6910   -4.3900    4.5360 hn        1 CVD      0.302700
     57 H221        1.6210   -0.3580   -1.7750 hn        1 CVD      0.472300
@<TRIPOS>BOND
     1    1    2 1   
     2    1   31 1   
     3    2    3 1   
     4    2   18 1   
     5    2   32 1   
     6    3    4 1   
     7    3   33 1   
     8    3   34 1   
     9    4    5 1   
    10    5    6 ar  
    11    5   10 ar  
    12    6    7 ar  
    13    6   37 1   
    14    7    8 ar  
    15    7   38 1   
    16    8    9 ar  
    17    8   39 1   
    18    9   10 ar  
    19    9   17 1   
    20   10   11 1   
    21   11   12 ar  
    22   11   16 ar  
    23   12   13 ar  
    24   12   40 1   
    25   13   14 ar  
    26   13   41 1   
    27   14   15 ar  
    28   14   42 1   
    29   15   16 ar  
    30   15   43 1   
    31   16   17 1   
    32   17   56 1   
    33   18   19 1   
    34   18   35 1   
    35   18   36 1   
    36   19   20 1   
    37   19   44 1   
    38   19   57 1   
    39   20   21 1   
    40   20   45 1   
    41   20   46 1   
    42   21   22 1   
    43   21   47 1   
    44   21   48 1   
    45   22   23 1   
    46   23   24 ar  
    47   23   28 ar  
    48   24   25 ar  
    49   24   49 1   
    50   25   26 ar  
    51   25   50 1   
    52   26   27 ar  
    53   26   51 1   
    54   27   28 ar  
    55   27   52 1   
    56   28   29 1   
    57   29   30 1   
    58   30   53 1   
    59   30   54 1   
    60   30   55 1   
@<TRIPOS>SUBSTRUCTURE
     1 CVD         1 TEMP              0 ****  ****    0 ROOT
