@<TRIPOS>MOLECULE
CVD
   56    48     1     0     0
SMALL
bcc


@<TRIPOS>ATOM
      1 O1         -3.3310    0.9770    0.9800 oh        1 CVD     -0.331000
      2 C1         -1.8590    0.8540    0.9560 c3        1 CVD     -0.014000
      3 C2         -1.3430    0.8550    2.3280 c3        1 CVD     -0.058000
      4 O2         -1.3450   -0.4390    2.8130 os        1 CVD     -0.222000
      5 C3         -0.8210   -0.5690    4.1490 c2        1 CVD      0.137000
      6 C14        -0.8800    0.5580    5.0010 c1        1 CVD     -0.236000
      7 C13        -0.4380    0.4630    6.3100 c1        1 CVD     -0.126250
      8 C12         0.0680   -0.7510    6.7950 c1        1 CVD     -0.126250
      9 C6          0.1300   -1.9070    5.9260 c1        1 CVD      0.064000
     10 C4         -0.3050   -1.8100    4.6380 c1        1 CVD     -0.108000
     11 C5         -0.1930   -3.0770    4.0490 c1        1 CVD     -0.016500
     12 C8         -0.5290   -3.5390    2.7990 c1        1 CVD     -0.126250
     13 C11        -0.3530   -4.9030    2.4810 c1        1 CVD     -0.126250
     14 C10         0.1760   -5.8060    3.4610 c1        1 CVD     -0.126250
     15 C9          0.5120   -5.3470    4.7070 c1        1 CVD     -0.126250
     16 C7          0.3340   -3.9760    5.0260 c1        1 CVD     -0.016500
     17 N1          0.5330   -3.2830    6.1630 DU        1 CVD     -0.223000
     18 C15        -1.2790    2.0200    0.1840 c3        1 CVD     -0.065000
     19 N2         -1.3970    1.7560   -1.1950 n3        1 CVD     -0.290000
     20 C16        -0.5640    2.7180   -1.9690 c3        1 CVD     -0.085000
     21 C17        -0.6830    2.4120   -3.4400 c3        1 CVD     -0.023000
     22 O3          0.3920    3.0800   -4.1660 os        1 CVD     -0.215000
     23 C18         0.7080    2.4880   -5.3660 c2        1 CVD      0.058000
     24 C23        -0.1900    2.5230   -6.4060 c2        1 CVD     -0.190000
     25 C22         0.1800    2.0250   -7.6710 c1        1 CVD     -0.108000
     26 C21         1.4690    1.4920   -7.8650 c1        1 CVD     -0.126250
     27 C20         2.3640    1.4610   -6.8140 c1        1 CVD     -0.126250
     28 C19         1.9940    1.9560   -5.5630 c1        1 CVD      0.028000
     29 O4          2.9140    2.0080   -4.5540 os        1 CVD     -0.215000
     30 C24         3.5420    0.7830   -4.3000 c3        1 CVD     -0.074000
     31 H1         -3.6820    0.2540    0.7010 ho        1 CVD      0.219000
     32 HA         -1.6070    0.0130    0.5130 h1        1 CVD      0.092000
     33 H21C       -1.9570    1.4570    2.9340 h1        1 CVD      0.094000
     34 H22C       -0.4480    1.2010    2.3360 h1        1 CVD      0.094000
     35 H151       -1.7770    2.8420    0.4110 h1        1 CVD      0.101500
     36 H152       -0.3500    2.1330    0.4110 h1        1 CVD      0.101500
     37 H14        -1.1940    1.3160    4.6990 ha        1 CVD      0.138000
     38 H13        -0.4740    1.1540    6.8280 ha        1 CVD      0.137125
     39 H12         0.4020   -0.8220    7.7950 ha        1 CVD      0.137125
     40 H8         -0.8880   -2.9290    2.1400 ha        1 CVD      0.137125
     41 H11        -0.5960   -5.2390    1.5840 ha        1 CVD      0.137125
     42 H10         0.2930   -6.7130    3.2470 ha        1 CVD      0.137125
     43 H91         0.8800   -5.9770    5.3880 ha        1 CVD      0.137125
     44 H2         -1.0950    0.8800   -1.3670 hn        1 CVD      0.171000
     45 H161       -0.8760    3.6290   -1.8080 h1        1 CVD      0.084500
     46 H162        0.3230    2.6430   -1.7020 h1        1 CVD      0.084500
     47 H171       -1.5160    2.7320   -3.7560 h1        1 CVD      0.087000
     48 H172       -0.6240    1.3500   -3.6000 h1        1 CVD      0.087000
     49 H23        -1.0420    2.8780   -6.2740 ha        1 CVD      0.140000
     50 H22        -0.5000    2.0490   -8.4620 ha        1 CVD      0.134000
     51 H21         1.7480    1.1240   -8.7970 ha        1 CVD      0.137125
     52 H20         3.2250    1.1060   -6.9420 ha        1 CVD      0.137125
     53 H241        4.0400    0.4930   -5.1110 h1        1 CVD      0.082000
     54 H242        4.2610    0.8990   -3.4380 h1        1 CVD      0.082000
     55 H243        2.8630    0.1070   -4.0740 h1        1 CVD      0.082000
     56 HN1         0.7900   -3.5980    6.8850 DU        1 CVD      0.241000
@<TRIPOS>BOND
     1    1    2 1   
     2    1   31 1   
     3    2    3 1   
     4    2   18 1   
     5    2   32 1   
     6    3    4 1   
     7    3   33 1   
     8    3   34 1   
     9    4    5 1   
    10    5    6 1   
    11    5   10 1   
    12    6   37 1   
    13    7    8 1   
    14    7   38 1   
    15    8   39 1   
    16    9   10 1   
    17   11   16 1   
    18   12   13 1   
    19   12   40 1   
    20   13   41 1   
    21   14   15 1   
    22   14   42 1   
    23   15   43 1   
    24   18   19 1   
    25   18   35 1   
    26   18   36 1   
    27   19   20 1   
    28   19   44 1   
    29   20   21 1   
    30   20   45 1   
    31   20   46 1   
    32   21   22 1   
    33   21   47 1   
    34   21   48 1   
    35   22   23 1   
    36   23   24 1   
    37   23   28 1   
    38   24   25 1   
    39   24   49 1   
    40   25   50 1   
    41   26   27 1   
    42   26   51 1   
    43   27   52 1   
    44   28   29 1   
    45   29   30 1   
    46   30   53 1   
    47   30   54 1   
    48   30   55 1   
@<TRIPOS>SUBSTRUCTURE
     1 CVD         1 TEMP              0 ****  ****    0 ROOT
