@<TRIPOS>MOLECULE
CVD
   57    60     1     0     0
SMALL
bcc


@<TRIPOS>ATOM
      1 O1         -0.8990    0.2880    0.0120 oh        1 CVD     -0.631800
      2 C1          0.4030    0.4370    0.5580 c3        1 CVD      0.087100
      3 C2          0.3610    1.1700    1.9060 c3        1 CVD      0.096400
      4 O2         -0.0910    0.2490    2.8950 os        1 CVD     -0.328900
      5 C3          0.9430   -0.3550    3.6120 ca        1 CVD      0.109100
      6 C14         1.6610    0.3940    4.5520 ca        1 CVD     -0.177000
      7 C13         2.6390   -0.2160    5.3410 ca        1 CVD     -0.085000
      8 C12         2.9410   -1.5690    5.2140 ca        1 CVD     -0.148000
      9 C6          2.2280   -2.3210    4.2750 ca        1 CVD      0.001800
     10 C4          1.1980   -1.7160    3.4530 cp        1 CVD     -0.089000
     11 C5          0.6530   -2.7790    2.6290 cp        1 CVD     -0.085000
     12 C8         -0.3650   -2.8430    1.6870 ca        1 CVD     -0.092000
     13 C11        -0.6520   -4.0640    1.0810 ca        1 CVD     -0.158000
     14 C10         0.0650   -5.2200    1.4120 ca        1 CVD     -0.093000
     15 C9          1.0870   -5.1990    2.3570 ca        1 CVD     -0.145000
     16 C7          1.3850   -3.9790    2.9720 ca        1 CVD     -0.009200
     17 N1          2.3800   -3.6730    3.9190 na        1 CVD     -0.178300
     18 C15         1.2090    1.2590   -0.4600 c3        1 CVD      0.106800
     19 N2          1.2120    0.6240   -1.8060 n4        1 CVD     -0.750000
     20 C16         1.9170    1.4560   -2.8200 c3        1 CVD      0.074800
     21 C17         2.0480    0.7290   -4.1640 c3        1 CVD      0.103400
     22 O3          0.7970    0.1650   -4.5460 os        1 CVD     -0.334900
     23 C18        -0.0230    1.0170   -5.2810 ca        1 CVD      0.026100
     24 C23         0.1140    1.0800   -6.6720 ca        1 CVD     -0.099000
     25 C22        -0.7990    1.8240   -7.4170 ca        1 CVD     -0.130000
     26 C21        -1.8390    2.5040   -6.7810 ca        1 CVD     -0.082000
     27 C20        -1.9790    2.4570   -5.3950 ca        1 CVD     -0.167000
     28 C19        -1.0630    1.7180   -4.6360 ca        1 CVD      0.102100
     29 O4         -1.0860    1.6690   -3.2520 os        1 CVD     -0.394900
     30 C24        -2.3790    1.7880   -2.6520 c3        1 CVD      0.110700
     31 H1         -1.4850    0.0140    0.7340 ho        1 CVD      0.455000
     32 HA          0.8570   -0.5880    0.7050 h1        1 CVD      0.085700
     33 H21C       -0.4240    1.9750    1.8870 h1        1 CVD      0.077700
     34 H22C        1.3600    1.6040    2.1610 h1        1 CVD      0.077700
     35 H151        2.2710    1.3600   -0.1010 hx        1 CVD      0.106700
     36 H152        0.7470    2.2830   -0.5640 hx        1 CVD      0.106700
     37 H14         1.4350    1.4630    4.6790 ha        1 CVD      0.146000
     38 H13         3.1810    0.3890    6.0860 ha        1 CVD      0.148000
     39 H12         3.7170   -2.0320    5.8400 ha        1 CVD      0.152000
     40 H8         -0.9470   -1.9420    1.4430 ha        1 CVD      0.123000
     41 H11        -1.4650   -4.1280    0.3420 ha        1 CVD      0.137000
     42 H10        -0.1920   -6.1720    0.9210 ha        1 CVD      0.144000
     43 H91         1.6370   -6.1160    2.6140 ha        1 CVD      0.149000
     44 H2          0.2290    0.4890   -2.1190 hn        1 CVD      0.472300
     45 H161        1.3080    2.3960   -2.9610 hx        1 CVD      0.109200
     46 H162        2.9390    1.7220   -2.4320 hx        1 CVD      0.109200
     47 H171        2.4370    1.4530   -4.9260 h1        1 CVD      0.091200
     48 H172        2.7370   -0.1560   -4.0860 h1        1 CVD      0.091200
     49 H23         0.9280    0.5270   -7.1630 ha        1 CVD      0.157000
     50 H22        -0.7020    1.8670   -8.5130 ha        1 CVD      0.157000
     51 H21        -2.5600    3.0850   -7.3790 ha        1 CVD      0.156000
     52 H20        -2.8030    2.9940   -4.9020 ha        1 CVD      0.154000
     53 H241       -3.1290    1.1580   -3.1880 h1        1 CVD      0.059367
     54 H242       -2.6920    2.8600   -2.6510 h1        1 CVD      0.059367
     55 H243       -2.2160    1.4160   -1.6070 h1        1 CVD      0.059367
     56 HN1         2.7680   -4.3480    4.5290 hn        1 CVD      0.302700
     57 H221        1.6470   -0.3020   -1.7520 hn        1 CVD      0.472300
@<TRIPOS>BOND
     1    1    2 1   
     2    1   31 1   
     3    2    3 1   
     4    2   18 1   
     5    2   32 1   
     6    3    4 1   
     7    3   33 1   
     8    3   34 1   
     9    4    5 1   
    10    5    6 ar  
    11    5   10 ar  
    12    6    7 ar  
    13    6   37 1   
    14    7    8 ar  
    15    7   38 1   
    16    8    9 ar  
    17    8   39 1   
    18    9   10 ar  
    19    9   17 1   
    20   10   11 1   
    21   11   12 ar  
    22   11   16 ar  
    23   12   13 ar  
    24   12   40 1   
    25   13   14 ar  
    26   13   41 1   
    27   14   15 ar  
    28   14   42 1   
    29   15   16 ar  
    30   15   43 1   
    31   16   17 1   
    32   17   56 1   
    33   18   19 1   
    34   18   35 1   
    35   18   36 1   
    36   19   20 1   
    37   19   44 1   
    38   19   57 1   
    39   20   21 1   
    40   20   45 1   
    41   20   46 1   
    42   21   22 1   
    43   21   47 1   
    44   21   48 1   
    45   22   23 1   
    46   23   24 ar  
    47   23   28 ar  
    48   24   25 ar  
    49   24   49 1   
    50   25   26 ar  
    51   25   50 1   
    52   26   27 ar  
    53   26   51 1   
    54   27   28 ar  
    55   27   52 1   
    56   28   29 1   
    57   29   30 1   
    58   30   53 1   
    59   30   54 1   
    60   30   55 1   
@<TRIPOS>SUBSTRUCTURE
     1 CVD         1 TEMP              0 ****  ****    0 ROOT
