@<TRIPOS>MOLECULE
CVD
   57    60     1     0     0
SMALL
bcc


@<TRIPOS>ATOM
      1 O1         -0.8880    0.3060    0.0130 oh        1 CVD     -0.631800
      2 C1          0.4180    0.4430    0.5530 c3        1 CVD      0.087100
      3 C2          0.3900    1.1830    1.8970 c3        1 CVD      0.096400
      4 O2         -0.0720    0.2720    2.8910 os        1 CVD     -0.328900
      5 C3          0.9550   -0.3400    3.6110 ca        1 CVD      0.109100
      6 C14         1.6830    0.4060    4.5450 ca        1 CVD     -0.177000
      7 C13         2.6550   -0.2120    5.3370 ca        1 CVD     -0.085000
      8 C12         2.9400   -1.5690    5.2190 ca        1 CVD     -0.148000
      9 C6          2.2160   -2.3180    4.2850 ca        1 CVD      0.001800
     10 C4          1.1930   -1.7050    3.4600 cp        1 CVD     -0.089000
     11 C5          0.6340   -2.7660    2.6430 cp        1 CVD     -0.085000
     12 C8         -0.3860   -2.8230    1.7020 ca        1 CVD     -0.092000
     13 C11        -0.6890   -4.0440    1.1050 ca        1 CVD     -0.158000
     14 C10         0.0130   -5.2070    1.4420 ca        1 CVD     -0.093000
     15 C9          1.0370   -5.1930    2.3850 ca        1 CVD     -0.145000
     16 C7          1.3510   -3.9730    2.9930 ca        1 CVD     -0.009200
     17 N1          2.3510   -3.6740    3.9380 na        1 CVD     -0.178300
     18 C15         1.2280    1.2520   -0.4720 c3        1 CVD      0.106800
     19 N2          1.2190    0.6100   -1.8150 n4        1 CVD     -0.750000
     20 C16         1.9290    1.4300   -2.8370 c3        1 CVD      0.074800
     21 C17         2.0460    0.6940   -4.1780 c3        1 CVD      0.103400
     22 O3          0.7880    0.1420   -4.5510 os        1 CVD     -0.334900
     23 C18        -0.0270    1.0000   -5.2870 ca        1 CVD      0.026100
     24 C23         0.1040    1.0540   -6.6790 ca        1 CVD     -0.099000
     25 C22        -0.8040    1.8030   -7.4240 ca        1 CVD     -0.130000
     26 C21        -1.8340    2.4980   -6.7870 ca        1 CVD     -0.082000
     27 C20        -1.9670    2.4590   -5.4000 ca        1 CVD     -0.167000
     28 C19        -1.0560    1.7150   -4.6420 ca        1 CVD      0.102100
     29 O4         -1.0730    1.6730   -3.2570 os        1 CVD     -0.394900
     30 C24        -2.3620    1.8100   -2.6520 c3        1 CVD      0.110700
     31 H1         -1.4740    0.0430    0.7390 ho        1 CVD      0.455000
     32 HA          0.8610   -0.5860    0.7020 h1        1 CVD      0.085700
     33 H21C        1.3950    1.6040    2.1470 h1        1 CVD      0.077700
     34 H22C       -0.3840    1.9980    1.8760 h1        1 CVD      0.077700
     35 H151        0.7770    2.2790   -0.5800 hx        1 CVD      0.106700
     36 H152        2.2930    1.3420   -0.1190 hx        1 CVD      0.106700
     37 H14         1.4720    1.4780    4.6660 ha        1 CVD      0.146000
     38 H13         3.2050    0.3910    6.0780 ha        1 CVD      0.148000
     39 H12         3.7110   -2.0380    5.8470 ha        1 CVD      0.152000
     40 H8         -0.9570   -1.9160    1.4530 ha        1 CVD      0.123000
     41 H11        -1.5030   -4.1020    0.3660 ha        1 CVD      0.137000
     42 H10        -0.2560   -6.1590    0.9570 ha        1 CVD      0.144000
     43 H91         1.5750   -6.1150    2.6480 ha        1 CVD      0.149000
     44 H2          0.2330    0.4840   -2.1240 hn        1 CVD      0.472300
     45 H161        2.9560    1.6860   -2.4540 hx        1 CVD      0.109200
     46 H162        1.3290    2.3760   -2.9790 hx        1 CVD      0.109200
     47 H171        2.7260   -0.1980   -4.0980 h1        1 CVD      0.091200
     48 H172        2.4390    1.4100   -4.9450 h1        1 CVD      0.091200
     49 H23         0.9110    0.4890   -7.1710 ha        1 CVD      0.157000
     50 H22        -0.7110    1.8400   -8.5210 ha        1 CVD      0.157000
     51 H21        -2.5500    3.0840   -7.3850 ha        1 CVD      0.156000
     52 H20        -2.7830    3.0080   -4.9060 ha        1 CVD      0.154000
     53 H241       -2.6630    2.8850   -2.6550 h1        1 CVD      0.059367
     54 H242       -2.1990    1.4420   -1.6050 h1        1 CVD      0.059367
     55 H243       -3.1210    1.1860   -3.1810 h1        1 CVD      0.059367
     56 HN1         2.7310   -4.3500    4.5510 hn        1 CVD      0.302700
     57 H221        1.6440   -0.3210   -1.7600 hn        1 CVD      0.472300
@<TRIPOS>BOND
     1    1    2 1   
     2    1   31 1   
     3    2    3 1   
     4    2   18 1   
     5    2   32 1   
     6    3    4 1   
     7    3   33 1   
     8    3   34 1   
     9    4    5 1   
    10    5    6 ar  
    11    5   10 ar  
    12    6    7 ar  
    13    6   37 1   
    14    7    8 ar  
    15    7   38 1   
    16    8    9 ar  
    17    8   39 1   
    18    9   10 ar  
    19    9   17 1   
    20   10   11 1   
    21   11   12 ar  
    22   11   16 ar  
    23   12   13 ar  
    24   12   40 1   
    25   13   14 ar  
    26   13   41 1   
    27   14   15 ar  
    28   14   42 1   
    29   15   16 ar  
    30   15   43 1   
    31   16   17 1   
    32   17   56 1   
    33   18   19 1   
    34   18   35 1   
    35   18   36 1   
    36   19   20 1   
    37   19   44 1   
    38   19   57 1   
    39   20   21 1   
    40   20   45 1   
    41   20   46 1   
    42   21   22 1   
    43   21   47 1   
    44   21   48 1   
    45   22   23 1   
    46   23   24 ar  
    47   23   28 ar  
    48   24   25 ar  
    49   24   49 1   
    50   25   26 ar  
    51   25   50 1   
    52   26   27 ar  
    53   26   51 1   
    54   27   28 ar  
    55   27   52 1   
    56   28   29 1   
    57   29   30 1   
    58   30   53 1   
    59   30   54 1   
    60   30   55 1   
@<TRIPOS>SUBSTRUCTURE
     1 CVD         1 TEMP              0 ****  ****    0 ROOT
