@<TRIPOS>MOLECULE
CVD
   56    59     1     0     0
SMALL
bcc


@<TRIPOS>ATOM
      1 O1         -1.3590   -2.6750   -2.4580 oh        1 CVD     -0.584800
      2 C1         -0.6040   -2.1030   -1.4080 c3        1 CVD      0.100100
      3 C2          0.8460   -1.9120   -1.8700 c3        1 CVD      0.094400
      4 O2          1.4620   -1.0710   -0.8900 os        1 CVD     -0.326900
      5 C3          2.7860   -0.7530   -1.1160 ca        1 CVD      0.183100
      6 C14         3.5180   -1.1450   -2.2450 ca        1 CVD     -0.237000
      7 C13         4.8560   -0.7650   -2.3850 ca        1 CVD     -0.065000
      8 C12         5.5140    0.0000   -1.4280 ca        1 CVD     -0.190000
      9 C6          4.7910    0.3910   -0.2950 ca        1 CVD      0.017800
     10 C4          3.4050    0.0200   -0.1280 cp        1 CVD     -0.109000
     11 C5          2.9690    0.5940    1.1310 cp        1 CVD     -0.054000
     12 C8          1.7660    0.5850    1.8220 ca        1 CVD     -0.077000
     13 C11         1.6840    1.2650    3.0370 ca        1 CVD     -0.161000
     14 C10         2.7880    1.9460    3.5590 ca        1 CVD     -0.105000
     15 C9          4.0140    1.9710    2.8960 ca        1 CVD     -0.153000
     16 C7          4.1100    1.2920    1.6790 ca        1 CVD     -0.022200
     17 N1          5.2270    1.1030    0.8380 na        1 CVD     -0.181300
     18 C15        -0.6510   -2.9680   -0.1350 c3        1 CVD      0.128800
     19 N2         -1.9600   -3.1520    0.4480 n3        1 CVD     -0.814200
     20 C16        -2.2670   -2.3250    1.5870 c3        1 CVD      0.164800
     21 C17        -2.3240   -0.8050    1.3740 c3        1 CVD      0.079400
     22 O3         -3.4040   -0.5750    0.4640 os        1 CVD     -0.312900
     23 C18        -3.7490    0.7480    0.2690 ca        1 CVD      0.102100
     24 C23        -2.9880    1.8410    0.6830 ca        1 CVD     -0.177000
     25 C22        -3.4250    3.1390    0.4010 ca        1 CVD     -0.129000
     26 C21        -4.6120    3.3470   -0.2900 ca        1 CVD     -0.128000
     27 C20        -5.3860    2.2620   -0.7110 ca        1 CVD     -0.179000
     28 C19        -4.9660    0.9610   -0.4330 ca        1 CVD      0.103100
     29 O4         -5.6560   -0.1830   -0.7820 os        1 CVD     -0.304900
     30 C24        -6.7950    0.0080   -1.6130 c3        1 CVD      0.110700
     31 H1         -1.0750   -3.5930   -2.5550 ho        1 CVD      0.399000
     32 HA         -1.0860   -1.0990   -1.2320 h1        1 CVD      0.100700
     33 H21C        1.3860   -2.8930   -1.9220 h1        1 CVD      0.049700
     34 H22C        0.8640   -1.4120   -2.8730 h1        1 CVD      0.049700
     35 H151       -0.2730   -3.9990   -0.4000 h1        1 CVD      0.057700
     36 H152        0.0650   -2.5200    0.6100 h1        1 CVD      0.057700
     37 H14         3.0510   -1.7510   -3.0330 ha        1 CVD      0.139000
     38 H13         5.4050   -1.0840   -3.2850 ha        1 CVD      0.133000
     39 H12         6.5660    0.2830   -1.5560 ha        1 CVD      0.139000
     40 H8          0.9000    0.0460    1.4070 ha        1 CVD      0.142000
     41 H11         0.7370    1.2670    3.5950 ha        1 CVD      0.129000
     42 H10         2.6900    2.4750    4.5190 ha        1 CVD      0.131000
     43 H91         4.8730    2.5060    3.3210 ha        1 CVD      0.136000
     44 H2         -2.6720   -3.0620   -0.2570 hn        1 CVD      0.386800
     45 H161       -3.2710   -2.6620    1.9730 h1        1 CVD      0.063700
     46 H162       -1.4950   -2.5120    2.3860 h1        1 CVD      0.063700
     47 H171       -2.5240   -0.2900    2.3490 h1        1 CVD      0.042200
     48 H172       -1.3700   -0.4160    0.9280 h1        1 CVD      0.042200
     49 H23        -2.0430    1.6940    1.2250 ha        1 CVD      0.139000
     50 H22        -2.8180    3.9950    0.7300 ha        1 CVD      0.134000
     51 H21        -4.9510    4.3690   -0.5110 ha        1 CVD      0.133000
     52 H20        -6.3230    2.4430   -1.2560 ha        1 CVD      0.139000
     53 H241       -7.5850    0.5810   -1.0710 h1        1 CVD      0.043367
     54 H242       -6.5140    0.5280   -2.5610 h1        1 CVD      0.043367
     55 H243       -7.1390   -1.0370   -1.8220 h1        1 CVD      0.043367
     56 HN1         5.9870    1.7340    0.8100 hn        1 CVD      0.289700
@<TRIPOS>BOND
     1    1    2 1   
     2    1   31 1   
     3    2    3 1   
     4    2   18 1   
     5    2   32 1   
     6    3    4 1   
     7    3   33 1   
     8    3   34 1   
     9    4    5 1   
    10    5    6 ar  
    11    5   10 ar  
    12    6    7 ar  
    13    6   37 1   
    14    7    8 ar  
    15    7   38 1   
    16    8    9 ar  
    17    8   39 1   
    18    9   10 ar  
    19    9   17 1   
    20   10   11 1   
    21   11   12 ar  
    22   11   16 ar  
    23   12   13 ar  
    24   12   40 1   
    25   13   14 ar  
    26   13   41 1   
    27   14   15 ar  
    28   14   42 1   
    29   15   16 ar  
    30   15   43 1   
    31   16   17 1   
    32   17   56 1   
    33   18   19 1   
    34   18   35 1   
    35   18   36 1   
    36   19   20 1   
    37   19   44 1   
    38   20   21 1   
    39   20   45 1   
    40   20   46 1   
    41   21   22 1   
    42   21   47 1   
    43   21   48 1   
    44   22   23 1   
    45   23   24 ar  
    46   23   28 ar  
    47   24   25 ar  
    48   24   49 1   
    49   25   26 ar  
    50   25   50 1   
    51   26   27 ar  
    52   26   51 1   
    53   27   28 ar  
    54   27   52 1   
    55   28   29 1   
    56   29   30 1   
    57   30   53 1   
    58   30   54 1   
    59   30   55 1   
@<TRIPOS>SUBSTRUCTURE
     1 CVD         1 TEMP              0 ****  ****    0 ROOT
