@<TRIPOS>MOLECULE
CVI
   58    53     1     0     0
SMALL
bcc


@<TRIPOS>ATOM
      1 C1          0.2250   -0.0620   -0.0220 c1        1 CVI      0.283000
      2 C2          1.5910   -0.1450   -0.0430 c1        1 CVI     -0.219000
      3 C3          2.3410   -0.1810   -1.3670 c1        1 CVI     -0.123000
      4 C4          3.8450   -0.2090   -1.3740 c1        1 CVI     -0.123000
      5 C5          4.6230   -0.2560   -0.0390 c1        1 CVI      0.189000
      6 C6          3.8800   -0.2260    1.2620 c2        1 CVI     -0.237000
      7 C7          2.3600   -0.2040    1.2690 c2        1 CVI     -0.009000
      8 C8         -0.5770   -0.0030   -1.3550 c1        1 CVI     -0.219000
      9 C9         -1.2900   -1.1530   -1.8080 c2        1 CVI     -0.009000
     10 C10        -2.1120   -1.0690   -2.9260 c1        1 CVI     -0.237000
     11 C11        -2.2380    0.1270   -3.5990 c1        1 CVI      0.189000
     12 C12        -1.5410    1.2540   -3.1570 c1        1 CVI     -0.237000
     13 C13        -0.7000    1.1660   -2.0130 c1        1 CVI     -0.009000
     14 C14        -0.5340   -0.0220    1.3540 c2        1 CVI     -0.219000
     15 C15        -1.1760   -1.1670    1.8280 c2        1 CVI     -0.009000
     16 C16        -1.9810   -1.0950    2.9760 c1        1 CVI     -0.237000
     17 C17        -2.1390    0.1440    3.6540 c1        1 CVI      0.189000
     18 C18        -1.4890    1.2990    3.1740 c1        1 CVI     -0.237000
     19 C19        -0.6960    1.2280    2.0420 c1        1 CVI     -0.009000
     20 C20         6.6930   -0.3750    1.2300 c3        1 CVI     -0.085000
     21 C21         6.6880   -0.3720   -1.3410 c3        1 CVI     -0.085000
     22 C22        -2.6820    0.7810   -5.9570 c3        1 CVI     -0.085000
     23 C23        -4.4420   -0.2680   -4.5880 c3        1 CVI     -0.085000
     24 C24        -2.5530    0.4710    6.1470 c3        1 CVI     -0.085000
     25 C25        -4.5150   -0.0160    4.5550 c3        1 CVI     -0.085000
     26 N1          5.9470   -0.3290   -0.0450 n3        1 CVI     -0.251000
     27 N2         -3.1340    0.2270   -4.7010 n3        1 CVI     -0.251000
     28 N3         -3.0690    0.2480    4.7710 n3        1 CVI     -0.251000
     29 H31         1.8310   -0.1510   -2.2400 ha        1 CVI      0.151500
     30 H41         4.3060   -0.2290   -2.1800 ha        1 CVI      0.151500
     31 H61         4.3750   -0.2610    2.1140 ha        1 CVI      0.153000
     32 H71         1.8410   -0.1860    2.1790 ha        1 CVI      0.150000
     33 H91        -1.2030   -1.9950   -1.3350 ha        1 CVI      0.150000
     34 H101       -2.6080   -1.8710   -3.2410 ha        1 CVI      0.153000
     35 H121       -1.6330    2.1340   -3.6510 ha        1 CVI      0.153000
     36 H131       -0.2230    1.9380   -1.7080 ha        1 CVI      0.150000
     37 H151       -1.0590   -2.0470    1.3480 ha        1 CVI      0.150000
     38 H161       -2.4450   -1.9200    3.3180 ha        1 CVI      0.153000
     39 H181       -1.5990    2.1590    3.6460 ha        1 CVI      0.153000
     40 H191       -0.2140    2.0940    1.6830 ha        1 CVI      0.150000
     41 H201        6.2660   -1.0490    1.8470 h1        1 CVI      0.096333
     42 H202        6.6790    0.5090    1.6500 h1        1 CVI      0.096333
     43 H203        7.6400   -0.6420    1.0500 h1        1 CVI      0.096333
     44 H211        6.5740    0.5610   -1.8520 h1        1 CVI      0.096333
     45 H212        7.6640   -0.5400   -1.1630 h1        1 CVI      0.096333
     46 H213        6.3420   -1.0690   -1.8770 h1        1 CVI      0.096333
     47 H221       -2.4990    0.0460   -6.5950 h1        1 CVI      0.096333
     48 H222       -1.8810    1.2880   -5.8150 h1        1 CVI      0.096333
     49 H223       -3.3780    1.3640   -6.3240 h1        1 CVI      0.096333
     50 H231       -5.1110    0.5030   -4.7100 h1        1 CVI      0.096333
     51 H232       -4.6030   -0.9820   -5.3180 h1        1 CVI      0.096333
     52 H233       -4.5730   -0.7000   -3.6440 h1        1 CVI      0.096333
     53 H241       -2.6870    1.3750    6.3910 h1        1 CVI      0.096333
     54 H242       -1.5700    0.2590    6.1760 h1        1 CVI      0.096333
     55 H243       -3.0470   -0.1300    6.7940 h1        1 CVI      0.096333
     56 H251       -4.7320   -0.9730    4.8300 h1        1 CVI      0.096333
     57 H252       -4.7300    0.1090    3.6050 h1        1 CVI      0.096333
     58 H253       -5.0490    0.6110    5.0970 h1        1 CVI      0.096333
@<TRIPOS>BOND
     1    1    2 1   
     2    1   14 1   
     3    2    7 1   
     4    3    4 1   
     5    3   29 1   
     6    4   30 1   
     7    5    6 1   
     8    5   26 1   
     9    6    7 1   
    10    6   31 1   
    11    7   32 1   
    12    8    9 1   
    13    8   13 1   
    14    9   10 1   
    15    9   33 1   
    16   10   34 1   
    17   11   12 1   
    18   11   27 1   
    19   12   35 1   
    20   13   36 1   
    21   14   15 1   
    22   14   19 1   
    23   15   16 1   
    24   15   37 1   
    25   16   38 1   
    26   17   18 1   
    27   17   28 1   
    28   18   39 1   
    29   19   40 1   
    30   20   26 1   
    31   20   41 1   
    32   20   42 1   
    33   20   43 1   
    34   21   26 1   
    35   21   44 1   
    36   21   45 1   
    37   21   46 1   
    38   22   27 1   
    39   22   47 1   
    40   22   48 1   
    41   22   49 1   
    42   23   27 1   
    43   23   50 1   
    44   23   51 1   
    45   23   52 1   
    46   24   28 1   
    47   24   53 1   
    48   24   54 1   
    49   24   55 1   
    50   25   28 1   
    51   25   56 1   
    52   25   57 1   
    53   25   58 1   
@<TRIPOS>SUBSTRUCTURE
     1 CVI         1 TEMP              0 ****  ****    0 ROOT
