@<TRIPOS>MOLECULE
CVI
   58    60     1     0     0
SMALL
bcc


@<TRIPOS>ATOM
      1 C1          0.0000    0.0000   -0.0000 ce        1 CVI      0.306600
      2 C2          1.4290   -0.0370    0.0750 cd        1 CVI     -0.219000
      3 C3          2.1260    0.5980    1.1320 cd        1 CVI     -0.009000
      4 C4          3.4990    0.5580    1.2200 cc        1 CVI     -0.323600
      5 C5          4.2820   -0.1110    0.2260 cc        1 CVI      0.416900
      6 C6          3.5740   -0.7410   -0.8460 cc        1 CVI     -0.323600
      7 C7          2.2000   -0.7100   -0.9040 cd        1 CVI     -0.009000
      8 C8         -0.7130   -1.0850   -0.6010 ca        1 CVI     -0.230800
      9 C9         -1.9480   -0.8770   -1.2630 ca        1 CVI     -0.009000
     10 C10        -2.6350   -1.9130   -1.8540 ca        1 CVI     -0.237000
     11 C11        -2.1380   -3.2530   -1.8020 ca        1 CVI      0.270600
     12 C12        -0.8960   -3.4610   -1.1220 ca        1 CVI     -0.237000
     13 C13        -0.2120   -2.4090   -0.5570 ca        1 CVI     -0.009000
     14 C14        -0.7150    1.1220    0.5250 ca        1 CVI     -0.230800
     15 C15        -2.0220    0.9810    1.0530 ca        1 CVI     -0.009000
     16 C16        -2.7130    2.0510    1.5720 ca        1 CVI     -0.237000
     17 C17        -2.1440    3.3640    1.5750 ca        1 CVI      0.270600
     18 C18        -0.8290    3.5060    1.0310 ca        1 CVI     -0.237000
     19 C19        -0.1440    2.4180    0.5380 ca        1 CVI     -0.009000
     20 C20         6.3420    0.5100    1.3760 c3        1 CVI      0.013600
     21 C21         6.4170   -0.8410   -0.7030 c3        1 CVI      0.013600
     22 C22        -4.0770   -4.0630   -3.0400 c3        1 CVI      0.191100
     23 C23        -2.2920   -5.6300   -2.3280 c3        1 CVI      0.191100
     24 C24        -4.1590    4.2770    2.6050 c3        1 CVI      0.191100
     25 C25        -2.2300    5.7480    2.0890 c3        1 CVI      0.191100
     26 N1          5.6510   -0.1460    0.2980 nh        1 CVI     -0.267100
     27 N2         -2.8210   -4.2930   -2.3770 nh        1 CVI     -0.649000
     28 N3         -2.8300    4.4400    2.0790 nh        1 CVI     -0.649000
     29 H31         1.5500    1.1070    1.9240 ha        1 CVI      0.150000
     30 H41         3.9910    1.0460    2.0750 ha        1 CVI      0.153000
     31 H61         4.1280   -1.2560   -1.6470 ha        1 CVI      0.153000
     32 H71         1.6840   -1.1900   -1.7540 ha        1 CVI      0.150000
     33 H91        -2.3490    0.1480   -1.3370 ha        1 CVI      0.150000
     34 H101       -3.5790   -1.6930   -2.3780 ha        1 CVI      0.153000
     35 H121       -0.4740   -4.4750   -1.0370 ha        1 CVI      0.153000
     36 H131        0.7350   -2.6060   -0.0240 ha        1 CVI      0.150000
     37 H151       -2.4820   -0.0230    1.0820 ha        1 CVI      0.150000
     38 H161       -3.7160    1.8820    1.9930 ha        1 CVI      0.153000
     39 H181       -0.3490    4.4970    0.9940 ha        1 CVI      0.153000
     40 H191        0.8620    2.5640    0.1080 ha        1 CVI      0.150000
     41 H201        7.4510    0.3930    1.2540 h1        1 CVI      0.057033
     42 H202        6.0980    1.6070    1.3850 h1        1 CVI      0.057033
     43 H203        6.0410    0.0620    2.3620 h1        1 CVI      0.057033
     44 H211        6.1180   -1.9240   -0.7400 h1        1 CVI      0.057033
     45 H212        7.5110   -0.7800   -0.4640 h1        1 CVI      0.057033
     46 H213        6.2440   -0.3800   -1.7140 h1        1 CVI      0.057033
     47 H221       -3.9380   -3.3620   -3.9080 h1        1 CVI      0.057033
     48 H222       -4.4950   -5.0300   -3.4260 h1        1 CVI      0.057033
     49 H223       -4.8190   -3.6140   -2.3250 h1        1 CVI      0.057033
     50 H231       -2.9750   -6.3380   -2.8690 h1        1 CVI      0.057033
     51 H232       -1.2800   -5.6670   -2.8150 h1        1 CVI      0.057033
     52 H233       -2.1960   -5.9720   -1.2610 h1        1 CVI      0.057033
     53 H241       -4.5640    5.2650    2.9480 h1        1 CVI      0.057033
     54 H242       -4.1480    3.5710    3.4810 h1        1 CVI      0.057033
     55 H243       -4.8430    3.8640    1.8140 h1        1 CVI      0.057033
     56 H251       -2.9280    6.4910    2.5580 h1        1 CVI      0.057033
     57 H252       -1.2740    5.7340    2.6800 h1        1 CVI      0.057033
     58 H253       -2.0040    6.0810    1.0390 h1        1 CVI      0.057033
@<TRIPOS>BOND
     1    1    2 2   
     2    1    8 1   
     3    1   14 1   
     4    2    3 1   
     5    2    7 1   
     6    3    4 2   
     7    3   29 1   
     8    4    5 1   
     9    4   30 1   
    10    5    6 1   
    11    5   26 2   
    12    6    7 2   
    13    6   31 1   
    14    7   32 1   
    15    8    9 ar  
    16    8   13 ar  
    17    9   10 ar  
    18    9   33 1   
    19   10   11 ar  
    20   10   34 1   
    21   11   12 ar  
    22   11   27 1   
    23   12   13 ar  
    24   12   35 1   
    25   13   36 1   
    26   14   15 ar  
    27   14   19 ar  
    28   15   16 ar  
    29   15   37 1   
    30   16   17 ar  
    31   16   38 1   
    32   17   18 ar  
    33   17   28 1   
    34   18   19 ar  
    35   18   39 1   
    36   19   40 1   
    37   20   26 1   
    38   20   41 1   
    39   20   42 1   
    40   20   43 1   
    41   21   26 1   
    42   21   44 1   
    43   21   45 1   
    44   21   46 1   
    45   22   27 1   
    46   22   47 1   
    47   22   48 1   
    48   22   49 1   
    49   23   27 1   
    50   23   50 1   
    51   23   51 1   
    52   23   52 1   
    53   24   28 1   
    54   24   53 1   
    55   24   54 1   
    56   24   55 1   
    57   25   28 1   
    58   25   56 1   
    59   25   57 1   
    60   25   58 1   
@<TRIPOS>SUBSTRUCTURE
     1 CVI         1 TEMP              0 ****  ****    0 ROOT
