@<TRIPOS>MOLECULE
CVI
   58    60     1     0     0
SMALL
bcc


@<TRIPOS>ATOM
      1 C1          0.0000    0.0000   -0.0000 ce        1 CVI      0.306600
      2 C2          1.2510    0.6920   -0.0580 cd        1 CVI     -0.219000
      3 C3          2.3700    0.1340   -0.7250 cd        1 CVI     -0.009000
      4 C4          3.5740    0.7960   -0.7960 cc        1 CVI     -0.323600
      5 C5          3.7510    2.0730   -0.1740 cc        1 CVI      0.416900
      6 C6          2.6230    2.6270    0.5090 cc        1 CVI     -0.323600
      7 C7          1.4200    1.9600    0.5490 cd        1 CVI     -0.009000
      8 C8         -1.2240    0.7390    0.0620 ca        1 CVI     -0.230800
      9 C9         -2.3630    0.2230    0.7260 ca        1 CVI     -0.009000
     10 C10        -3.5400    0.9310    0.8010 ca        1 CVI     -0.237000
     11 C11        -3.6680    2.2160    0.1850 ca        1 CVI      0.270600
     12 C12        -2.5190    2.7300   -0.4960 ca        1 CVI     -0.237000
     13 C13        -1.3430    2.0160   -0.5390 ca        1 CVI     -0.009000
     14 C14        -0.0280   -1.4310   -0.0040 ca        1 CVI     -0.230800
     15 C15        -1.1150   -2.1440   -0.5650 ca        1 CVI     -0.009000
     16 C16        -1.1460   -3.5200   -0.5840 ca        1 CVI     -0.237000
     17 C17        -0.0830   -4.2890   -0.0110 ca        1 CVI      0.270600
     18 C18         1.0080   -3.5640    0.5660 ca        1 CVI     -0.237000
     19 C19         1.0310   -2.1880    0.5540 ca        1 CVI     -0.009000
     20 C20         6.0770    2.1500   -0.9060 c3        1 CVI      0.013600
     21 C21         5.1010    4.0260    0.3880 c3        1 CVI      0.013600
     22 C22        -5.9890    2.3800    0.9180 c3        1 CVI      0.191100
     23 C23        -4.9400    4.2230   -0.3670 c3        1 CVI      0.191100
     24 C24        -1.2260   -6.3660   -0.5830 c3        1 CVI      0.191100
     25 C25         0.9780   -6.4120    0.5510 c3        1 CVI      0.191100
     26 N1          4.9510    2.7350   -0.2300 nh        1 CVI     -0.267100
     27 N2         -4.8400    2.9240    0.2440 nh        1 CVI     -0.649000
     28 N3         -0.1100   -5.6590   -0.0140 nh        1 CVI     -0.649000
     29 H31         2.2600   -0.8410   -1.2310 ha        1 CVI      0.150000
     30 H41         4.4040    0.3300   -1.3490 ha        1 CVI      0.153000
     31 H61         2.7080    3.5990    1.0190 ha        1 CVI      0.153000
     32 H71         0.5740    2.4060    1.1000 ha        1 CVI      0.150000
     33 H91        -2.2910   -0.7590    1.2270 ha        1 CVI      0.150000
     34 H101       -4.3880    0.4940    1.3510 ha        1 CVI      0.153000
     35 H121       -2.5660    3.7070   -1.0010 ha        1 CVI      0.153000
     36 H131       -0.4800    2.4320   -1.0880 ha        1 CVI      0.150000
     37 H151       -1.9420   -1.5800   -1.0310 ha        1 CVI      0.150000
     38 H161       -2.0030   -4.0260   -1.0550 ha        1 CVI      0.153000
     39 H181        1.8450   -4.1060    1.0340 ha        1 CVI      0.153000
     40 H191        1.8790   -1.6590    1.0230 ha        1 CVI      0.150000
     41 H201        6.9710    2.8240   -0.8270 h1        1 CVI      0.057033
     42 H202        6.3360    1.1570   -0.4460 h1        1 CVI      0.057033
     43 H203        5.8410    1.9960   -1.9950 h1        1 CVI      0.057033
     44 H211        4.3660    4.7550   -0.0500 h1        1 CVI      0.057033
     45 H212        4.9220    3.9510    1.4960 h1        1 CVI      0.057033
     46 H213        6.1380    4.4190    0.2190 h1        1 CVI      0.057033
     47 H221       -5.7590    2.2110    2.0050 h1        1 CVI      0.057033
     48 H222       -6.8560    3.0880    0.8420 h1        1 CVI      0.057033
     49 H223       -6.2860    1.4010    0.4530 h1        1 CVI      0.057033
     50 H231       -4.7650    4.1470   -1.4750 h1        1 CVI      0.057033
     51 H232       -5.9610    4.6550   -0.1960 h1        1 CVI      0.057033
     52 H233       -4.1780    4.9210    0.0740 h1        1 CVI      0.057033
     53 H241       -2.1780   -6.0770   -0.0600 h1        1 CVI      0.057033
     54 H242       -1.3240   -6.1250   -1.6770 h1        1 CVI      0.057033
     55 H243       -1.0810   -7.4730   -0.4730 h1        1 CVI      0.057033
     56 H251        1.0850   -6.1800    1.6460 h1        1 CVI      0.057033
     57 H252        0.7900   -7.5120    0.4360 h1        1 CVI      0.057033
     58 H253        1.9410   -6.1570    0.0290 h1        1 CVI      0.057033
@<TRIPOS>BOND
     1    1    2 2   
     2    1    8 1   
     3    1   14 1   
     4    2    3 1   
     5    2    7 1   
     6    3    4 2   
     7    3   29 1   
     8    4    5 1   
     9    4   30 1   
    10    5    6 1   
    11    5   26 2   
    12    6    7 2   
    13    6   31 1   
    14    7   32 1   
    15    8    9 ar  
    16    8   13 ar  
    17    9   10 ar  
    18    9   33 1   
    19   10   11 ar  
    20   10   34 1   
    21   11   12 ar  
    22   11   27 1   
    23   12   13 ar  
    24   12   35 1   
    25   13   36 1   
    26   14   15 ar  
    27   14   19 ar  
    28   15   16 ar  
    29   15   37 1   
    30   16   17 ar  
    31   16   38 1   
    32   17   18 ar  
    33   17   28 1   
    34   18   19 ar  
    35   18   39 1   
    36   19   40 1   
    37   20   26 1   
    38   20   41 1   
    39   20   42 1   
    40   20   43 1   
    41   21   26 1   
    42   21   44 1   
    43   21   45 1   
    44   21   46 1   
    45   22   27 1   
    46   22   47 1   
    47   22   48 1   
    48   22   49 1   
    49   23   27 1   
    50   23   50 1   
    51   23   51 1   
    52   23   52 1   
    53   24   28 1   
    54   24   53 1   
    55   24   54 1   
    56   24   55 1   
    57   25   28 1   
    58   25   56 1   
    59   25   57 1   
    60   25   58 1   
@<TRIPOS>SUBSTRUCTURE
     1 CVI         1 TEMP              0 ****  ****    0 ROOT
