@<TRIPOS>MOLECULE
CVM
   73    75     1     0     0
SMALL
bcc


@<TRIPOS>ATOM
      1 C1         -0.1590   -0.0420    0.1120 c3        1 CVM      0.136400
      2 C2          1.3540   -0.1540    0.1000 c3        1 CVM     -0.085400
      3 C3          1.8960   -0.0860    1.5110 c3        1 CVM     -0.078400
      4 C4          3.4060   -0.2010    1.5160 c3        1 CVM     -0.075400
      5 C6          3.9880   -0.0980    2.9170 c3        1 CVM     -0.063700
      6 C7          5.4780    0.2090    2.8410 c3        1 CVM     -0.073400
      7 C8          6.0960    0.2970    4.2210 c3        1 CVM     -0.076400
      8 C9          5.8500   -0.9680    5.0180 c3        1 CVM     -0.076400
      9 C10         4.3720   -1.2890    5.0910 c3        1 CVM     -0.076400
     10 C11         3.7580   -1.3780    3.7090 c3        1 CVM     -0.073400
     11 O12        -0.5770   -0.1170   -1.2570 os        1 CVM     -0.423600
     12 C13        -1.9720   -0.0110   -1.4270 c3        1 CVM      0.307900
     13 O14        -2.4590   -1.2250   -0.8680 os        1 CVM     -0.446600
     14 C15        -3.8730   -1.3670   -1.0150 c3        1 CVM      0.107100
     15 C16        -4.2660   -1.4110   -2.5050 c3        1 CVM      0.126100
     16 C17        -3.7410   -0.1530   -3.2210 c3        1 CVM      0.121100
     17 C18        -2.2390    0.0330   -2.9420 c3        1 CVM      0.086100
     18 C19        -4.2300   -2.6720   -0.2970 c3        1 CVM      0.140400
     19 O20        -3.8030   -2.6430    1.0470 oh        1 CVM     -0.594800
     20 O21        -3.9300   -0.3400   -4.6140 oh        1 CVM     -0.605800
     21 O22        -1.8880    1.2990   -3.4720 oh        1 CVM     -0.604800
     22 O23        -5.6950   -1.4320   -2.5040 os        1 CVM     -0.431600
     23 C24        -6.2890   -1.8420   -3.7210 c3        1 CVM      0.336900
     24 O25        -6.1260   -3.2430   -3.8060 os        1 CVM     -0.449600
     25 C26        -6.7810   -4.0150   -2.7950 c3        1 CVM      0.102100
     26 C27        -8.2860   -3.7110   -2.7570 c3        1 CVM      0.126100
     27 C28        -8.4850   -2.2000   -2.5480 c3        1 CVM      0.066100
     28 C29        -7.7800   -1.4500   -3.6860 c3        1 CVM      0.098100
     29 C30        -6.5270   -5.4790   -3.1650 c3        1 CVM      0.140400
     30 O31        -5.1530   -5.7890   -3.1070 oh        1 CVM     -0.595800
     31 O32        -8.8350   -4.4430   -1.6760 oh        1 CVM     -0.592800
     32 O33        -9.8830   -1.9570   -2.5840 oh        1 CVM     -0.607800
     33 O34        -7.8620   -0.0500   -3.5020 oh        1 CVM     -0.576800
     34 H11C       -0.6260   -0.8830    0.6890 h1        1 CVM      0.038200
     35 H12C       -0.4920    0.9380    0.5470 h1        1 CVM      0.038200
     36 H21C        1.6510   -1.1210   -0.3830 hc        1 CVM      0.054700
     37 H22C        1.7850    0.6730   -0.5220 hc        1 CVM      0.054700
     38 H31C        1.5900    0.8840    1.9860 hc        1 CVM      0.042200
     39 H32C        1.4500   -0.9120    2.1250 hc        1 CVM      0.042200
     40 H41C        3.8360    0.6180    0.8780 hc        1 CVM      0.042200
     41 H42C        3.7110   -1.1760    1.0530 hc        1 CVM      0.042200
     42 H6          3.4810    0.7500    3.4590 hc        1 CVM      0.047700
     43 H71C        5.6330    1.1790    2.3000 hc        1 CVM      0.039450
     44 H72C        5.9910   -0.5940    2.2490 hc        1 CVM      0.039450
     45 H111        2.6570   -1.5700    3.8010 hc        1 CVM      0.039450
     46 H112        4.2060   -2.2440    3.1540 hc        1 CVM      0.039450
     47 H81C        7.1990    0.4730    4.1260 hc        1 CVM      0.038950
     48 H82C        5.6610    1.1730    4.7690 hc        1 CVM      0.038950
     49 H91C        6.2600   -0.8450    6.0540 hc        1 CVM      0.039200
     50 H92C        6.3950   -1.8230    4.5380 hc        1 CVM      0.039200
     51 H101        4.2240   -2.2620    5.6280 hc        1 CVM      0.038950
     52 H102        3.8460   -0.4940    5.6830 hc        1 CVM      0.038950
     53 H13        -2.4030    0.8790   -0.8920 h2        1 CVM      0.055700
     54 H18        -1.6490   -0.7790   -3.4520 h1        1 CVM      0.078700
     55 H15        -4.3890   -0.4990   -0.5160 h1        1 CVM      0.066700
     56 H16        -3.8660   -2.3340   -3.0050 h1        1 CVM      0.082700
     57 H191       -5.3480   -2.7710   -0.2510 h1        1 CVM      0.063700
     58 H192       -3.7820   -3.5470   -0.8370 h1        1 CVM      0.063700
     59 H17        -4.3140    0.7520   -2.8780 h1        1 CVM      0.070700
     60 H21        -3.5760    0.4480   -5.0470 ho        1 CVM      0.425000
     61 H22        -0.9410    1.4090   -3.3120 ho        1 CVM      0.424000
     62 H20        -2.8420   -2.5400    1.0370 ho        1 CVM      0.412000
     63 H24        -5.7670   -1.4270   -4.6290 h2        1 CVM      0.126700
     64 H29        -8.2360   -1.7440   -4.6730 h1        1 CVM      0.062700
     65 H26        -6.3190   -3.7780   -1.7970 h1        1 CVM      0.076700
     66 H27        -8.7790   -4.0270   -3.7180 h1        1 CVM      0.057700
     67 H301       -6.9340   -5.6920   -4.1890 h1        1 CVM      0.062200
     68 H302       -7.0200   -6.1400   -2.4030 h1        1 CVM      0.062200
     69 H28        -8.0520   -1.8860   -1.5580 h1        1 CVM      0.081700
     70 H32        -9.7570   -4.1630   -1.5990 ho        1 CVM      0.422000
     71 H33       -10.0290   -1.1120   -2.1420 ho        1 CVM      0.411000
     72 H34        -8.7790    0.1900   -3.6890 ho        1 CVM      0.404000
     73 H31        -4.7040   -5.2040   -3.7320 ho        1 CVM      0.410000
@<TRIPOS>BOND
     1    1    2 1   
     2    1   11 1   
     3    1   34 1   
     4    1   35 1   
     5    2    3 1   
     6    2   36 1   
     7    2   37 1   
     8    3    4 1   
     9    3   38 1   
    10    3   39 1   
    11    4    5 1   
    12    4   40 1   
    13    4   41 1   
    14    5    6 1   
    15    5   10 1   
    16    5   42 1   
    17    6    7 1   
    18    6   43 1   
    19    6   44 1   
    20    7    8 1   
    21    7   47 1   
    22    7   48 1   
    23    8    9 1   
    24    8   49 1   
    25    8   50 1   
    26    9   10 1   
    27    9   51 1   
    28    9   52 1   
    29   10   45 1   
    30   10   46 1   
    31   11   12 1   
    32   12   13 1   
    33   12   17 1   
    34   12   53 1   
    35   13   14 1   
    36   14   15 1   
    37   14   18 1   
    38   14   55 1   
    39   15   16 1   
    40   15   22 1   
    41   15   56 1   
    42   16   17 1   
    43   16   20 1   
    44   16   59 1   
    45   17   21 1   
    46   17   54 1   
    47   18   19 1   
    48   18   57 1   
    49   18   58 1   
    50   19   62 1   
    51   20   60 1   
    52   21   61 1   
    53   22   23 1   
    54   23   24 1   
    55   23   28 1   
    56   23   63 1   
    57   24   25 1   
    58   25   26 1   
    59   25   29 1   
    60   25   65 1   
    61   26   27 1   
    62   26   31 1   
    63   26   66 1   
    64   27   28 1   
    65   27   32 1   
    66   27   69 1   
    67   28   33 1   
    68   28   64 1   
    69   29   30 1   
    70   29   67 1   
    71   29   68 1   
    72   30   73 1   
    73   31   70 1   
    74   32   71 1   
    75   33   72 1   
@<TRIPOS>SUBSTRUCTURE
     1 CVM         1 TEMP              0 ****  ****    0 ROOT
