@<TRIPOS>MOLECULE
CVM
   73    75     1     0     0
SMALL
bcc


@<TRIPOS>ATOM
      1 C1         -0.1620   -0.0430    0.1170 c3        1 CVM      0.136400
      2 C2          1.3520   -0.1500    0.1020 c3        1 CVM     -0.085400
      3 C3          1.8960   -0.0850    1.5120 c3        1 CVM     -0.078400
      4 C4          3.4060   -0.1950    1.5140 c3        1 CVM     -0.075400
      5 C6          3.9900   -0.0940    2.9150 c3        1 CVM     -0.063700
      6 C7          5.4790    0.2170    2.8370 c3        1 CVM     -0.073400
      7 C8          6.0980    0.3030    4.2170 c3        1 CVM     -0.076400
      8 C9          5.8580   -0.9650    5.0100 c3        1 CVM     -0.076400
      9 C10         4.3810   -1.2910    5.0840 c3        1 CVM     -0.076400
     10 C11         3.7650   -1.3780    3.7030 c3        1 CVM     -0.073400
     11 O12        -0.5820   -0.1120   -1.2520 os        1 CVM     -0.423600
     12 C13        -1.9770   -0.0100   -1.4200 c3        1 CVM      0.307900
     13 O14        -2.4600   -1.2280   -0.8660 os        1 CVM     -0.446600
     14 C15        -3.8730   -1.3730   -1.0120 c3        1 CVM      0.107100
     15 C16        -4.2680   -1.4110   -2.5020 c3        1 CVM      0.126100
     16 C17        -3.7480   -0.1470   -3.2120 c3        1 CVM      0.121100
     17 C18        -2.2470    0.0410   -2.9340 c3        1 CVM      0.086100
     18 C19        -4.2260   -2.6830   -0.3010 c3        1 CVM      0.140400
     19 O20        -3.7970   -2.6610    1.0420 oh        1 CVM     -0.594800
     20 O21        -3.9390   -0.3280   -4.6060 oh        1 CVM     -0.605800
     21 O22        -1.8990    1.3110   -3.4580 oh        1 CVM     -0.604800
     22 O23        -5.6970   -1.4350   -2.4980 os        1 CVM     -0.431600
     23 C24        -6.2920   -1.8400   -3.7170 c3        1 CVM      0.336900
     24 O25        -6.1270   -3.2400   -3.8090 os        1 CVM     -0.449600
     25 C26        -6.7800   -4.0180   -2.8010 c3        1 CVM      0.102100
     26 C27        -8.2850   -3.7170   -2.7600 c3        1 CVM      0.126100
     27 C28        -8.4870   -2.2080   -2.5430 c3        1 CVM      0.066100
     28 C29        -7.7840   -1.4510   -3.6780 c3        1 CVM      0.098100
     29 C30        -6.5240   -5.4800   -3.1800 c3        1 CVM      0.140400
     30 O31        -5.1480   -5.7880   -3.1250 oh        1 CVM     -0.595800
     31 O32        -8.8310   -4.4560   -1.6820 oh        1 CVM     -0.592800
     32 O33        -9.8850   -1.9680   -2.5760 oh        1 CVM     -0.607800
     33 O34        -7.8680   -0.0520   -3.4860 oh        1 CVM     -0.576800
     34 H11C       -0.4980    0.9330    0.5570 h1        1 CVM      0.038200
     35 H12C       -0.6250   -0.8890    0.6890 h1        1 CVM      0.038200
     36 H21C        1.7790    0.6810   -0.5170 hc        1 CVM      0.054700
     37 H22C        1.6510   -1.1150   -0.3860 hc        1 CVM      0.054700
     38 H31C        1.5870    0.8810    1.9920 hc        1 CVM      0.042200
     39 H32C        1.4540   -0.9150    2.1240 hc        1 CVM      0.042200
     40 H41C        3.7140   -1.1670    1.0480 hc        1 CVM      0.042200
     41 H42C        3.8330    0.6270    0.8790 hc        1 CVM      0.042200
     42 H6          3.4810    0.7500    3.4600 hc        1 CVM      0.047700
     43 H71C        5.9940   -0.5820    2.2420 hc        1 CVM      0.039450
     44 H72C        5.6300    1.1900    2.2990 hc        1 CVM      0.039450
     45 H111        2.6660   -1.5740    3.7960 hc        1 CVM      0.039450
     46 H112        4.2160   -2.2400    3.1450 hc        1 CVM      0.039450
     47 H81C        7.2010    0.4830    4.1200 hc        1 CVM      0.038950
     48 H82C        5.6610    1.1770    4.7680 hc        1 CVM      0.038950
     49 H91C        6.4050   -1.8170    4.5270 hc        1 CVM      0.039200
     50 H92C        6.2690   -0.8440    6.0460 hc        1 CVM      0.039200
     51 H101        4.2380   -2.2660    5.6190 hc        1 CVM      0.038950
     52 H102        3.8530   -0.5000    5.6800 hc        1 CVM      0.038950
     53 H13        -2.4100    0.8760   -0.8790 h2        1 CVM      0.055700
     54 H18        -1.6550   -0.7660   -3.4490 h1        1 CVM      0.078700
     55 H15        -4.3910   -0.5100   -0.5080 h1        1 CVM      0.066700
     56 H16        -3.8670   -2.3290   -3.0080 h1        1 CVM      0.082700
     57 H191       -3.7760   -3.5540   -0.8470 h1        1 CVM      0.063700
     58 H192       -5.3430   -2.7860   -0.2540 h1        1 CVM      0.063700
     59 H17        -4.3230    0.7550   -2.8630 h1        1 CVM      0.070700
     60 H21        -3.5880    0.4640   -5.0350 ho        1 CVM      0.425000
     61 H22        -0.9530    1.4230   -3.2990 ho        1 CVM      0.424000
     62 H20        -2.8360   -2.5550    1.0320 ho        1 CVM      0.412000
     63 H24        -5.7730   -1.4200   -4.6230 h2        1 CVM      0.126700
     64 H29        -8.2410   -1.7400   -4.6660 h1        1 CVM      0.062700
     65 H26        -6.3160   -3.7860   -1.8030 h1        1 CVM      0.076700
     66 H27        -8.7790   -4.0290   -3.7220 h1        1 CVM      0.057700
     67 H301       -6.9310   -5.6880   -4.2040 h1        1 CVM      0.062200
     68 H302       -7.0140   -6.1460   -2.4200 h1        1 CVM      0.062200
     69 H28        -8.0520   -1.8990   -1.5520 h1        1 CVM      0.081700
     70 H32        -9.7540   -4.1780   -1.6030 ho        1 CVM      0.422000
     71 H33       -10.0310   -1.1250   -2.1300 ho        1 CVM      0.411000
     72 H34        -8.7860    0.1870   -3.6710 ho        1 CVM      0.404000
     73 H31        -4.7020   -5.1990   -3.7480 ho        1 CVM      0.410000
@<TRIPOS>BOND
     1    1    2 1   
     2    1   11 1   
     3    1   34 1   
     4    1   35 1   
     5    2    3 1   
     6    2   36 1   
     7    2   37 1   
     8    3    4 1   
     9    3   38 1   
    10    3   39 1   
    11    4    5 1   
    12    4   40 1   
    13    4   41 1   
    14    5    6 1   
    15    5   10 1   
    16    5   42 1   
    17    6    7 1   
    18    6   43 1   
    19    6   44 1   
    20    7    8 1   
    21    7   47 1   
    22    7   48 1   
    23    8    9 1   
    24    8   49 1   
    25    8   50 1   
    26    9   10 1   
    27    9   51 1   
    28    9   52 1   
    29   10   45 1   
    30   10   46 1   
    31   11   12 1   
    32   12   13 1   
    33   12   17 1   
    34   12   53 1   
    35   13   14 1   
    36   14   15 1   
    37   14   18 1   
    38   14   55 1   
    39   15   16 1   
    40   15   22 1   
    41   15   56 1   
    42   16   17 1   
    43   16   20 1   
    44   16   59 1   
    45   17   21 1   
    46   17   54 1   
    47   18   19 1   
    48   18   57 1   
    49   18   58 1   
    50   19   62 1   
    51   20   60 1   
    52   21   61 1   
    53   22   23 1   
    54   23   24 1   
    55   23   28 1   
    56   23   63 1   
    57   24   25 1   
    58   25   26 1   
    59   25   29 1   
    60   25   65 1   
    61   26   27 1   
    62   26   31 1   
    63   26   66 1   
    64   27   28 1   
    65   27   32 1   
    66   27   69 1   
    67   28   33 1   
    68   28   64 1   
    69   29   30 1   
    70   29   67 1   
    71   29   68 1   
    72   30   73 1   
    73   31   70 1   
    74   32   71 1   
    75   33   72 1   
@<TRIPOS>SUBSTRUCTURE
     1 CVM         1 TEMP              0 ****  ****    0 ROOT
