@<TRIPOS>MOLECULE
CVM
   73    75     1     0     0
SMALL
bcc


@<TRIPOS>ATOM
      1 C1         -2.9120    0.8950   -0.3570 c3        1 CVM      0.136400
      2 C2         -4.1920    1.0020    0.4520 c3        1 CVM     -0.085400
      3 C3         -5.3320    0.3260   -0.2790 c3        1 CVM     -0.078400
      4 C4         -6.6150    0.4210    0.5180 c3        1 CVM     -0.075400
      5 C6         -7.7920   -0.2160   -0.2060 c3        1 CVM     -0.063700
      6 C7         -9.1010    0.2660    0.4050 c3        1 CVM     -0.073400
      7 C8        -10.2960   -0.3660   -0.2790 c3        1 CVM     -0.076400
      8 C9        -10.2140   -1.8790   -0.2470 c3        1 CVM     -0.076400
      9 C10        -8.9110   -2.3680   -0.8430 c3        1 CVM     -0.076400
     10 C11        -7.7180   -1.7360   -0.1550 c3        1 CVM     -0.073400
     11 O12        -1.8980    1.5590    0.4090 os        1 CVM     -0.423600
     12 C13        -0.6350    1.5680   -0.2140 c3        1 CVM      0.306900
     13 O14        -0.2410    0.2010   -0.1690 os        1 CVM     -0.444600
     14 C15         1.0800   -0.0070   -0.6660 c3        1 CVM      0.107100
     15 C16         2.1060    0.7490    0.1990 c3        1 CVM      0.128100
     16 C17         1.7530    2.2480    0.2200 c3        1 CVM      0.121100
     17 C18         0.2910    2.4340    0.6590 c3        1 CVM      0.086100
     18 C19         1.3040   -1.5230   -0.6180 c3        1 CVM      0.140400
     19 O20         0.3080   -2.2020   -1.3500 oh        1 CVM     -0.592800
     20 O21         2.6110    2.8800    1.1540 oh        1 CVM     -0.604800
     21 O22        -0.0060    3.8080    0.4860 oh        1 CVM     -0.603800
     22 O23         3.3690    0.5410   -0.4360 os        1 CVM     -0.458600
     23 C24         4.5000    0.7550    0.3960 c3        1 CVM      0.302900
     24 O25         4.5340   -0.2950    1.3330 os        1 CVM     -0.441600
     25 C26         4.7850   -1.6020    0.8060 c3        1 CVM      0.098100
     26 C27         6.1060   -1.6260    0.0240 c3        1 CVM      0.129100
     27 C28         6.0310   -0.5910   -1.1090 c3        1 CVM      0.073100
     28 C29         5.7300    0.7980   -0.5300 c3        1 CVM      0.095100
     29 C30         4.8430   -2.5310    2.0210 c3        1 CVM      0.140400
     30 O31         3.5970   -2.5810    2.6810 oh        1 CVM     -0.596800
     31 O32         6.2590   -2.9330   -0.4970 oh        1 CVM     -0.594800
     32 O33         7.2900   -0.6100   -1.7620 oh        1 CVM     -0.605800
     33 O34         5.5660    1.7380   -1.5700 oh        1 CVM     -0.590800
     34 H11C       -2.6160   -0.1750   -0.5140 h1        1 CVM      0.038700
     35 H12C       -3.0140    1.4030   -1.3520 h1        1 CVM      0.038700
     36 H21C       -4.0370    0.5250    1.4550 hc        1 CVM      0.055200
     37 H22C       -4.4310    2.0820    0.6310 hc        1 CVM      0.055200
     38 H31C       -5.4740    0.8070   -1.2830 hc        1 CVM      0.042700
     39 H32C       -5.0750   -0.7510   -0.4610 hc        1 CVM      0.042700
     40 H41C       -6.4770   -0.0730    1.5150 hc        1 CVM      0.042200
     41 H42C       -6.8450    1.5020    0.7120 hc        1 CVM      0.042200
     42 H6         -7.7680    0.1040   -1.2860 hc        1 CVM      0.047700
     43 H71C       -9.1150    0.0120    1.4980 hc        1 CVM      0.039450
     44 H72C       -9.1680    1.3810    0.3170 hc        1 CVM      0.039450
     45 H111       -6.7740   -2.0830   -0.6500 hc        1 CVM      0.039450
     46 H112       -7.6820   -2.0700    0.9150 hc        1 CVM      0.039450
     47 H81C      -11.2370   -0.0300    0.2280 hc        1 CVM      0.038950
     48 H82C      -10.3430   -0.0180   -1.3440 hc        1 CVM      0.038950
     49 H91C      -10.2980   -2.2350    0.8130 hc        1 CVM      0.039200
     50 H92C      -11.0760   -2.3140   -0.8180 hc        1 CVM      0.039200
     51 H101       -8.8490   -3.4830   -0.7460 hc        1 CVM      0.038950
     52 H102       -8.8840   -2.1230   -1.9370 hc        1 CVM      0.038950
     53 H13        -0.6840    1.9350   -1.2770 h2        1 CVM      0.054700
     54 H18         0.1710    2.1430    1.7390 h1        1 CVM      0.079700
     55 H15         1.1410    0.3560   -1.7300 h1        1 CVM      0.062700
     56 H16         2.1300    0.3440    1.2470 h1        1 CVM      0.087700
     57 H191        2.2710   -1.7670   -1.1340 h1        1 CVM      0.065200
     58 H192        1.3280   -1.8770    0.4460 h1        1 CVM      0.065200
     59 H17         1.9090    2.6970   -0.8000 h1        1 CVM      0.062700
     60 H21         2.3340    3.8060    1.2010 ho        1 CVM      0.427000
     61 H22        -0.9190    3.9300    0.7800 ho        1 CVM      0.426000
     62 H20        -0.5390   -2.0060   -0.9280 ho        1 CVM      0.412000
     63 H24         4.4050    1.6940    1.0130 h2        1 CVM      0.126700
     64 H29         6.6160    1.1710    0.0590 h1        1 CVM      0.102700
     65 H26         3.9330   -1.8940    0.1320 h1        1 CVM      0.074700
     66 H27         6.9720   -1.3830    0.7010 h1        1 CVM      0.059700
     67 H301        5.0440   -3.5790    1.6710 h1        1 CVM      0.064700
     68 H302        5.6480   -2.1930    2.7260 h1        1 CVM      0.064700
     69 H28         5.2260   -0.8810   -1.8420 h1        1 CVM      0.062700
     70 H32         7.0200   -2.9020   -1.0930 ho        1 CVM      0.426000
     71 H33         7.3120    0.1630   -2.3440 ho        1 CVM      0.424000
     72 H34         4.7210    1.5490   -2.0030 ho        1 CVM      0.419000
     73 H31         3.3970   -1.6830    2.9750 ho        1 CVM      0.408000
@<TRIPOS>BOND
     1    1    2 1   
     2    1   11 1   
     3    1   34 1   
     4    1   35 1   
     5    2    3 1   
     6    2   36 1   
     7    2   37 1   
     8    3    4 1   
     9    3   38 1   
    10    3   39 1   
    11    4    5 1   
    12    4   40 1   
    13    4   41 1   
    14    5    6 1   
    15    5   10 1   
    16    5   42 1   
    17    6    7 1   
    18    6   43 1   
    19    6   44 1   
    20    7    8 1   
    21    7   47 1   
    22    7   48 1   
    23    8    9 1   
    24    8   49 1   
    25    8   50 1   
    26    9   10 1   
    27    9   51 1   
    28    9   52 1   
    29   10   45 1   
    30   10   46 1   
    31   11   12 1   
    32   12   13 1   
    33   12   17 1   
    34   12   53 1   
    35   13   14 1   
    36   14   15 1   
    37   14   18 1   
    38   14   55 1   
    39   15   16 1   
    40   15   22 1   
    41   15   56 1   
    42   16   17 1   
    43   16   20 1   
    44   16   59 1   
    45   17   21 1   
    46   17   54 1   
    47   18   19 1   
    48   18   57 1   
    49   18   58 1   
    50   19   62 1   
    51   20   60 1   
    52   21   61 1   
    53   22   23 1   
    54   23   24 1   
    55   23   28 1   
    56   23   63 1   
    57   24   25 1   
    58   25   26 1   
    59   25   29 1   
    60   25   65 1   
    61   26   27 1   
    62   26   31 1   
    63   26   66 1   
    64   27   28 1   
    65   27   32 1   
    66   27   69 1   
    67   28   33 1   
    68   28   64 1   
    69   29   30 1   
    70   29   67 1   
    71   29   68 1   
    72   30   73 1   
    73   31   70 1   
    74   32   71 1   
    75   33   72 1   
@<TRIPOS>SUBSTRUCTURE
     1 CVM         1 TEMP              0 ****  ****    0 ROOT
