@<TRIPOS>MOLECULE
CVM
   73    75     1     0     0
SMALL
bcc


@<TRIPOS>ATOM
      1 C1          2.1060    0.2610    0.8310 c3        1 CVM      0.136400
      2 C2          3.5680    0.5680    0.6070 c3        1 CVM     -0.085400
      3 C3          4.0300    1.6100    1.6480 c3        1 CVM     -0.078400
      4 C4          5.5270    2.0230    1.3580 c3        1 CVM     -0.075400
      5 C6          6.0220    2.9990    2.4690 c3        1 CVM     -0.063700
      6 C7          6.3390    4.3500    1.8340 c3        1 CVM     -0.072900
      7 C8          6.9870    5.3250    2.8210 c3        1 CVM     -0.076400
      8 C9          8.1880    4.7270    3.5270 c3        1 CVM     -0.076400
      9 C10         7.8720    3.3760    4.1660 c3        1 CVM     -0.076400
     10 C11         7.2180    2.3940    3.1700 c3        1 CVM     -0.072900
     11 O12         1.5230   -0.2730   -0.3870 os        1 CVM     -0.422600
     12 C13         0.0830   -0.3510   -0.3580 c3        1 CVM      0.305900
     13 O14        -0.3150   -1.6870    0.0860 os        1 CVM     -0.444600
     14 C15        -1.7780   -1.9170   -0.0140 c3        1 CVM      0.089100
     15 C16        -2.3220   -1.5880   -1.3770 c3        1 CVM      0.130100
     16 C17        -1.9240   -0.2340   -1.8280 c3        1 CVM      0.135100
     17 C18        -0.4490   -0.0130   -1.7210 c3        1 CVM      0.087100
     18 C19        -2.0650   -3.3580    0.2890 c3        1 CVM      0.121400
     19 O20        -1.0680   -3.8670    1.1040 oh        1 CVM     -0.597800
     20 O21        -2.3240   -0.0650   -3.2100 oh        1 CVM     -0.599800
     21 O22        -0.1630    1.3720   -2.0020 oh        1 CVM     -0.602800
     22 O23        -3.7830   -1.6610   -1.3290 os        1 CVM     -0.448600
     23 C24        -4.2390   -2.6200   -2.2270 c3        1 CVM      0.300900
     24 O25        -5.0890   -3.5830   -1.5040 os        1 CVM     -0.436600
     25 C26        -6.3590   -2.9970   -1.0500 c3        1 CVM      0.070100
     26 C27        -7.1100   -2.3000   -2.1680 c3        1 CVM      0.087100
     27 C28        -6.2600   -1.3220   -2.8960 c3        1 CVM      0.077100
     28 C29        -4.9810   -1.9210   -3.3520 c3        1 CVM      0.099100
     29 C30        -7.2270   -4.0890   -0.4830 c3        1 CVM      0.136400
     30 O31        -8.1720   -3.5240    0.4290 oh        1 CVM     -0.598800
     31 O32        -8.2520   -1.6090   -1.6080 oh        1 CVM     -0.575800
     32 O33        -6.9920   -0.8320   -4.0550 oh        1 CVM     -0.568800
     33 O34        -4.1370   -0.8710   -3.8870 oh        1 CVM     -0.576800
     34 H11C        1.6320    1.0930    1.0880 h1        1 CVM      0.038200
     35 H12C        2.0210   -0.3810    1.5310 h1        1 CVM      0.038200
     36 H21C        3.6920    0.9230   -0.2800 hc        1 CVM      0.055200
     37 H22C        4.1190   -0.2910    0.7130 hc        1 CVM      0.055200
     38 H31C        3.4450    2.4190    1.5900 hc        1 CVM      0.042200
     39 H32C        3.9660    1.2310    2.5290 hc        1 CVM      0.042200
     40 H41C        6.0740    1.2470    1.3490 hc        1 CVM      0.042200
     41 H42C        5.5760    2.4520    0.5220 hc        1 CVM      0.042200
     42 H6          5.2900    3.1230    3.1400 hc        1 CVM      0.048700
     43 H71C        6.9780    4.2030    1.0470 hc        1 CVM      0.039450
     44 H72C        5.5090    4.7430    1.4980 hc        1 CVM      0.039450
     45 H111        6.9360    1.6090    3.6460 hc        1 CVM      0.039450
     46 H112        7.9010    2.1280    2.4760 hc        1 CVM      0.039450
     47 H81C        6.3180    5.5810    3.4960 hc        1 CVM      0.039200
     48 H82C        7.2660    6.1110    2.3450 hc        1 CVM      0.039200
     49 H91C        8.4980    5.3760    4.2560 hc        1 CVM      0.039200
     50 H92C        8.8980    4.6120    2.8920 hc        1 CVM      0.039200
     51 H101        7.2630    3.5170    4.9180 hc        1 CVM      0.039200
     52 H102        8.7070    2.9790    4.5030 hc        1 CVM      0.039200
     53 H13        -0.2620    0.3180    0.2960 h2        1 CVM      0.054700
     54 H18         0.0200   -0.5930   -2.4090 h1        1 CVM      0.078700
     55 H15        -2.2440   -1.3430    0.6690 h1        1 CVM      0.070700
     56 H16        -1.9860   -2.2570   -2.0280 h1        1 CVM      0.077700
     57 H191       -2.9410   -3.4320    0.7530 h1        1 CVM      0.071700
     58 H192       -2.0960   -3.8810   -0.5680 h1        1 CVM      0.071700
     59 H17        -2.3920    0.4430   -1.2710 h1        1 CVM      0.066700
     60 H21        -1.6450    0.2820   -3.6760 ho        1 CVM      0.428000
     61 H22         0.3890    1.4270   -2.6930 ho        1 CVM      0.427000
     62 H20        -1.2230   -4.7460    1.2550 ho        1 CVM      0.410000
     63 H24        -3.4580   -3.1040   -2.6080 h2        1 CVM      0.095700
     64 H29        -5.1760   -2.5960   -4.0890 h1        1 CVM      0.086700
     65 H26        -6.1670   -2.3360   -0.3330 h1        1 CVM      0.071700
     66 H27        -7.4340   -2.9890   -2.8150 h1        1 CVM      0.083700
     67 H301       -6.6530   -4.7520   -0.0000 h1        1 CVM      0.065700
     68 H302       -7.7120   -4.5460   -1.2260 h1        1 CVM      0.065700
     69 H28        -6.0640   -0.5660   -2.3010 h1        1 CVM      0.091700
     70 H32        -8.0120   -1.2030   -0.8590 ho        1 CVM      0.409000
     71 H33        -7.6230   -1.3590   -4.2290 ho        1 CVM      0.405000
     72 H34        -4.0240   -1.0000   -4.7850 ho        1 CVM      0.430000
     73 H31        -7.8390   -2.7630    0.7720 ho        1 CVM      0.419000
@<TRIPOS>BOND
     1    1    2 1   
     2    1   11 1   
     3    1   34 1   
     4    1   35 1   
     5    2    3 1   
     6    2   36 1   
     7    2   37 1   
     8    3    4 1   
     9    3   38 1   
    10    3   39 1   
    11    4    5 1   
    12    4   40 1   
    13    4   41 1   
    14    5    6 1   
    15    5   10 1   
    16    5   42 1   
    17    6    7 1   
    18    6   43 1   
    19    6   44 1   
    20    7    8 1   
    21    7   47 1   
    22    7   48 1   
    23    8    9 1   
    24    8   49 1   
    25    8   50 1   
    26    9   10 1   
    27    9   51 1   
    28    9   52 1   
    29   10   45 1   
    30   10   46 1   
    31   11   12 1   
    32   12   13 1   
    33   12   17 1   
    34   12   53 1   
    35   13   14 1   
    36   14   15 1   
    37   14   18 1   
    38   14   55 1   
    39   15   16 1   
    40   15   22 1   
    41   15   56 1   
    42   16   17 1   
    43   16   20 1   
    44   16   59 1   
    45   17   21 1   
    46   17   54 1   
    47   18   19 1   
    48   18   57 1   
    49   18   58 1   
    50   19   62 1   
    51   20   60 1   
    52   21   61 1   
    53   22   23 1   
    54   23   24 1   
    55   23   28 1   
    56   23   63 1   
    57   24   25 1   
    58   25   26 1   
    59   25   29 1   
    60   25   65 1   
    61   26   27 1   
    62   26   31 1   
    63   26   66 1   
    64   27   28 1   
    65   27   32 1   
    66   27   69 1   
    67   28   33 1   
    68   28   64 1   
    69   29   30 1   
    70   29   67 1   
    71   29   68 1   
    72   30   73 1   
    73   31   70 1   
    74   32   71 1   
    75   33   72 1   
@<TRIPOS>SUBSTRUCTURE
     1 CVM         1 TEMP              0 ****  ****    0 ROOT
