@<TRIPOS>MOLECULE
CVU
   23    22     1     0     0
SMALL
bcc


@<TRIPOS>ATOM
      1 C1         -0.1440    0.2720   -0.1700 c3        1 CVU      0.035400
      2 O1          1.2080    0.6130   -0.3800 oh        1 CVU     -0.586800
      3 C2         -0.4850    0.0850    1.2830 c         1 CVU      0.518100
      4 O2          0.3830   -0.0240    2.1550 o         1 CVU     -0.534100
      5 C3         -1.9580    0.0130    1.6370 c3        1 CVU      0.015100
      6 O3         -2.1830    0.4420    2.9660 oh        1 CVU     -0.582800
      7 C4         -2.4910   -1.4260    1.4510 c3        1 CVU      0.127100
      8 O4         -2.2070   -1.9030    0.1530 oh        1 CVU     -0.598800
      9 C5         -4.0010   -1.4580    1.7540 c3        1 CVU      0.107100
     10 O5         -4.6270   -0.8180    0.6450 oh        1 CVU     -0.620800
     11 C6         -4.4910   -2.8820    1.9200 c3        1 CVU     -0.131100
     12 H1         -0.7350    1.1210   -0.6090 h1        1 CVU      0.081700
     13 HC1        -0.3950   -0.6840   -0.7140 h1        1 CVU      0.081700
     14 HO1         1.7430    0.0900    0.2320 ho        1 CVU      0.419000
     15 H3         -2.5580    0.7200    0.9970 h1        1 CVU      0.106700
     16 HO3        -1.4880    0.0570    3.5210 ho        1 CVU      0.420000
     17 H4         -1.9510   -2.1260    2.1480 h1        1 CVU      0.084700
     18 HO4        -2.8450   -1.5020   -0.4550 ho        1 CVU      0.425000
     19 H5         -4.1990   -0.8560    2.6860 h1        1 CVU      0.068700
     20 HO5        -5.5770   -0.9430    0.7450 ho        1 CVU      0.416000
     21 H61        -4.2330   -3.4830    1.0150 hc        1 CVU      0.050033
     22 H62        -5.5990   -2.8980    2.0590 hc        1 CVU      0.050033
     23 H63        -4.0120   -3.3500    2.8120 hc        1 CVU      0.050033
@<TRIPOS>BOND
     1    1    2 1   
     2    1    3 1   
     3    1   12 1   
     4    1   13 1   
     5    2   14 1   
     6    3    4 2   
     7    3    5 1   
     8    5    6 1   
     9    5    7 1   
    10    5   15 1   
    11    6   16 1   
    12    7    8 1   
    13    7    9 1   
    14    7   17 1   
    15    8   18 1   
    16    9   10 1   
    17    9   11 1   
    18    9   19 1   
    19   10   20 1   
    20   11   21 1   
    21   11   22 1   
    22   11   23 1   
@<TRIPOS>SUBSTRUCTURE
     1 CVU         1 TEMP              0 ****  ****    0 ROOT
