@<TRIPOS>MOLECULE
CVU
   24    23     1     0     0
SMALL
bcc


@<TRIPOS>ATOM
      1 C5         -1.1010   -0.2130   -1.3250 c3        1 CVU      0.146100
      2 C4         -0.6420   -0.1120    0.1110 c3        1 CVU      0.132100
      3 O4         -0.6320   -1.3950    0.6910 oh        1 CVU     -0.602800
      4 C3          0.7510    0.4710    0.1550 c3        1 CVU      0.022100
      5 O3          0.7020    1.8320   -0.2020 oh        1 CVU     -0.602800
      6 O2          0.5950    0.5380    2.5150 o         1 CVU     -0.551100
      7 C2          1.3100    0.3380    1.5540 c         1 CVU      0.542100
      8 O5         -0.7770   -1.4850   -1.8340 oh        1 CVU     -0.621800
      9 C1          2.7600   -0.0440    1.7560 c3        1 CVU      0.045400
     10 O1          3.1220    0.1800    3.1000 oh        1 CVU     -0.588800
     11 C6         -2.5980   -0.0100   -1.3910 c3        1 CVU      0.100400
     12 H61        -2.8320    0.8380   -0.9600 h1        1 CVU      0.052200
     13 H62        -3.0480   -0.7470   -0.9290 h1        1 CVU      0.052200
     14 O6         -3.0090    0.0210   -2.7400 oh        1 CVU     -0.620800
     15 HO6        -3.8970    0.0640   -2.7790 ho        1 CVU      0.413000
     16 HO3         1.4900    2.0820   -0.5300 ho        1 CVU      0.436000
     17 HO5        -0.5550   -1.4130   -2.6920 ho        1 CVU      0.432000
     18 HO1         3.9970    0.0560    3.1960 ho        1 CVU      0.416000
     19 H5         -0.6550    0.4750   -1.8590 h1        1 CVU      0.056700
     20 HO4        -1.2610   -1.4420    1.3180 ho        1 CVU      0.431000
     21 H1          2.8820   -0.9910    1.5380 h1        1 CVU      0.084200
     22 H4         -1.2530    0.4660    0.6090 h1        1 CVU      0.050700
     23 H3          1.3260   -0.0090   -0.4730 h1        1 CVU      0.093700
     24 HC1         3.3260    0.5010    1.1700 h1        1 CVU      0.084200
@<TRIPOS>BOND
     1    1    2 1   
     2    1    8 1   
     3    1   11 1   
     4    1   19 1   
     5    2    3 1   
     6    2    4 1   
     7    2   22 1   
     8    3   20 1   
     9    4    5 1   
    10    4    7 1   
    11    4   23 1   
    12    5   16 1   
    13    6    7 2   
    14    7    9 1   
    15    8   17 1   
    16    9   10 1   
    17    9   21 1   
    18    9   24 1   
    19   10   18 1   
    20   11   12 1   
    21   11   13 1   
    22   11   14 1   
    23   14   15 1   
@<TRIPOS>SUBSTRUCTURE
     1 CVU         1 TEMP              0 ****  ****    0 ROOT
