@<TRIPOS>MOLECULE
CVU
   23    22     1     0     0
SMALL
bcc


@<TRIPOS>ATOM
      1 C1         -0.0910    0.1880   -0.1590 c3        1 CVU      0.035400
      2 O1          1.2700    0.5060   -0.3470 oh        1 CVU     -0.586800
      3 C2         -0.4730    0.0680    1.2910 c         1 CVU      0.518100
      4 O2          0.3710   -0.0130    2.1910 o         1 CVU     -0.534100
      5 C3         -1.9550    0.0260    1.6070 c3        1 CVU      0.015100
      6 O3         -2.2110    0.5140    2.9100 oh        1 CVU     -0.582800
      7 C4         -2.5000   -1.4140    1.4690 c3        1 CVU      0.127100
      8 O4         -2.1860   -1.9490    0.2000 oh        1 CVU     -0.598800
      9 C5         -4.0170   -1.4170    1.7320 c3        1 CVU      0.107100
     10 O5         -4.6060   -0.8190    0.5800 oh        1 CVU     -0.620800
     11 C6         -4.5280   -2.8280    1.9450 c3        1 CVU     -0.131100
     12 H1         -0.3370   -0.7880   -0.6670 h1        1 CVU      0.081700
     13 HC1        -0.6590    1.0230   -0.6500 h1        1 CVU      0.081700
     14 HO1         1.7830    0.0050    0.3030 ho        1 CVU      0.419000
     15 H3         -2.5300    0.7110    0.9220 h1        1 CVU      0.106700
     16 HO3        -1.5360    0.1470    3.4990 ho        1 CVU      0.420000
     17 H4         -1.9870   -2.0890    2.2090 h1        1 CVU      0.084700
     18 HO4        -2.8030   -1.5680   -0.4410 ho        1 CVU      0.425000
     19 H5         -4.2330   -0.7730    2.6310 h1        1 CVU      0.068700
     20 HO5        -5.5600   -0.9300    0.6590 ho        1 CVU      0.416000
     21 H61        -4.0780   -3.2620    2.8690 hc        1 CVU      0.050033
     22 H62        -5.6390   -2.8260    2.0540 hc        1 CVU      0.050033
     23 H63        -4.2530   -3.4700    1.0730 hc        1 CVU      0.050033
@<TRIPOS>BOND
     1    1    2 1   
     2    1    3 1   
     3    1   12 1   
     4    1   13 1   
     5    2   14 1   
     6    3    4 2   
     7    3    5 1   
     8    5    6 1   
     9    5    7 1   
    10    5   15 1   
    11    6   16 1   
    12    7    8 1   
    13    7    9 1   
    14    7   17 1   
    15    8   18 1   
    16    9   10 1   
    17    9   11 1   
    18    9   19 1   
    19   10   20 1   
    20   11   21 1   
    21   11   22 1   
    22   11   23 1   
@<TRIPOS>SUBSTRUCTURE
     1 CVU         1 TEMP              0 ****  ****    0 ROOT
