@<TRIPOS>MOLECULE
CVU
   24    23     1     0     0
SMALL
bcc


@<TRIPOS>ATOM
      1 C5         -1.8230   -0.1170    0.1190 c3        1 CVU      0.112100
      2 C4         -0.4200    0.2750   -0.3740 c3        1 CVU      0.123100
      3 O4         -0.1380    1.6350   -0.1170 oh        1 CVU     -0.600800
      4 C3          0.6320   -0.6420    0.2900 c3        1 CVU      0.016100
      5 O3          0.3830   -1.9900   -0.0590 oh        1 CVU     -0.580800
      6 C2          2.0330   -0.2240   -0.1110 c         1 CVU      0.518100
      7 O5         -1.9220    0.3580    1.4540 oh        1 CVU     -0.620800
      8 C1          2.6710    0.8760    0.6930 c3        1 CVU      0.035400
      9 O1          4.0540    1.0060    0.4510 oh        1 CVU     -0.585800
     10 C6         -2.8910    0.5280   -0.7690 c3        1 CVU      0.093400
     11 H61        -2.7150    1.6350   -0.8370 h1        1 CVU      0.042700
     12 H62        -2.8660    0.0760   -1.7960 h1        1 CVU      0.042700
     13 O6         -4.1370    0.2600   -0.1460 oh        1 CVU     -0.612800
     14 HO6        -4.8070    0.7430   -0.6430 ho        1 CVU      0.414000
     15 HO3         0.7450   -2.1360   -0.9460 ho        1 CVU      0.420000
     16 HO5        -2.8440    0.2470    1.7230 ho        1 CVU      0.436000
     17 HO1         4.2010    0.8820   -0.4970 ho        1 CVU      0.419000
     18 H5         -1.9310   -1.2380    0.1100 h1        1 CVU      0.080700
     19 HO4        -0.4110    1.8250    0.7930 ho        1 CVU      0.427000
     20 H1          2.1390    1.8400    0.4500 h1        1 CVU      0.081200
     21 H4         -0.3650    0.1680   -1.4930 h1        1 CVU      0.083700
     22 H3          0.5080   -0.6040    1.4100 h1        1 CVU      0.108700
     23 HC1         2.5830    0.6640    1.7930 h1        1 CVU      0.081200
     24 O2          2.6050   -0.7580   -1.0670 o         1 CVU     -0.534100
@<TRIPOS>BOND
     1    1    2 1   
     2    1    7 1   
     3    1   10 1   
     4    1   18 1   
     5    2    3 1   
     6    2    4 1   
     7    2   21 1   
     8    3   19 1   
     9    4    5 1   
    10    4    6 1   
    11    4   22 1   
    12    5   15 1   
    13    6    8 1   
    14    6   24 2   
    15    7   16 1   
    16    8    9 1   
    17    8   20 1   
    18    8   23 1   
    19    9   17 1   
    20   10   11 1   
    21   10   12 1   
    22   10   13 1   
    23   13   14 1   
@<TRIPOS>SUBSTRUCTURE
     1 CVU         1 TEMP              0 ****  ****    0 ROOT
