@<TRIPOS>MOLECULE
CVX
   21    20     1     0     0
SMALL
bcc


@<TRIPOS>ATOM
      1 C5          4.6580   -0.2240    0.1750 c3        1 CVX     -0.087100
      2 C4          3.3360    0.4450   -0.1020 c3        1 CVX     -0.081400
      3 C3          2.1730   -0.4860    0.1590 c3        1 CVX     -0.083400
      4 C2          0.8490    0.2050   -0.1260 c3        1 CVX      0.170400
      5 O3         -0.2020   -0.6760    0.1230 os        1 CVX     -0.587200
      6 P          -1.6750    0.0590   -0.1820 p5        1 CVX      1.337600
      7 C1         -2.6990   -1.2270    0.2030 c3        1 CVX     -0.363300
      8 O2         -1.6930    0.3320   -1.6390 o         1 CVX     -0.868500
      9 OX0        -1.7950    1.1480    0.8170 o         1 CVX     -0.868500
     10 H51C        5.5030    0.4790   -0.0240 hc        1 CVX      0.020700
     11 H52C        4.7170   -0.5530    1.2410 hc        1 CVX      0.020700
     12 H53C        4.7880   -1.1230   -0.4750 hc        1 CVX      0.020700
     13 H41C        3.2340    1.3580    0.5410 hc        1 CVX      0.035700
     14 H42C        3.3050    0.7890   -1.1700 hc        1 CVX      0.035700
     15 H31C        2.2570   -1.3990   -0.4850 hc        1 CVX      0.035700
     16 H32C        2.1860   -0.8310    1.2250 hc        1 CVX      0.035700
     17 H21C        0.7250    1.1110    0.5320 h1        1 CVX      0.026700
     18 H22C        0.7970    0.5350   -1.2020 h1        1 CVX      0.026700
     19 H11C       -2.1200   -2.1220    0.5240 hc        1 CVX      0.057700
     20 H12C       -3.3860   -0.9540    1.0330 hc        1 CVX      0.057700
     21 H13C       -3.3150   -1.5220   -0.6750 hc        1 CVX      0.057700
@<TRIPOS>BOND
     1    1    2 1   
     2    1   10 1   
     3    1   11 1   
     4    1   12 1   
     5    2    3 1   
     6    2   13 1   
     7    2   14 1   
     8    3    4 1   
     9    3   15 1   
    10    3   16 1   
    11    4    5 1   
    12    4   17 1   
    13    4   18 1   
    14    5    6 1   
    15    6    7 1   
    16    6    8 1   
    17    6    9 1   
    18    7   19 1   
    19    7   20 1   
    20    7   21 1   
@<TRIPOS>SUBSTRUCTURE
     1 CVX         1 TEMP              0 ****  ****    0 ROOT
