@<TRIPOS>MOLECULE
CVX
   21    20     1     0     0
SMALL
bcc


@<TRIPOS>ATOM
      1 C5          0.0910   -0.0850   -0.0260 c3        1 CVX     -0.087100
      2 C4          1.5930   -0.0220    0.0810 c3        1 CVX     -0.081400
      3 C3          2.0520   -0.0220    1.5220 c3        1 CVX     -0.083400
      4 C2          3.5690    0.0420    1.6090 c3        1 CVX      0.170400
      5 O3          3.9610    0.0410    2.9470 os        1 CVX     -0.587200
      6 P           5.6290    0.1110    3.0740 p5        1 CVX      1.337600
      7 C1          5.7680    0.0950    4.7560 c3        1 CVX     -0.363300
      8 O2          6.0180    1.4320    2.5240 o         1 CVX     -0.868500
      9 OX0         6.1300   -1.1560    2.4890 o         1 CVX     -0.868500
     10 H51C       -0.3760    0.7930    0.4810 hc        1 CVX      0.020700
     11 H52C       -0.2980   -1.0140    0.4560 hc        1 CVX      0.020700
     12 H53C       -0.2270   -0.0840   -1.0970 hc        1 CVX      0.020700
     13 H41C        2.0460   -0.8980   -0.4550 hc        1 CVX      0.035700
     14 H42C        1.9680    0.9040   -0.4300 hc        1 CVX      0.035700
     15 H31C        1.6920   -0.9470    2.0410 hc        1 CVX      0.035700
     16 H32C        1.6150    0.8550    2.0660 hc        1 CVX      0.035700
     17 H21C        3.9550    0.9810    1.1200 h1        1 CVX      0.026700
     18 H22C        4.0340   -0.8460    1.0950 h1        1 CVX      0.026700
     19 H11C        6.3540   -0.7870    5.0980 hc        1 CVX      0.057700
     20 H12C        4.7690    0.0450    5.2440 hc        1 CVX      0.057700
     21 H13C        6.2760    1.0130    5.1230 hc        1 CVX      0.057700
@<TRIPOS>BOND
     1    1    2 1   
     2    1   10 1   
     3    1   11 1   
     4    1   12 1   
     5    2    3 1   
     6    2   13 1   
     7    2   14 1   
     8    3    4 1   
     9    3   15 1   
    10    3   16 1   
    11    4    5 1   
    12    4   17 1   
    13    4   18 1   
    14    5    6 1   
    15    6    7 1   
    16    6    8 1   
    17    6    9 1   
    18    7   19 1   
    19    7   20 1   
    20    7   21 1   
@<TRIPOS>SUBSTRUCTURE
     1 CVX         1 TEMP              0 ****  ****    0 ROOT
