@<TRIPOS>MOLECULE
CVX
   21    20     1     0     0
SMALL
bcc


@<TRIPOS>ATOM
      1 C5         -3.1670   -0.0050   -1.8210 c3        1 CVX     -0.087100
      2 C4         -1.6540   -0.0050   -1.8210 c3        1 CVX     -0.081400
      3 C3         -1.1490   -0.0050   -0.3950 c3        1 CVX     -0.083400
      4 C2          0.3630   -0.0180   -0.3950 c3        1 CVX      0.170400
      5 O3          0.8330    0.0120    0.9330 os        1 CVX     -0.587200
      6 P           2.3930   -0.0360    1.1810 p5        1 CVX      1.337600
      7 C1          2.7260    0.0730    2.9620 c3        1 CVX     -0.363300
      8 O2          3.0510    1.1260    0.4740 o         1 CVX     -0.868500
      9 OX0         2.9500   -1.3320    0.6430 o         1 CVX     -0.868500
     10 H51C       -3.4920   -0.0010   -2.7420 hc        1 CVX      0.020700
     11 H52C       -3.4920   -0.8030   -1.3640 hc        1 CVX      0.020700
     12 H53C       -3.4920    0.7910   -1.3580 hc        1 CVX      0.020700
     13 H41C       -1.3280    0.7920   -2.2810 hc        1 CVX      0.035700
     14 H42C       -1.3280   -0.8020   -2.2810 hc        1 CVX      0.035700
     15 H31C       -1.4680    0.7960    0.0630 hc        1 CVX      0.035700
     16 H32C       -1.4820   -0.7980    0.0680 hc        1 CVX      0.035700
     17 H21C        0.6820   -0.8290   -0.8350 h1        1 CVX      0.026700
     18 H22C        0.6950    0.7650   -0.8750 h1        1 CVX      0.026700
     19 H11C        2.3630    0.9090    3.3110 hc        1 CVX      0.057700
     20 H12C        3.6900    0.0490    3.1150 hc        1 CVX      0.057700
     21 H13C        2.3050   -0.6800    3.4190 hc        1 CVX      0.057700
@<TRIPOS>BOND
     1    1    2 1   
     2    1   10 1   
     3    1   11 1   
     4    1   12 1   
     5    2    3 1   
     6    2   13 1   
     7    2   14 1   
     8    3    4 1   
     9    3   15 1   
    10    3   16 1   
    11    4    5 1   
    12    4   17 1   
    13    4   18 1   
    14    5    6 1   
    15    6    7 1   
    16    6    8 1   
    17    6    9 1   
    18    7   19 1   
    19    7   20 1   
    20    7   21 1   
@<TRIPOS>SUBSTRUCTURE
     1 CVX         1 TEMP              0 ****  ****    0 ROOT
