@<TRIPOS>MOLECULE
CVX
   21    20     1     0     0
SMALL
bcc


@<TRIPOS>ATOM
      1 C5          0.0920   -0.1150   -0.0250 c3        1 CVX     -0.087100
      2 C4          1.5930   -0.0370    0.0810 c3        1 CVX     -0.081400
      3 C3          2.0530   -0.0330    1.5220 c3        1 CVX     -0.083400
      4 C2          3.5690    0.0460    1.6090 c3        1 CVX      0.170400
      5 O3          3.9610    0.0480    2.9470 os        1 CVX     -0.587200
      6 P           5.6290    0.1360    3.0730 p5        1 CVX      1.337600
      7 C1          5.7680    0.1190    4.7550 c3        1 CVX     -0.363300
      8 O2          6.0030    1.4610    2.5240 o         1 CVX     -0.868500
      9 OX0         6.1420   -1.1260    2.4870 o         1 CVX     -0.868500
     10 H51C       -0.3840    0.7590    0.4830 hc        1 CVX      0.020700
     11 H52C       -0.2890   -1.0480    0.4580 hc        1 CVX      0.020700
     12 H53C       -0.2270   -0.1170   -1.0950 hc        1 CVX      0.020700
     13 H41C        2.0540   -0.9090   -0.4540 hc        1 CVX      0.035700
     14 H42C        1.9590    0.8920   -0.4290 hc        1 CVX      0.035700
     15 H31C        1.7020   -0.9620    2.0420 hc        1 CVX      0.035700
     16 H32C        1.6070    0.8390    2.0670 hc        1 CVX      0.035700
     17 H21C        3.9450    0.9890    1.1200 h1        1 CVX      0.026700
     18 H22C        4.0420   -0.8380    1.0940 h1        1 CVX      0.026700
     19 H11C        6.3660   -0.7540    5.0960 hc        1 CVX      0.057700
     20 H12C        4.7700    0.0560    5.2440 hc        1 CVX      0.057700
     21 H13C        6.2640    1.0450    5.1220 hc        1 CVX      0.057700
@<TRIPOS>BOND
     1    1    2 1   
     2    1   10 1   
     3    1   11 1   
     4    1   12 1   
     5    2    3 1   
     6    2   13 1   
     7    2   14 1   
     8    3    4 1   
     9    3   15 1   
    10    3   16 1   
    11    4    5 1   
    12    4   17 1   
    13    4   18 1   
    14    5    6 1   
    15    6    7 1   
    16    6    8 1   
    17    6    9 1   
    18    7   19 1   
    19    7   20 1   
    20    7   21 1   
@<TRIPOS>SUBSTRUCTURE
     1 CVX         1 TEMP              0 ****  ****    0 ROOT
