@<TRIPOS>MOLECULE
CWB
   47    44     1     0     0
SMALL
bcc


@<TRIPOS>ATOM
      1 O13        -2.5570    0.0370    0.6150 o         1 CWB     -0.378000
      2 C12        -1.3380    0.0370    0.6150 c1        1 CWB      0.385000
      3 C14        -0.5680    0.0370    1.9510 c1        1 CWB     -0.147000
      4 C23        -1.2980    0.0230    3.1380 c1        1 CWB     -0.089000
      5 C22        -2.6870   -0.0070    3.3950 c1        1 CWB     -0.112500
      6 C21        -3.1520   -0.0150    4.7050 c1        1 CWB     -0.112500
      7 C20        -2.2510    0.0050    5.7620 c1        1 CWB     -0.112500
      8 C19        -0.8850    0.0350    5.5090 c1        1 CWB     -0.112500
      9 C18        -0.4120    0.0430    4.1770 c1        1 CWB     -0.015000
     10 N16         0.8580    0.0700    3.6500 n1        1 CWB     -0.145000
     11 C17         2.1300    0.0900    4.3260 c2        1 CWB     -0.052000
     12 N15         0.7510    0.0660    2.2710 n2        1 CWB     -0.023000
     13 N11        -0.6100    0.0910   -0.6480 n3        1 CWB     -0.371000
     14 C09        -1.3910    0.1490   -1.9910 c3        1 CWB      0.030000
     15 C10        -1.1890   -1.0290   -2.6660 c3        1 CWB     -0.162000
     16 C03         0.1330   -1.2050   -3.1560 c3        1 CWB     -0.019000
     17 C08        -0.9460    1.3460   -2.7480 c3        1 CWB     -0.162000
     18 C07         0.5540    1.2850   -3.2310 c3        1 CWB     -0.019000
     19 N02         0.6250   -0.0750   -3.9430 n3        1 CWB     -0.240000
     20 C01         1.9870   -0.3330   -4.3640 c3        1 CWB     -0.118000
     21 C06         1.4280    1.3220   -2.1420 c3        1 CWB     -0.186000
     22 C05         2.1960   -0.1990   -1.9660 c3        1 CWB     -0.155000
     23 C04         1.0680   -1.3920   -1.9650 c3        1 CWB     -0.186000
     24 H11         0.3000    0.1560   -0.6460 hn        1 CWB      0.240000
     25 H22        -3.3200   -0.0210    2.6520 ha        1 CWB      0.144000
     26 H21        -4.1110   -0.0360    4.8830 ha        1 CWB      0.144000
     27 H20        -2.5770   -0.0000    6.6820 ha        1 CWB      0.144000
     28 H19        -0.2510    0.0490    6.2520 ha        1 CWB      0.144000
     29 H171        2.2200   -0.7130    4.8740 ha        1 CWB      0.097333
     30 H172        2.1830    0.8810    4.8960 ha        1 CWB      0.097333
     31 H173        2.8490    0.1150    3.6660 ha        1 CWB      0.097333
     32 H09        -2.3430    0.2380   -1.7970 h1        1 CWB      0.126000
     33 H101       -1.8060   -1.0620   -3.4220 hc        1 CWB      0.095000
     34 H102       -1.3960   -1.7690   -2.0650 hc        1 CWB      0.095000
     35 H081       -1.0560    2.1310   -2.1780 hc        1 CWB      0.095000
     36 H082       -1.5200    1.4480   -3.5310 hc        1 CWB      0.095000
     37 H03         0.1590   -2.0090   -3.7090 h1        1 CWB      0.094000
     38 H041        1.5110   -2.2600   -2.0320 hc        1 CWB      0.082500
     39 H042        0.5530   -1.3530   -1.1360 hc        1 CWB      0.082500
     40 H07         0.7450    2.0110   -3.8550 h1        1 CWB      0.094000
     41 H061        0.9280    1.5290   -1.3300 hc        1 CWB      0.082500
     42 H062        2.1040    2.0110   -2.2920 hc        1 CWB      0.082500
     43 H011        2.5600    0.4050   -4.0790 h1        1 CWB      0.071333
     44 H012        2.3010   -1.1640   -3.9590 h1        1 CWB      0.071333
     45 H013        2.0180   -0.4120   -5.3360 h1        1 CWB      0.071333
     46 H051        2.6890   -0.2180   -1.1240 hc        1 CWB      0.077500
     47 H052        2.8150   -0.3380   -2.7080 hc        1 CWB      0.077500
@<TRIPOS>BOND
     1    1    2 1   
     2    2   13 1   
     3    3    4 1   
     4    3   12 1   
     5    4    9 1   
     6    5    6 1   
     7    5   25 1   
     8    6   26 1   
     9    7    8 1   
    10    7   27 1   
    11    8   28 1   
    12   10   12 1   
    13   11   29 1   
    14   11   30 1   
    15   11   31 1   
    16   13   14 1   
    17   13   24 1   
    18   14   15 1   
    19   14   17 1   
    20   14   32 1   
    21   15   16 1   
    22   15   33 1   
    23   15   34 1   
    24   16   19 1   
    25   16   23 1   
    26   16   37 1   
    27   17   18 1   
    28   17   35 1   
    29   17   36 1   
    30   18   19 1   
    31   18   21 1   
    32   18   40 1   
    33   19   20 1   
    34   20   43 1   
    35   20   44 1   
    36   20   45 1   
    37   21   22 1   
    38   21   41 1   
    39   21   42 1   
    40   22   23 1   
    41   22   46 1   
    42   22   47 1   
    43   23   38 1   
    44   23   39 1   
@<TRIPOS>SUBSTRUCTURE
     1 CWB         1 TEMP              0 ****  ****    0 ROOT
