@<TRIPOS>MOLECULE
CWB
   48    51     1     0     0
SMALL
bcc


@<TRIPOS>ATOM
      1 O13         0.0500   -0.1970   -0.1130 o         1 CWB     -0.437100
      2 C12         1.2180    0.1290    0.0620 c         1 CWB      0.520800
      3 C14         1.9400    0.1690    1.3130 cc        1 CWB      0.190900
      4 C23         1.3820   -0.2000    2.6040 ca        1 CWB     -0.133900
      5 C22         0.1510   -0.6600    3.0740 ca        1 CWB     -0.082000
      6 C21         0.0230   -0.9030    4.4330 ca        1 CWB     -0.105000
      7 C20         1.0960   -0.6990    5.3250 ca        1 CWB     -0.090000
      8 C19         2.3320   -0.2440    4.8940 ca        1 CWB     -0.107000
      9 C18         2.4760    0.0090    3.5210 ca        1 CWB     -0.084200
     10 N16         3.5700    0.4670    2.7400 na        1 CWB      0.178900
     11 C17         4.8600    0.8380    3.2930 c3        1 CWB      0.022600
     12 N15         3.2520    0.5620    1.4670 nd        1 CWB     -0.479100
     13 N11         2.0160    0.5500   -1.1550 ny        1 CWB     -0.676800
     14 C09         1.2600    0.4760   -2.4600 c3        1 CWB      0.142500
     15 C10         1.0950   -0.9660   -2.9490 c3        1 CWB     -0.096900
     16 C03         2.2930   -1.5080   -3.7460 c3        1 CWB      0.171500
     17 C08         1.9170    1.3590   -3.5250 c3        1 CWB     -0.096900
     18 C07         3.0820    0.6770   -4.2650 c3        1 CWB      0.171500
     19 N02         2.6150   -0.5850   -4.8320 n3        1 CWB     -0.714600
     20 C01         3.4640   -1.1360   -5.8630 c3        1 CWB      0.153100
     21 C06         4.3200    0.5560   -3.3590 c3        1 CWB     -0.121400
     22 C05         4.6160   -0.8390   -2.8400 c3        1 CWB     -0.097400
     23 C04         3.4790   -1.8440   -2.8260 c3        1 CWB     -0.121400
     24 H11         2.3290    1.5180   -1.0090 hn        1 CWB      0.463800
     25 H22        -0.6860   -0.8190    2.3760 ha        1 CWB      0.165000
     26 H21        -0.9380   -1.2660    4.8330 ha        1 CWB      0.160000
     27 H20         0.9430   -0.9080    6.3970 ha        1 CWB      0.160000
     28 H19         3.1630   -0.0860    5.5960 ha        1 CWB      0.157000
     29 H171        5.6700    0.7140    2.5270 h1        1 CWB      0.083700
     30 H172        4.8220    1.9090    3.6300 h1        1 CWB      0.083700
     31 H173        5.0640    0.1700    4.1720 h1        1 CWB      0.083700
     32 H09         0.2290    0.8910   -2.2310 hx        1 CWB      0.109700
     33 H101        0.1930   -0.9670   -3.6220 hc        1 CWB      0.083700
     34 H102        0.8710   -1.6570   -2.0950 hc        1 CWB      0.083700
     35 H081        2.2710    2.3330   -3.0990 hc        1 CWB      0.083700
     36 H082        1.1110    1.5990   -4.2740 hc        1 CWB      0.083700
     37 H03         1.9450   -2.4760   -4.2220 h1        1 CWB      0.088200
     38 H041        3.8960   -2.8360   -3.1520 hc        1 CWB      0.047950
     39 H042        3.1090   -2.0070   -1.7800 hc        1 CWB      0.047950
     40 H07         3.3520    1.3560   -5.1300 h1        1 CWB      0.088200
     41 H061        5.2130    0.8970   -3.9520 hc        1 CWB      0.047950
     42 H062        4.2360    1.2790   -2.5070 hc        1 CWB      0.047950
     43 H011        2.9640   -2.0480   -6.2840 h1        1 CWB      0.048033
     44 H012        4.4880   -1.4210   -5.4970 h1        1 CWB      0.048033
     45 H013        3.5710   -0.3750   -6.6800 h1        1 CWB      0.048033
     46 H051        5.4440   -1.2690   -3.4710 hc        1 CWB      0.056200
     47 H052        5.0390   -0.7550   -1.8020 hc        1 CWB      0.056200
     48 H112        2.8540   -0.0440   -1.2220 hn        1 CWB      0.463800
@<TRIPOS>BOND
     1    1    2 2   
     2    2    3 1   
     3    2   13 1   
     4    3    4 1   
     5    3   12 2   
     6    4    5 ar  
     7    4    9 ar  
     8    5    6 ar  
     9    5   25 1   
    10    6    7 ar  
    11    6   26 1   
    12    7    8 ar  
    13    7   27 1   
    14    8    9 ar  
    15    8   28 1   
    16    9   10 1   
    17   10   11 1   
    18   10   12 1   
    19   11   29 1   
    20   11   30 1   
    21   11   31 1   
    22   13   14 1   
    23   13   24 1   
    24   13   48 1   
    25   14   15 1   
    26   14   17 1   
    27   14   32 1   
    28   15   16 1   
    29   15   33 1   
    30   15   34 1   
    31   16   19 1   
    32   16   23 1   
    33   16   37 1   
    34   17   18 1   
    35   17   35 1   
    36   17   36 1   
    37   18   19 1   
    38   18   21 1   
    39   18   40 1   
    40   19   20 1   
    41   20   43 1   
    42   20   44 1   
    43   20   45 1   
    44   21   22 1   
    45   21   41 1   
    46   21   42 1   
    47   22   23 1   
    48   22   46 1   
    49   22   47 1   
    50   23   38 1   
    51   23   39 1   
@<TRIPOS>SUBSTRUCTURE
     1 CWB         1 TEMP              0 ****  ****    0 ROOT
