@<TRIPOS>MOLECULE
CWB
   48    51     1     0     0
SMALL
bcc


@<TRIPOS>ATOM
      1 O13         0.0510   -0.2010   -0.1090 o         1 CWB     -0.437100
      2 C12         1.2180    0.1270    0.0640 c         1 CWB      0.520800
      3 C14         1.9430    0.1660    1.3140 cc        1 CWB      0.190900
      4 C23         1.3880   -0.2070    2.6050 ca        1 CWB     -0.133900
      5 C22         0.1590   -0.6700    3.0770 ca        1 CWB     -0.082000
      6 C21         0.0340   -0.9170    4.4350 ca        1 CWB     -0.105000
      7 C20         1.1080   -0.7120    5.3270 ca        1 CWB     -0.090000
      8 C19         2.3420   -0.2530    4.8940 ca        1 CWB     -0.107000
      9 C18         2.4830    0.0030    3.5210 ca        1 CWB     -0.084200
     10 N16         3.5750    0.4650    2.7400 na        1 CWB      0.178900
     11 C17         4.8640    0.8370    3.2910 c3        1 CWB      0.022600
     12 N15         3.2540    0.5620    1.4670 nd        1 CWB     -0.479100
     13 N11         2.0140    0.5530   -1.1520 n4        1 CWB     -0.676800
     14 C09         1.2560    0.4790   -2.4570 c3        1 CWB      0.142500
     15 C10         1.0940   -0.9620   -2.9480 c3        1 CWB     -0.096900
     16 C03         2.2920   -1.5000   -3.7490 c3        1 CWB      0.171500
     17 C08         1.9090    1.3660   -3.5210 c3        1 CWB     -0.096900
     18 C07         3.0740    0.6890   -4.2640 c3        1 CWB      0.171500
     19 N02         2.6100   -0.5730   -4.8340 n3        1 CWB     -0.714600
     20 C01         3.4580   -1.1200   -5.8660 c3        1 CWB      0.153100
     21 C06         4.3140    0.5690   -3.3610 c3        1 CWB     -0.121400
     22 C05         4.6150   -0.8260   -2.8450 c3        1 CWB     -0.097400
     23 C04         3.4800   -1.8340   -2.8320 c3        1 CWB     -0.121400
     24 H11         2.8530   -0.0400   -1.2230 hn        1 CWB      0.463800
     25 H22        -0.6790   -0.8300    2.3800 ha        1 CWB      0.165000
     26 H21        -0.9260   -1.2830    4.8370 ha        1 CWB      0.160000
     27 H20         0.9570   -0.9230    6.3980 ha        1 CWB      0.160000
     28 H19         3.1740   -0.0950    5.5950 ha        1 CWB      0.157000
     29 H171        5.0710    0.1680    4.1690 h1        1 CWB      0.083700
     30 H172        4.8260    1.9080    3.6300 h1        1 CWB      0.083700
     31 H173        5.6740    0.7160    2.5240 h1        1 CWB      0.083700
     32 H09         0.2240    0.8920   -2.2250 hx        1 CWB      0.109700
     33 H101        0.1900   -0.9630   -3.6190 hc        1 CWB      0.083700
     34 H102        0.8730   -1.6550   -2.0960 hc        1 CWB      0.083700
     35 H081        1.1010    1.6060   -4.2680 hc        1 CWB      0.083700
     36 H082        2.2610    2.3400   -3.0930 hc        1 CWB      0.083700
     37 H03         1.9450   -2.4670   -4.2260 h1        1 CWB      0.088200
     38 H041        3.1120   -2.0000   -1.7850 hc        1 CWB      0.047950
     39 H042        3.8980   -2.8250   -3.1600 hc        1 CWB      0.047950
     40 H07         3.3420    1.3710   -5.1280 h1        1 CWB      0.088200
     41 H061        4.2300    1.2900   -2.5060 hc        1 CWB      0.047950
     42 H062        5.2050    0.9130   -3.9540 hc        1 CWB      0.047950
     43 H011        4.4830   -1.4030   -5.5030 h1        1 CWB      0.048033
     44 H012        2.9600   -2.0320   -6.2890 h1        1 CWB      0.048033
     45 H013        3.5620   -0.3560   -6.6820 h1        1 CWB      0.048033
     46 H051        5.4420   -1.2530   -3.4790 hc        1 CWB      0.056200
     47 H052        5.0390   -0.7440   -1.8080 hc        1 CWB      0.056200
     48 H112        2.3240    1.5210   -1.0050 hn        1 CWB      0.463800
@<TRIPOS>BOND
     1    1    2 2   
     2    2    3 1   
     3    2   13 1   
     4    3    4 1   
     5    3   12 2   
     6    4    5 ar  
     7    4    9 ar  
     8    5    6 ar  
     9    5   25 1   
    10    6    7 ar  
    11    6   26 1   
    12    7    8 ar  
    13    7   27 1   
    14    8    9 ar  
    15    8   28 1   
    16    9   10 1   
    17   10   11 1   
    18   10   12 1   
    19   11   29 1   
    20   11   30 1   
    21   11   31 1   
    22   13   14 1   
    23   13   24 1   
    24   13   48 1   
    25   14   15 1   
    26   14   17 1   
    27   14   32 1   
    28   15   16 1   
    29   15   33 1   
    30   15   34 1   
    31   16   19 1   
    32   16   23 1   
    33   16   37 1   
    34   17   18 1   
    35   17   35 1   
    36   17   36 1   
    37   18   19 1   
    38   18   21 1   
    39   18   40 1   
    40   19   20 1   
    41   20   43 1   
    42   20   44 1   
    43   20   45 1   
    44   21   22 1   
    45   21   41 1   
    46   21   42 1   
    47   22   23 1   
    48   22   46 1   
    49   22   47 1   
    50   23   38 1   
    51   23   39 1   
@<TRIPOS>SUBSTRUCTURE
     1 CWB         1 TEMP              0 ****  ****    0 ROOT
