@<TRIPOS>MOLECULE
CWB
   48    51     1     0     0
SMALL
bcc


@<TRIPOS>ATOM
      1 O13         0.0510   -0.1550   -0.1080 o         1 CWB     -0.437100
      2 C12         1.2250    0.1490    0.0660 c         1 CWB      0.520800
      3 C14         1.9500    0.1700    1.3160 cc        1 CWB      0.190900
      4 C23         1.3890   -0.1960    2.6060 ca        1 CWB     -0.133900
      5 C22         0.1500   -0.6370    3.0760 ca        1 CWB     -0.082000
      6 C21         0.0210   -0.8860    4.4330 ca        1 CWB     -0.105000
      7 C20         1.0990   -0.7050    5.3250 ca        1 CWB     -0.090000
      8 C19         2.3420   -0.2690    4.8940 ca        1 CWB     -0.107000
      9 C18         2.4880   -0.0110    3.5220 ca        1 CWB     -0.084200
     10 N16         3.5880    0.4320    2.7410 na        1 CWB      0.178900
     11 C17         4.8850    0.7770    3.2940 c3        1 CWB      0.022600
     12 N15         3.2690    0.5390    1.4690 nd        1 CWB     -0.479100
     13 N11         2.0280    0.5630   -1.1500 n4        1 CWB     -0.676800
     14 C09         1.2690    0.5080   -2.4540 c3        1 CWB      0.142500
     15 C10         1.0780   -0.9290   -2.9500 c3        1 CWB     -0.096900
     16 C03         2.2650   -1.4880   -3.7520 c3        1 CWB      0.171500
     17 C08         1.9400    1.3840   -3.5170 c3        1 CWB     -0.096900
     18 C07         3.0910    0.6860   -4.2610 c3        1 CWB      0.171500
     19 N02         2.6020   -0.5660   -4.8340 n3        1 CWB     -0.714600
     20 C01         3.4390   -1.1270   -5.8680 c3        1 CWB      0.153100
     21 C06         4.3280    0.5380   -3.3590 c3        1 CWB     -0.121400
     22 C05         4.6010   -0.8640   -2.8460 c3        1 CWB     -0.097400
     23 C04         3.4460   -1.8490   -2.8350 c3        1 CWB     -0.121400
     24 H11         2.3580    1.5240   -1.0000 hn        1 CWB      0.463800
     25 H22        -0.6900   -0.7780    2.3790 ha        1 CWB      0.165000
     26 H21        -0.9450   -1.2340    4.8340 ha        1 CWB      0.160000
     27 H20         0.9440   -0.9170    6.3960 ha        1 CWB      0.160000
     28 H19         3.1770   -0.1290    5.5950 ha        1 CWB      0.157000
     29 H171        5.6920    0.6440    2.5260 h1        1 CWB      0.083700
     30 H172        4.8670    1.8470    3.6370 h1        1 CWB      0.083700
     31 H173        5.0790    0.1010    4.1680 h1        1 CWB      0.083700
     32 H09         0.2460    0.9400   -2.2220 hx        1 CWB      0.109700
     33 H101        0.8440   -1.6200   -2.0990 hc        1 CWB      0.083700
     34 H102        0.1750   -0.9110   -3.6210 hc        1 CWB      0.083700
     35 H081        2.3120    2.3500   -3.0860 hc        1 CWB      0.083700
     36 H082        1.1370    1.6420   -4.2630 hc        1 CWB      0.083700
     37 H03         1.8990   -2.4470   -4.2310 h1        1 CWB      0.088200
     38 H041        3.0750   -2.0100   -1.7890 hc        1 CWB      0.047950
     39 H042        3.8450   -2.8470   -3.1660 hc        1 CWB      0.047950
     40 H07         3.3720    1.3640   -5.1230 h1        1 CWB      0.088200
     41 H061        4.2590    1.2580   -2.5020 hc        1 CWB      0.047950
     42 H062        5.2260    0.8660   -3.9510 hc        1 CWB      0.047950
     43 H011        3.5580   -0.3640   -6.6820 h1        1 CWB      0.048033
     44 H012        4.4580   -1.4320   -5.5060 h1        1 CWB      0.048033
     45 H013        2.9220   -2.0280   -6.2930 h1        1 CWB      0.048033
     46 H051        5.4200   -1.3060   -3.4810 hc        1 CWB      0.056200
     47 H052        5.0280   -0.7930   -1.8090 hc        1 CWB      0.056200
     48 H112        2.8560   -0.0460   -1.2220 hn        1 CWB      0.463800
@<TRIPOS>BOND
     1    1    2 2   
     2    2    3 1   
     3    2   13 1   
     4    3    4 1   
     5    3   12 2   
     6    4    5 ar  
     7    4    9 ar  
     8    5    6 ar  
     9    5   25 1   
    10    6    7 ar  
    11    6   26 1   
    12    7    8 ar  
    13    7   27 1   
    14    8    9 ar  
    15    8   28 1   
    16    9   10 1   
    17   10   11 1   
    18   10   12 1   
    19   11   29 1   
    20   11   30 1   
    21   11   31 1   
    22   13   14 1   
    23   13   24 1   
    24   13   48 1   
    25   14   15 1   
    26   14   17 1   
    27   14   32 1   
    28   15   16 1   
    29   15   33 1   
    30   15   34 1   
    31   16   19 1   
    32   16   23 1   
    33   16   37 1   
    34   17   18 1   
    35   17   35 1   
    36   17   36 1   
    37   18   19 1   
    38   18   21 1   
    39   18   40 1   
    40   19   20 1   
    41   20   43 1   
    42   20   44 1   
    43   20   45 1   
    44   21   22 1   
    45   21   41 1   
    46   21   42 1   
    47   22   23 1   
    48   22   46 1   
    49   22   47 1   
    50   23   38 1   
    51   23   39 1   
@<TRIPOS>SUBSTRUCTURE
     1 CWB         1 TEMP              0 ****  ****    0 ROOT
