@<TRIPOS>MOLECULE
CWB
   47    50     1     0     0
SMALL
bcc


@<TRIPOS>ATOM
      1 O13         0.8120   -2.3280    0.0580 o         1 CWB     -0.617100
      2 C12         0.5710   -1.1020    0.0210 c         1 CWB      0.621800
      3 C14         1.6900   -0.1260   -0.0040 cc        1 CWB      0.293900
      4 C23         3.0970   -0.5040    0.0590 ca        1 CWB     -0.172900
      5 C22         3.8060   -1.7020    0.1480 ca        1 CWB     -0.049000
      6 C21         5.1910   -1.6400    0.1890 ca        1 CWB     -0.160000
      7 C20         5.8740   -0.4090    0.1450 ca        1 CWB     -0.098000
      8 C19         5.2020    0.8000    0.0590 ca        1 CWB     -0.143000
      9 C18         3.8010    0.7550    0.0140 ca        1 CWB     -0.060200
     10 N16         2.8080    1.7590   -0.0490 na        1 CWB      0.098900
     11 C17         3.0790    3.1600   -0.2520 c3        1 CWB      0.046600
     12 N15         1.5790    1.2250   -0.0820 nd        1 CWB     -0.490100
     13 N11        -0.7150   -0.6130    0.0020 n         1 CWB     -0.561900
     14 C09        -1.8760   -1.4770    0.0220 c3        1 CWB      0.106700
     15 C10        -2.7360   -1.3550   -1.2480 c3        1 CWB     -0.083400
     16 C03        -3.7520   -0.2010   -1.2160 c3        1 CWB      0.178500
     17 C08        -2.7480   -1.2800    1.2740 c3        1 CWB     -0.083400
     18 C07        -3.7630   -0.1300    1.1630 c3        1 CWB      0.178500
     19 N02        -4.5960   -0.3210   -0.0250 n3        1 CWB     -0.714600
     20 C01        -5.7870    0.4920   -0.0550 c3        1 CWB      0.158100
     21 C06        -3.0620    1.2370    1.2330 c3        1 CWB     -0.107400
     22 C05        -2.9380    1.9760   -0.0860 c3        1 CWB     -0.076400
     23 C04        -3.0500    1.1600   -1.3610 c3        1 CWB     -0.107400
     24 H11        -0.8820    0.3650   -0.0290 hn        1 CWB      0.326500
     25 H22         3.2570   -2.6570    0.1830 ha        1 CWB      0.170000
     26 H21         5.7760   -2.5700    0.2570 ha        1 CWB      0.137000
     27 H20         6.9740   -0.4110    0.1800 ha        1 CWB      0.133000
     28 H19         5.7430    1.7550    0.0260 ha        1 CWB      0.136000
     29 H171        3.1220    3.3940   -1.3500 h1        1 CWB      0.058033
     30 H172        2.2780    3.7840    0.2250 h1        1 CWB      0.058033
     31 H173        4.0700    3.3960    0.2180 h1        1 CWB      0.058033
     32 H09        -1.4850   -2.5430    0.0550 h1        1 CWB      0.086700
     33 H101       -2.0910   -1.2380   -2.1550 hc        1 CWB      0.055700
     34 H102       -3.3000   -2.3200   -1.3550 hc        1 CWB      0.055700
     35 H081       -3.3130   -2.2370    1.4330 hc        1 CWB      0.055700
     36 H082       -2.1110   -1.1090    2.1790 hc        1 CWB      0.055700
     37 H03        -4.4250   -0.3350   -2.1150 h1        1 CWB      0.054700
     38 H041       -2.0330    1.0040   -1.8050 hc        1 CWB      0.043200
     39 H042       -3.6240    1.7690   -2.1100 hc        1 CWB      0.043200
     40 H07        -4.4450   -0.2100    2.0630 h1        1 CWB      0.054700
     41 H061       -3.6430    1.8900    1.9400 hc        1 CWB      0.043200
     42 H062       -2.0490    1.1080    1.6960 hc        1 CWB      0.043200
     43 H011       -6.3860    0.2140   -0.9620 h1        1 CWB      0.032033
     44 H012       -6.3940    0.2680    0.8610 h1        1 CWB      0.032033
     45 H013       -5.5850    1.5980   -0.0870 h1        1 CWB      0.032033
     46 H051       -3.7330    2.7720   -0.1140 hc        1 CWB      0.038200
     47 H052       -1.9550    2.5200   -0.0980 hc        1 CWB      0.038200
@<TRIPOS>BOND
     1    1    2 2   
     2    2    3 1   
     3    2   13 1   
     4    3    4 1   
     5    3   12 2   
     6    4    5 ar  
     7    4    9 ar  
     8    5    6 ar  
     9    5   25 1   
    10    6    7 ar  
    11    6   26 1   
    12    7    8 ar  
    13    7   27 1   
    14    8    9 ar  
    15    8   28 1   
    16    9   10 1   
    17   10   11 1   
    18   10   12 1   
    19   11   29 1   
    20   11   30 1   
    21   11   31 1   
    22   13   14 1   
    23   13   24 1   
    24   14   15 1   
    25   14   17 1   
    26   14   32 1   
    27   15   16 1   
    28   15   33 1   
    29   15   34 1   
    30   16   19 1   
    31   16   23 1   
    32   16   37 1   
    33   17   18 1   
    34   17   35 1   
    35   17   36 1   
    36   18   19 1   
    37   18   21 1   
    38   18   40 1   
    39   19   20 1   
    40   20   43 1   
    41   20   44 1   
    42   20   45 1   
    43   21   22 1   
    44   21   41 1   
    45   21   42 1   
    46   22   23 1   
    47   22   46 1   
    48   22   47 1   
    49   23   38 1   
    50   23   39 1   
@<TRIPOS>SUBSTRUCTURE
     1 CWB         1 TEMP              0 ****  ****    0 ROOT
