@<TRIPOS>MOLECULE
CWC
   47    49     1     0     0
SMALL
bcc


@<TRIPOS>ATOM
      1 C1          0.2190   -1.1200    0.9850 c3        1 CWC      0.081100
      2 N2          1.3690   -0.3150    0.4980 nx        1 CWC     -0.679400
      3 C3          2.2740    0.0400    1.6230 c3        1 CWC      0.081100
      4 C4          2.1260   -1.0360   -0.5830 c3        1 CWC      0.105800
      5 C5          1.3900   -1.0390   -1.9150 c3        1 CWC     -0.103400
      6 C6          2.2460   -1.6970   -2.9780 c3        1 CWC     -0.160400
      7 C7          1.4660   -1.7230   -4.2930 c         1 CWC      0.664100
      8 O8          0.3040   -1.2750   -4.3310 o         1 CWC     -0.597100
      9 N9          2.1320   -2.2480   -5.3780 ns        1 CWC     -0.446100
     10 C10         1.6150   -2.4110   -6.6780 ca        1 CWC     -0.078700
     11 C11         0.4530   -1.7650   -7.1430 ca        1 CWC     -0.105000
     12 C12         0.0370   -1.9800   -8.4640 cp        1 CWC     -0.106300
     13 C13         0.8030   -2.8440   -9.2780 ca        1 CWC      0.393200
     14 N14         1.9160   -3.4660   -8.8520 nb        1 CWC     -0.636000
     15 C15         2.3140   -3.2580   -7.5890 ca        1 CWC      0.358200
     16 C16        -1.1660   -1.3360   -8.9810 cp        1 CWC     -0.012000
     17 C17        -2.3180   -1.2640   -8.1970 ca        1 CWC     -0.137000
     18 C18        -3.4970   -0.6690   -8.6730 ca        1 CWC     -0.120000
     19 C19        -3.5750   -0.1190   -9.9420 ca        1 CWC     -0.127000
     20 C20        -2.4260   -0.1720  -10.7450 ca        1 CWC     -0.049200
     21 C21        -1.2010   -0.7850  -10.2710 ca        1 CWC     -0.075800
     22 C22        -0.2400   -0.6490  -11.3410 cc        1 CWC     -0.202200
     23 C23        -0.8790    0.0070  -12.3900 cd        1 CWC     -0.090100
     24 N24        -2.1980    0.3010  -12.0390 na        1 CWC     -0.190400
     25 H11C        0.5930   -2.0710    1.4490 hx        1 CWC      0.107367
     26 H12C       -0.4580   -1.3640    0.1220 hx        1 CWC      0.107367
     27 H13C       -0.3500   -0.5280    1.7520 hx        1 CWC      0.107367
     28 H31C        1.6830    0.5600    2.4250 hx        1 CWC      0.107367
     29 H32C        2.7350   -0.8940    2.0420 hx        1 CWC      0.107367
     30 H33C        3.0830    0.7250    1.2510 hx        1 CWC      0.107367
     31 H41C        3.1230   -0.5200   -0.7030 hx        1 CWC      0.102700
     32 H42C        2.3080   -2.0910   -0.2320 hx        1 CWC      0.102700
     33 H51C        1.1450    0.0080   -2.2440 hc        1 CWC      0.087200
     34 H52C        0.4160   -1.5960   -1.8380 hc        1 CWC      0.087200
     35 H61C        2.5030   -2.7470   -2.6780 hc        1 CWC      0.076200
     36 H62C        3.2020   -1.1280   -3.1180 hc        1 CWC      0.076200
     37 H9          3.0450   -2.6180   -5.2310 hn        1 CWC      0.322500
     38 H11        -0.1310   -1.0960   -6.4900 ha        1 CWC      0.174000
     39 H15         3.2350   -3.7910   -7.2910 h4        1 CWC      0.020100
     40 H13         0.5020   -3.0470  -10.3230 h4        1 CWC      0.044100
     41 H17        -2.3100   -1.6920   -7.1830 ha        1 CWC      0.132000
     42 H18        -4.3820   -0.6460   -8.0180 ha        1 CWC      0.134000
     43 H19        -4.5030    0.3410  -10.3080 ha        1 CWC      0.139000
     44 H24        -2.8670    0.7420  -12.6120 hn        1 CWC      0.304700
     45 H22         0.7920   -0.9870  -11.3210 ha        1 CWC      0.161000
     46 H23        -0.4900    0.2900  -13.3700 h4        1 CWC      0.172000
     47 H21         0.9980    0.5570    0.0920 hn        1 CWC      0.454800
@<TRIPOS>BOND
     1    1    2 1   
     2    1   25 1   
     3    1   26 1   
     4    1   27 1   
     5    2    3 1   
     6    2    4 1   
     7    2   47 1   
     8    3   28 1   
     9    3   29 1   
    10    3   30 1   
    11    4    5 1   
    12    4   31 1   
    13    4   32 1   
    14    5    6 1   
    15    5   33 1   
    16    5   34 1   
    17    6    7 1   
    18    6   35 1   
    19    6   36 1   
    20    7    8 2   
    21    7    9 1   
    22    9   10 1   
    23    9   37 1   
    24   10   11 ar  
    25   10   15 ar  
    26   11   12 ar  
    27   11   38 1   
    28   12   13 ar  
    29   12   16 1   
    30   13   14 ar  
    31   13   40 1   
    32   14   15 ar  
    33   15   39 1   
    34   16   17 ar  
    35   16   21 ar  
    36   17   18 ar  
    37   17   41 1   
    38   18   19 ar  
    39   18   42 1   
    40   19   20 ar  
    41   19   43 1   
    42   20   21 ar  
    43   20   24 1   
    44   21   22 1   
    45   22   23 2   
    46   22   45 1   
    47   23   24 1   
    48   23   46 1   
    49   24   44 1   
@<TRIPOS>SUBSTRUCTURE
     1 CWC         1 TEMP              0 ****  ****    0 ROOT
