@<TRIPOS>MOLECULE
CWC
   47    49     1     0     0
SMALL
bcc


@<TRIPOS>ATOM
      1 C1          0.2270   -1.0980    0.9840 c3        1 CWC      0.081100
      2 N2          1.3850   -0.3050    0.4940 n4        1 CWC     -0.679400
      3 C3          2.2940    0.0450    1.6170 c3        1 CWC      0.081100
      4 C4          2.1340   -1.0350   -0.5860 c3        1 CWC      0.105800
      5 C5          1.3960   -1.0360   -1.9170 c3        1 CWC     -0.103400
      6 C6          2.2460   -1.7040   -2.9790 c3        1 CWC     -0.160400
      7 C7          1.4640   -1.7280   -4.2930 c         1 CWC      0.664100
      8 O8          0.3040   -1.2730   -4.3300 o         1 CWC     -0.597100
      9 N9          2.1250   -2.2600   -5.3770 n         1 CWC     -0.446100
     10 C10         1.6050   -2.4220   -6.6760 ca        1 CWC     -0.078700
     11 C11         0.4470   -1.7700   -7.1420 ca        1 CWC     -0.105000
     12 C12         0.0270   -1.9860   -8.4610 cp        1 CWC     -0.106300
     13 C13         0.7870   -2.8560   -9.2750 ca        1 CWC      0.393200
     14 N14         1.8970   -3.4830   -8.8480 nb        1 CWC     -0.636000
     15 C15         2.2980   -3.2750   -7.5870 ca        1 CWC      0.358200
     16 C16        -1.1730   -1.3370   -8.9780 cp        1 CWC     -0.012000
     17 C17        -2.3230   -1.2560   -8.1930 ca        1 CWC     -0.137000
     18 C18        -3.5000   -0.6560   -8.6680 ca        1 CWC     -0.120000
     19 C19        -3.5760   -0.1080   -9.9380 ca        1 CWC     -0.127000
     20 C20        -2.4290   -0.1700  -10.7430 ca        1 CWC     -0.049200
     21 C21        -1.2070   -0.7880  -10.2690 ca        1 CWC     -0.075800
     22 C22        -0.2460   -0.6600  -11.3410 cc        1 CWC     -0.202200
     23 C23        -0.8830   -0.0030  -12.3900 cd        1 CWC     -0.090100
     24 N24        -2.2000    0.2990  -12.0390 na        1 CWC     -0.190400
     25 H11C       -0.3350   -0.4980    1.7500 hx        1 CWC      0.107367
     26 H12C       -0.4530   -1.3380    0.1220 hx        1 CWC      0.107367
     27 H13C        0.5940   -2.0510    1.4500 hx        1 CWC      0.107367
     28 H31C        1.7080    0.5720    2.4180 hx        1 CWC      0.107367
     29 H32C        2.7460   -0.8920    2.0380 hx        1 CWC      0.107367
     30 H33C        3.1090    0.7210    1.2420 hx        1 CWC      0.107367
     31 H41C        2.3080   -2.0910   -0.2320 hx        1 CWC      0.102700
     32 H42C        3.1350   -0.5280   -0.7080 hx        1 CWC      0.102700
     33 H51C        0.4180   -1.5840   -1.8380 hc        1 CWC      0.087200
     34 H52C        1.1590    0.0120   -2.2480 hc        1 CWC      0.087200
     35 H61C        2.4940   -2.7560   -2.6760 hc        1 CWC      0.076200
     36 H62C        3.2070   -1.1430   -3.1220 hc        1 CWC      0.076200
     37 H9          3.0350   -2.6360   -5.2310 hn        1 CWC      0.322500
     38 H11        -0.1330   -1.0970   -6.4890 ha        1 CWC      0.174000
     39 H15         3.2170   -3.8120   -7.2890 h4        1 CWC      0.020100
     40 H13         0.4830   -3.0590  -10.3190 h4        1 CWC      0.044100
     41 H17        -2.3170   -1.6820   -7.1780 ha        1 CWC      0.132000
     42 H18        -4.3830   -0.6260   -8.0120 ha        1 CWC      0.134000
     43 H19        -4.5020    0.3560  -10.3040 ha        1 CWC      0.139000
     44 H24        -2.8680    0.7430  -12.6110 hn        1 CWC      0.304700
     45 H22         0.7840   -1.0040  -11.3210 ha        1 CWC      0.161000
     46 H23        -0.4930    0.2770  -13.3720 h4        1 CWC      0.172000
     47 H21         1.0210    0.5690    0.0850 hn        1 CWC      0.454800
@<TRIPOS>BOND
     1    1    2 1   
     2    1   25 1   
     3    1   26 1   
     4    1   27 1   
     5    2    3 1   
     6    2    4 1   
     7    2   47 1   
     8    3   28 1   
     9    3   29 1   
    10    3   30 1   
    11    4    5 1   
    12    4   31 1   
    13    4   32 1   
    14    5    6 1   
    15    5   33 1   
    16    5   34 1   
    17    6    7 1   
    18    6   35 1   
    19    6   36 1   
    20    7    8 2   
    21    7    9 1   
    22    9   10 1   
    23    9   37 1   
    24   10   11 ar  
    25   10   15 ar  
    26   11   12 ar  
    27   11   38 1   
    28   12   13 ar  
    29   12   16 1   
    30   13   14 ar  
    31   13   40 1   
    32   14   15 ar  
    33   15   39 1   
    34   16   17 ar  
    35   16   21 ar  
    36   17   18 ar  
    37   17   41 1   
    38   18   19 ar  
    39   18   42 1   
    40   19   20 ar  
    41   19   43 1   
    42   20   21 ar  
    43   20   24 1   
    44   21   22 1   
    45   22   23 2   
    46   22   45 1   
    47   23   24 1   
    48   23   46 1   
    49   24   44 1   
@<TRIPOS>SUBSTRUCTURE
     1 CWC         1 TEMP              0 ****  ****    0 ROOT
