@<TRIPOS>MOLECULE
CWD
   22    22     1     0     0
SMALL
bcc


@<TRIPOS>ATOM
      1 N1          0.0450   -0.2390   -0.6420 n         1 CWD     -0.331000
      2 C2          0.6080   -1.5400   -0.6980 c         1 CWD      0.805500
      3 O2         -0.0370   -2.5350   -1.0940 o         1 CWD     -0.642500
      4 N3          1.9630   -1.6960   -0.3460 n         1 CWD     -0.590500
      5 C4          2.7780   -0.6430    0.0990 c         1 CWD      0.731700
      6 O4          3.9590   -0.8980    0.4000 o         1 CWD     -0.636500
      7 C5          2.1290    0.6710    0.1530 cc        1 CWD     -0.224800
      8 CL5         3.0360    2.0100    0.6450 cl        1 CWD     -0.072400
      9 C6          0.8060    0.8090   -0.1800 cd        1 CWD      0.090600
     10 C7         -1.3930   -0.0600   -0.8270 c3        1 CWD      0.088000
     11 C8         -2.1710    0.2740    0.4570 c3        1 CWD     -0.009500
     12 N8         -2.1560   -0.8070    1.4270 n3        1 CWD     -0.892800
     13 C9         -3.5950    0.7620    0.0040 c         1 CWD      0.896600
     14 O91        -4.5930    0.2920    0.6120 o         1 CWD     -0.826300
     15 O92        -3.6300    1.6140   -0.9240 o         1 CWD     -0.826300
     16 HN3         2.3330   -2.6210   -0.3750 hn        1 CWD      0.342500
     17 H6          0.2810    1.7850   -0.1140 h4        1 CWD      0.187000
     18 H7         -1.5400    0.8000   -1.5450 h1        1 CWD      0.092700
     19 H7A        -1.8010   -0.9990   -1.2960 h1        1 CWD      0.092700
     20 H8         -1.6910    1.1640    0.9610 h1        1 CWD      0.043700
     21 HN8        -2.8620   -0.6010    2.1150 hn        1 CWD      0.341800
     22 HN8A       -2.4410   -1.6570    0.9720 hn        1 CWD      0.341800
@<TRIPOS>BOND
     1    1    2 1   
     2    1    9 1   
     3    1   10 1   
     4    2    3 2   
     5    2    4 1   
     6    4    5 1   
     7    4   16 1   
     8    5    6 2   
     9    5    7 1   
    10    7    8 1   
    11    7    9 2   
    12    9   17 1   
    13   10   11 1   
    14   10   18 1   
    15   10   19 1   
    16   11   12 1   
    17   11   13 1   
    18   11   20 1   
    19   12   21 1   
    20   12   22 1   
    21   13   14 1   
    22   13   15 1   
@<TRIPOS>SUBSTRUCTURE
     1 CWD         1 TEMP              0 ****  ****    0 ROOT
