@<TRIPOS>MOLECULE
CWD
   22    22     1     0     0
SMALL
bcc


@<TRIPOS>ATOM
      1 N1          0.1580   -0.5970    0.2040 n         1 CWD     -0.336000
      2 C2          1.6210   -0.5700    0.1750 c         1 CWD      0.793500
      3 O2          2.2060   -0.5960   -0.8880 o         1 CWD     -0.643500
      4 N3          2.3780   -0.4960    1.4240 n         1 CWD     -0.591500
      5 C4          1.6980   -0.5210    2.6700 c         1 CWD      0.731700
      6 O4          2.3310   -0.5680    3.7060 o         1 CWD     -0.638500
      7 C5          0.2300   -0.5480    2.7030 cc        1 CWD     -0.238800
      8 CL5        -0.6060   -0.6660    4.2300 cl        1 CWD     -0.074400
      9 C6         -0.5290   -0.5770    1.4460 cd        1 CWD      0.109600
     10 C7         -0.5770   -0.6260   -1.0140 c3        1 CWD      0.099000
     11 C8         -1.0640    0.7660   -1.3420 c3        1 CWD     -0.013500
     12 N8         -2.2920    0.6840   -2.0570 n3        1 CWD     -0.897800
     13 C9         -0.0330    1.4730   -2.1910 c         1 CWD      0.899600
     14 O91         0.2100    1.0650   -3.3560 o         1 CWD     -0.821300
     15 O92         0.5740    2.4780   -1.7360 o         1 CWD     -0.821300
     16 HN3         3.2900   -0.4790    1.4040 hn        1 CWD      0.341500
     17 H6         -1.5050   -0.5950    1.4650 h4        1 CWD      0.198000
     18 H7         -1.3450   -1.2260   -0.9180 h1        1 CWD      0.087200
     19 H7A         0.0010   -0.9480   -1.7360 h1        1 CWD      0.087200
     20 H8         -1.2020    1.2660   -0.5140 h1        1 CWD      0.043700
     21 HN8        -2.7110   -0.1060   -1.8560 hn        1 CWD      0.342300
     22 HN8A       -2.8320    1.3860   -1.8200 hn        1 CWD      0.342300
@<TRIPOS>BOND
     1    1    2 1   
     2    1    9 1   
     3    1   10 1   
     4    2    3 2   
     5    2    4 1   
     6    4    5 1   
     7    4   16 1   
     8    5    6 2   
     9    5    7 1   
    10    7    8 1   
    11    7    9 2   
    12    9   17 1   
    13   10   11 1   
    14   10   18 1   
    15   10   19 1   
    16   11   12 1   
    17   11   13 1   
    18   11   20 1   
    19   12   21 1   
    20   12   22 1   
    21   13   14 1   
    22   13   15 1   
@<TRIPOS>SUBSTRUCTURE
     1 CWD         1 TEMP              0 ****  ****    0 ROOT
