@<TRIPOS>MOLECULE
CWK
   45    47     1     0     0
SMALL
bcc


@<TRIPOS>ATOM
      1 Cl         -0.0400    0.0150    0.2020 cl        1 CWK     -0.066400
      2 C1          3.4870   -0.2290   -2.0250 c3        1 CWK      0.302900
      3 O1          2.4610   -0.7560   -1.1910 os        1 CWK     -0.344900
      4 C2          2.8350    0.1330   -3.3750 c3        1 CWK      0.092100
      5 O2          3.7380    0.8910   -4.1560 oh        1 CWK     -0.587800
      6 C3          2.3890   -1.1290   -4.1230 c3        1 CWK      0.073100
      7 O3          1.9420   -0.8350   -5.4300 oh        1 CWK     -0.590800
      8 C4          3.5340   -2.1550   -4.1850 c3        1 CWK      0.090100
      9 O4          3.0920   -3.3800   -4.7400 oh        1 CWK     -0.588800
     10 C5          4.0360   -2.4500   -2.7650 c3        1 CWK      0.100100
     11 O5          4.4700   -1.2330   -2.1400 os        1 CWK     -0.454600
     12 C6          5.2650   -3.3610   -2.7890 c3        1 CWK      0.140400
     13 O6          5.6580   -3.7300   -1.4850 oh        1 CWK     -0.590800
     14 CAA         2.6220   -0.5380    0.1690 ca        1 CWK      0.118100
     15 CAB         3.8600   -0.7120    0.8030 ca        1 CWK     -0.164000
     16 CAC         3.9600   -0.5630    2.1810 ca        1 CWK     -0.093000
     17 CAD         2.8290   -0.2400    2.9460 cp        1 CWK     -0.052000
     18 CAE         1.5940   -0.0680    2.3100 ca        1 CWK     -0.096000
     19 CAF         1.4800   -0.2080    0.9230 ca        1 CWK      0.002400
     20 CAG         2.9370   -0.0850    4.3950 cp        1 CWK     -0.015000
     21 CAH         2.2540    0.9500    5.0510 ca        1 CWK     -0.124500
     22 CAI         2.3580    1.1010    6.4310 ca        1 CWK     -0.090000
     23 CAJ         3.1470    0.2120    7.1750 ca        1 CWK     -0.015000
     24 CAK         3.8290   -0.8260    6.5260 ca        1 CWK     -0.090000
     25 CAL         3.7240   -0.9700    5.1460 ca        1 CWK     -0.124500
     26 CAN         3.2540    0.3640    8.5840 cg        1 CWK      0.231800
     27 NAO         3.3420    0.4880    9.7370 n1        1 CWK     -0.358800
     28 H1          4.0190    0.6530   -1.5720 h2        1 CWK      0.104700
     29 H5          3.2150   -2.9090   -2.1500 h1        1 CWK      0.091700
     30 H2          1.9550    0.8150   -3.2090 h1        1 CWK      0.115700
     31 HO2         4.5720    0.4010   -4.1960 ho        1 CWK      0.411000
     32 H3          1.4990   -1.5840   -3.6020 h1        1 CWK      0.112700
     33 HO3         2.5540   -0.1880   -5.8110 ho        1 CWK      0.417000
     34 H4          4.3730   -1.7480   -4.8190 h1        1 CWK      0.039700
     35 HO4         2.5150   -3.1550   -5.4840 ho        1 CWK      0.425000
     36 H61         4.9960   -4.3210   -3.3070 h1        1 CWK      0.064700
     37 H62         6.1110   -2.8530   -3.3230 h1        1 CWK      0.064700
     38 HO6         5.8310   -2.9130   -1.0000 ho        1 CWK      0.404000
     39 HAB         4.7420   -0.9790    0.2000 ha        1 CWK      0.159000
     40 HAC         4.9340   -0.6980    2.6750 ha        1 CWK      0.145000
     41 HAE         0.7000    0.1760    2.9080 ha        1 CWK      0.155000
     42 HAH         1.6380    1.6530    4.4700 ha        1 CWK      0.144500
     43 HAI         1.8210    1.9180    6.9380 ha        1 CWK      0.148000
     44 HAK         4.4470   -1.5280    7.1080 ha        1 CWK      0.148000
     45 HAL         4.2560   -1.7920    4.6410 ha        1 CWK      0.144500
@<TRIPOS>BOND
     1    1   19 1   
     2    2    3 1   
     3    2    4 1   
     4    2   11 1   
     5    2   28 1   
     6    3   14 1   
     7    4    5 1   
     8    4    6 1   
     9    4   30 1   
    10    5   31 1   
    11    6    7 1   
    12    6    8 1   
    13    6   32 1   
    14    7   33 1   
    15    8    9 1   
    16    8   10 1   
    17    8   34 1   
    18    9   35 1   
    19   10   11 1   
    20   10   12 1   
    21   10   29 1   
    22   12   13 1   
    23   12   36 1   
    24   12   37 1   
    25   13   38 1   
    26   14   15 ar  
    27   14   19 ar  
    28   15   16 ar  
    29   15   39 1   
    30   16   17 ar  
    31   16   40 1   
    32   17   18 ar  
    33   17   20 1   
    34   18   19 ar  
    35   18   41 1   
    36   20   21 ar  
    37   20   25 ar  
    38   21   22 ar  
    39   21   42 1   
    40   22   23 ar  
    41   22   43 1   
    42   23   24 ar  
    43   23   26 1   
    44   24   25 ar  
    45   24   44 1   
    46   25   45 1   
    47   26   27 3   
@<TRIPOS>SUBSTRUCTURE
     1 CWK         1 TEMP              0 ****  ****    0 ROOT
