@<TRIPOS>MOLECULE
CWK
   45    47     1     0     0
SMALL
bcc


@<TRIPOS>ATOM
      1 CL          0.9760    1.9020    0.0050 cl        1 CWK     -0.081400
      2 C1          3.4260   -0.0670   -2.1210 c3        1 CWK      0.305900
      3 O1          2.3380   -0.4460   -1.2770 os        1 CWK     -0.361900
      4 C2          2.8270    0.1440   -3.5270 c3        1 CWK      0.094100
      5 O2          3.7700    0.8020   -4.3580 oh        1 CWK     -0.598800
      6 C3          2.4940   -1.1900   -4.2100 c3        1 CWK      0.115100
      7 O3          2.1710   -1.0160   -5.5730 oh        1 CWK     -0.594800
      8 C4          3.6650   -2.1780   -4.0640 c3        1 CWK      0.087100
      9 O4          3.3280   -3.4470   -4.5930 oh        1 CWK     -0.596800
     10 C5          3.9750   -2.3550   -2.5710 c3        1 CWK      0.140100
     11 O5          4.3830   -1.0930   -2.0280 os        1 CWK     -0.420600
     12 C6          5.1480   -3.3090   -2.3490 c3        1 CWK      0.134400
     13 O6          5.0700   -3.7430   -0.9990 oh        1 CWK     -0.607800
     14 CAA         2.5710   -0.2950    0.0840 ca        1 CWK      0.103100
     15 CAB         3.3590   -1.2350    0.7630 ca        1 CWK     -0.123000
     16 CAC         3.4890   -1.1570    2.1450 ca        1 CWK     -0.106000
     17 CAD         2.8340   -0.1470    2.8660 cp        1 CWK     -0.044000
     18 CAE         2.0520    0.7940    2.1830 ca        1 CWK     -0.110000
     19 CAF         1.9230    0.7310    0.7930 ca        1 CWK      0.004400
     20 CAG         2.9670   -0.0720    4.3200 cp        1 CWK     -0.013000
     21 CAH         1.8560    0.2330    5.1200 ca        1 CWK     -0.125000
     22 CAI         1.9790    0.3030    6.5040 ca        1 CWK     -0.090500
     23 CAJ         3.2230    0.0700    7.1080 ca        1 CWK     -0.017000
     24 CAK         4.3380   -0.2350    6.3150 ca        1 CWK     -0.090500
     25 CAL         4.2070   -0.3060    4.9310 ca        1 CWK     -0.125000
     26 CAN         3.3530    0.1420    8.5210 cg        1 CWK      0.232800
     27 NAO         3.4590    0.2010    9.6780 n1        1 CWK     -0.360800
     28 H1          3.9560    0.8550   -1.7510 h2        1 CWK      0.088700
     29 H5          3.0650   -2.7220   -2.0210 h1        1 CWK      0.086700
     30 H2          1.8900    0.7620   -3.4350 h1        1 CWK      0.076700
     31 HO2         3.8720    1.7000   -4.0190 ho        1 CWK      0.416000
     32 H3          1.5630   -1.6220   -3.7420 h1        1 CWK      0.105700
     33 HO3         2.8830   -0.5020   -5.9790 ho        1 CWK      0.422000
     34 H4          4.5670   -1.7750   -4.6040 h1        1 CWK      0.061700
     35 HO4         2.8370   -3.2850   -5.4110 ho        1 CWK      0.423000
     36 H61         5.0420   -4.1830   -3.0460 h1        1 CWK      0.049700
     37 H62         6.1220   -2.7820   -2.5310 h1        1 CWK      0.049700
     38 HO6         5.8100   -4.3450   -0.8630 ho        1 CWK      0.405000
     39 HAB         3.8750   -2.0240    0.1840 ha        1 CWK      0.185000
     40 HAC         4.1010   -1.9010    2.6770 ha        1 CWK      0.145000
     41 HAE         1.5430    1.5930    2.7450 ha        1 CWK      0.152000
     42 HAH         0.8760    0.4100    4.6490 ha        1 CWK      0.144500
     43 HAI         1.1010    0.5390    7.1250 ha        1 CWK      0.147000
     44 HAK         5.3160   -0.4170    6.7860 ha        1 CWK      0.147000
     45 HAL         5.0860   -0.5410    4.3110 ha        1 CWK      0.144500
@<TRIPOS>BOND
     1    1   19 1   
     2    2    3 1   
     3    2    4 1   
     4    2   11 1   
     5    2   28 1   
     6    3   14 1   
     7    4    5 1   
     8    4    6 1   
     9    4   30 1   
    10    5   31 1   
    11    6    7 1   
    12    6    8 1   
    13    6   32 1   
    14    7   33 1   
    15    8    9 1   
    16    8   10 1   
    17    8   34 1   
    18    9   35 1   
    19   10   11 1   
    20   10   12 1   
    21   10   29 1   
    22   12   13 1   
    23   12   36 1   
    24   12   37 1   
    25   13   38 1   
    26   14   15 ar  
    27   14   19 ar  
    28   15   16 ar  
    29   15   39 1   
    30   16   17 ar  
    31   16   40 1   
    32   17   18 ar  
    33   17   20 1   
    34   18   19 ar  
    35   18   41 1   
    36   20   21 ar  
    37   20   25 ar  
    38   21   22 ar  
    39   21   42 1   
    40   22   23 ar  
    41   22   43 1   
    42   23   24 ar  
    43   23   26 1   
    44   24   25 ar  
    45   24   44 1   
    46   25   45 1   
    47   26   27 3   
@<TRIPOS>SUBSTRUCTURE
     1 CWK         1 TEMP              0 ****  ****    0 ROOT
