@<TRIPOS>MOLECULE
CWR
   18    18     1     0     0
SMALL
bcc


@<TRIPOS>ATOM
      1 C1         -0.5070   -1.5420    0.0640 c3        1 CWR      0.188200
      2 N2         -1.8690   -1.3070   -0.4590 n2        1 CWR     -0.552900
      3 N3         -0.0810   -0.3300    0.8010 n         1 CWR     -0.426800
      4 C2         -1.0600    0.6470    0.5830 c         1 CWR      0.550200
      5 O2         -1.0880    1.8160    0.9960 o         1 CWR     -0.642500
      6 CA2        -2.1890   -0.0720   -0.1790 ce        1 CWR      0.327300
      7 CA3         1.3120   -0.0340    0.9920 c3        1 CWR     -0.046000
      8 C3          2.3050   -0.2500   -0.1860 c         1 CWR      0.902600
      9 O3          1.9080   -0.7460   -1.2770 o         1 CWR     -0.831800
     10 CB2        -3.4270    0.6570   -0.5200 c3        1 CWR     -0.116400
     11 OXT         3.4950    0.0890    0.0560 o         1 CWR     -0.831800
     12 H11        -0.5350   -2.4110    0.7780 h2        1 CWR      0.112200
     13 H12         0.1980   -1.7610   -0.7990 h2        1 CWR      0.112200
     14 HA31        1.3950    1.0440    1.3080 h1        1 CWR      0.050700
     15 HA32        1.6680   -0.6820    1.8430 h1        1 CWR      0.050700
     16 HB21       -3.4450    1.6280    0.0350 hc        1 CWR      0.051033
     17 HB22       -3.4550    0.8700   -1.6180 hc        1 CWR      0.051033
     18 HB23       -4.3330    0.0620   -0.2510 hc        1 CWR      0.051033
@<TRIPOS>BOND
     1    1    2 1   
     2    1    3 1   
     3    1   12 1   
     4    1   13 1   
     5    2    6 2   
     6    3    4 1   
     7    3    7 1   
     8    4    5 2   
     9    4    6 1   
    10    6   10 1   
    11    7    8 1   
    12    7   14 1   
    13    7   15 1   
    14    8    9 1   
    15    8   11 1   
    16   10   16 1   
    17   10   17 1   
    18   10   18 1   
@<TRIPOS>SUBSTRUCTURE
     1 CWR         1 TEMP              0 ****  ****    0 ROOT
