@<TRIPOS>MOLECULE
CWR
   18    18     1     0     0
SMALL
bcc


@<TRIPOS>ATOM
      1 C1         -0.4580   -0.4850   -1.5690 c3        1 CWR      0.188200
      2 N2          0.9760   -0.4600   -1.5770 n2        1 CWR     -0.552900
      3 N3         -0.7490   -0.1590   -0.0480 n         1 CWR     -0.426800
      4 C2          0.6100   -0.2410    0.6370 c         1 CWR      0.550200
      5 O2          0.8060   -0.5550    1.7960 o         1 CWR     -0.642500
      6 CA2         1.5160   -0.3780   -0.4180 ce        1 CWR      0.327300
      7 CA3        -1.9890   -0.2410    0.5820 c3        1 CWR     -0.046000
      8 C3         -2.2790    1.0660    1.2970 c         1 CWR      0.902600
      9 O3         -2.1610    1.1390    2.5260 o         1 CWR     -0.831800
     10 CB2         2.9650    0.1410   -0.2700 c3        1 CWR     -0.116400
     11 OXT        -2.6550    2.0880    0.6300 o         1 CWR     -0.831800
     12 H11        -0.9430    0.1060   -2.2020 h2        1 CWR      0.112200
     13 H12        -0.7830   -1.3760   -1.8380 h2        1 CWR      0.112200
     14 HA31       -2.6880   -0.4080   -0.0910 h1        1 CWR      0.050700
     15 HA32       -1.9770   -0.9930    1.2470 h1        1 CWR      0.050700
     16 HB21        3.4330    0.0390   -1.1140 hc        1 CWR      0.051033
     17 HB22        2.9480    1.0940   -0.0150 hc        1 CWR      0.051033
     18 HB23        3.4290   -0.3770    0.4270 hc        1 CWR      0.051033
@<TRIPOS>BOND
     1    1    2 1   
     2    1    3 1   
     3    1   12 1   
     4    1   13 1   
     5    2    6 2   
     6    3    4 1   
     7    3    7 1   
     8    4    5 2   
     9    4    6 1   
    10    6   10 1   
    11    7    8 1   
    12    7   14 1   
    13    7   15 1   
    14    8    9 1   
    15    8   11 1   
    16   10   16 1   
    17   10   17 1   
    18   10   18 1   
@<TRIPOS>SUBSTRUCTURE
     1 CWR         1 TEMP              0 ****  ****    0 ROOT
