@<TRIPOS>MOLECULE
CWS
   21    16     1     0     0
SMALL
bcc


@<TRIPOS>ATOM
      1 N1          0.5770    0.0070   -2.5790 n1        1 CWS     -0.521800
      2 C2          1.9440    0.0070   -2.5790 c1        1 CWS      0.393300
      3 N3          2.6300    0.0070   -1.3930 n1        1 CWS     -0.586800
      4 C4          1.9600    0.0070   -0.2260 c1        1 CWS      0.558600
      5 C5         -0.1310    0.0070    1.0000 c1        1 CWS     -0.036500
      6 C6         -1.5170    0.0070    1.0000 c1        1 CWS     -0.057100
      7 C7         -2.2100    0.0070   -0.1980 c1        1 CWS     -0.050500
      8 C8         -1.5180    0.0070   -1.3980 c1        1 CWS     -0.050500
      9 C4A         0.5750    0.0070   -0.2230 c1        1 CWS     -0.058500
     10 C8A        -0.1050    0.0070   -1.3990 c1        1 CWS     -0.058500
     11 C11        -2.3610   -0.0240    2.2560 c3        1 CWS     -0.088000
     12 NA4         3.1470    0.0050    0.5530 n3        1 CWS     -0.808400
     13 H2          2.4310    0.0070   -3.4240 ha        1 CWS      0.130500
     14 HA41        3.5210    0.7940    0.8150 hn        1 CWS      0.425800
     15 HA42        3.5190   -0.7860    0.8140 hn        1 CWS      0.425800
     16 H5          0.3570    0.0070    1.8450 ha        1 CWS      0.069500
     17 H7         -3.1860    0.0070   -0.1980 ha        1 CWS      0.088000
     18 H111       -2.9560    0.7500    2.2680 hc        1 CWS      0.046033
     19 H112       -1.7800    0.0000    3.0400 hc        1 CWS      0.046033
     20 H113       -2.8920   -0.8430    2.2700 hc        1 CWS      0.046033
     21 H8         -2.0060    0.0070   -2.2430 ha        1 CWS      0.088000
@<TRIPOS>BOND
     1    1    2 3   
     2    2   13 1   
     3    3    4 3   
     4    4   12 1   
     5    5    6 3   
     6    5   16 1   
     7    6   11 1   
     8    7    8 3   
     9    7   17 1   
    10    8   21 1   
    11    9   10 1   
    12   11   18 1   
    13   11   19 1   
    14   11   20 1   
    15   12   14 1   
    16   12   15 1   
@<TRIPOS>SUBSTRUCTURE
     1 CWS         1 TEMP              0 ****  ****    0 ROOT
